MODEL 1
REMARK VINA RESULT:      -9.0      0.000      0.000
REMARK  6 active torsions:
REMARK  status: ('A' for Active; 'I' for Inactive)
REMARK    1  A    between atoms: C_2  and  C_3 
REMARK    2  A    between atoms: C_3  and  C_4 
REMARK    3  A    between atoms: C_3  and  C_10 
REMARK    4  A    between atoms: C_10  and  C_11 
REMARK       I    between atoms: C_11  and  N_12 
REMARK    5  A    between atoms: N_12  and  C_13 
REMARK    6  A    between atoms: C_20  and  C_21 
REMARK       I    between atoms: C_21  and  N_22 
ROOT
HETATM    1  C   UNL     1      40.805 -13.705   0.499  1.00  0.00     0.035 A 
HETATM    2  C   UNL     1      40.157 -14.274  -0.606  1.00  0.00     0.046 A 
HETATM    3  C   UNL     1      39.104 -13.575  -1.234  1.00  0.00     0.030 A 
HETATM    4  C   UNL     1      38.729 -12.335  -0.732  1.00  0.00     0.063 A 
HETATM    5  N   UNL     1      37.695 -11.922  -1.522  1.00  0.00    -0.277 N 
HETATM    6  H   UNL     1      37.167 -11.060  -1.441  1.00  0.00     0.189 HD
HETATM    7  N   UNL     1      37.371 -12.773  -2.509  1.00  0.00    -0.168 NA
HETATM    8  C   UNL     1      38.238 -13.800  -2.347  1.00  0.00     0.156 A 
HETATM    9  C   UNL     1      39.356 -11.735   0.363  1.00  0.00     0.034 A 
HETATM   10  C   UNL     1      40.407 -12.443   0.960  1.00  0.00     0.032 A 
ENDROOT
BRANCH   1  11
HETATM   11  N   UNL     1      41.875 -14.325   1.183  1.00  0.00    -0.327 N 
HETATM   12  C   UNL     1      41.785 -15.184   2.260  1.00  0.00     0.222 C 
HETATM   13  O   UNL     1      40.742 -15.522   2.817  1.00  0.00    -0.273 OA
HETATM   14  H   UNL     1      42.792 -13.973   0.953  1.00  0.00     0.169 HD
BRANCH  12  15
HETATM   15  C   UNL     1      43.096 -15.808   2.726  1.00  0.00     0.112 C 
BRANCH  15  16
HETATM   16  C   UNL     1      43.089 -16.762   3.936  1.00  0.00     0.027 C 
BRANCH  16  17
HETATM   17  C   UNL     1      44.083 -16.304   5.030  1.00  0.00     0.005 C 
HETATM   18  C   UNL     1      43.413 -15.798   6.301  1.00  0.00     0.006 C 
ENDBRANCH  16  17
BRANCH  16  19
HETATM   19  C   UNL     1      43.375 -18.220   3.605  1.00  0.00    -0.054 A 
HETATM   20  C   UNL     1      43.139 -18.759   2.332  1.00  0.00     0.007 A 
HETATM   21  C   UNL     1      43.398 -20.106   2.071  1.00  0.00     0.001 A 
HETATM   22  C   UNL     1      43.910 -20.927   3.072  1.00  0.00     0.000 A 
HETATM   23  C   UNL     1      44.170 -20.402   4.336  1.00  0.00     0.001 A 
HETATM   24  C   UNL     1      43.907 -19.057   4.599  1.00  0.00     0.007 A 
ENDBRANCH  16  19
ENDBRANCH  15  16
ENDBRANCH  12  15
ENDBRANCH   1  11
BRANCH   8  25
HETATM   25  C   UNL     1      38.226 -14.957  -3.254  1.00  0.00     0.270 C 
HETATM   26  N   UNL     1      38.278 -16.166  -2.614  1.00  0.00    -0.365 N 
HETATM   27  H   UNL     1      38.307 -16.179  -1.602  1.00  0.00     0.159 HD
HETATM   28  H   UNL     1      38.260 -17.016  -3.155  1.00  0.00     0.159 HD
HETATM   29  O   UNL     1      38.168 -14.890  -4.476  1.00  0.00    -0.266 OA
ENDBRANCH   8  25
TORSDOF 6
ENDMDL
MODEL 2
REMARK VINA RESULT:      -8.4      1.529      3.327
REMARK  6 active torsions:
REMARK  status: ('A' for Active; 'I' for Inactive)
REMARK    1  A    between atoms: C_2  and  C_3 
REMARK    2  A    between atoms: C_3  and  C_4 
REMARK    3  A    between atoms: C_3  and  C_10 
REMARK    4  A    between atoms: C_10  and  C_11 
REMARK       I    between atoms: C_11  and  N_12 
REMARK    5  A    between atoms: N_12  and  C_13 
REMARK    6  A    between atoms: C_20  and  C_21 
REMARK       I    between atoms: C_21  and  N_22 
ROOT
HETATM    1  C   UNL     1      40.747 -15.588   1.876  1.00  0.00     0.035 A 
HETATM    2  C   UNL     1      40.391 -15.427   0.530  1.00  0.00     0.046 A 
HETATM    3  C   UNL     1      39.715 -14.256   0.122  1.00  0.00     0.030 A 
HETATM    4  C   UNL     1      39.412 -13.292   1.075  1.00  0.00     0.063 A 
HETATM    5  N   UNL     1      38.757 -12.304   0.395  1.00  0.00    -0.277 N 
HETATM    6  H   UNL     1      38.379 -11.444   0.775  1.00  0.00     0.189 HD
HETATM    7  N   UNL     1      38.621 -12.529  -0.922  1.00  0.00    -0.168 NA
HETATM    8  C   UNL     1      39.213 -13.731  -1.107  1.00  0.00     0.156 A 
HETATM    9  C   UNL     1      39.756 -13.416   2.423  1.00  0.00     0.034 A 
HETATM   10  C   UNL     1      40.438 -14.581   2.799  1.00  0.00     0.032 A 
ENDROOT
BRANCH   1  11
HETATM   11  N   UNL     1      41.434 -16.719   2.372  1.00  0.00    -0.327 N 
HETATM   12  C   UNL     1      42.793 -16.956   2.316  1.00  0.00     0.222 C 
HETATM   13  O   UNL     1      43.624 -16.219   1.789  1.00  0.00    -0.273 OA
HETATM   14  H   UNL     1      40.845 -17.491   2.648  1.00  0.00     0.169 HD
BRANCH  12  15
HETATM   15  C   UNL     1      43.282 -18.205   3.042  1.00  0.00     0.112 C 
BRANCH  15  16
HETATM   16  C   UNL     1      44.046 -18.052   4.372  1.00  0.00     0.027 C 
BRANCH  16  17
HETATM   17  C   UNL     1      44.147 -19.397   5.129  1.00  0.00     0.005 C 
HETATM   18  C   UNL     1      43.952 -20.621   4.244  1.00  0.00     0.006 C 
ENDBRANCH  16  17
BRANCH  16  19
HETATM   19  C   UNL     1      43.477 -17.006   5.320  1.00  0.00    -0.054 A 
HETATM   20  C   UNL     1      42.157 -17.061   5.791  1.00  0.00     0.007 A 
HETATM   21  C   UNL     1      41.666 -16.073   6.647  1.00  0.00     0.001 A 
HETATM   22  C   UNL     1      42.490 -15.027   7.055  1.00  0.00     0.000 A 
HETATM   23  C   UNL     1      43.809 -14.969   6.613  1.00  0.00     0.001 A 
HETATM   24  C   UNL     1      44.300 -15.953   5.754  1.00  0.00     0.007 A 
ENDBRANCH  16  19
ENDBRANCH  15  16
ENDBRANCH  12  15
ENDBRANCH   1  11
BRANCH   8  25
HETATM   25  C   UNL     1      39.294 -14.343  -2.442  1.00  0.00     0.270 C 
HETATM   26  N   UNL     1      38.536 -15.474  -2.583  1.00  0.00    -0.365 N 
HETATM   27  H   UNL     1      37.985 -15.791  -1.794  1.00  0.00     0.159 HD
HETATM   28  H   UNL     1      38.518 -15.953  -3.469  1.00  0.00     0.159 HD
HETATM   29  O   UNL     1      39.961 -13.908  -3.374  1.00  0.00    -0.266 OA
ENDBRANCH   8  25
TORSDOF 6
ENDMDL
MODEL 3
REMARK VINA RESULT:      -8.4      4.622      7.620
REMARK  6 active torsions:
REMARK  status: ('A' for Active; 'I' for Inactive)
REMARK    1  A    between atoms: C_2  and  C_3 
REMARK    2  A    between atoms: C_3  and  C_4 
REMARK    3  A    between atoms: C_3  and  C_10 
REMARK    4  A    between atoms: C_10  and  C_11 
REMARK       I    between atoms: C_11  and  N_12 
REMARK    5  A    between atoms: N_12  and  C_13 
REMARK    6  A    between atoms: C_20  and  C_21 
REMARK       I    between atoms: C_21  and  N_22 
ROOT
HETATM    1  C   UNL     1      42.350 -12.587   5.251  1.00  0.00     0.035 A 
HETATM    2  C   UNL     1      43.408 -12.175   6.074  1.00  0.00     0.046 A 
HETATM    3  C   UNL     1      43.323 -10.942   6.755  1.00  0.00     0.030 A 
HETATM    4  C   UNL     1      42.188 -10.159   6.584  1.00  0.00     0.063 A 
HETATM    5  N   UNL     1      42.402  -9.042   7.342  1.00  0.00    -0.277 N 
HETATM    6  H   UNL     1      41.783  -8.246   7.450  1.00  0.00     0.189 HD
HETATM    7  N   UNL     1      43.567  -9.034   8.009  1.00  0.00    -0.168 NA
HETATM    8  C   UNL     1      44.147 -10.206   7.659  1.00  0.00     0.156 A 
HETATM    9  C   UNL     1      41.114 -10.539   5.778  1.00  0.00     0.034 A 
HETATM   10  C   UNL     1      41.217 -11.774   5.123  1.00  0.00     0.032 A 
ENDROOT
BRANCH   1  11
HETATM   11  N   UNL     1      42.342 -13.808   4.541  1.00  0.00    -0.327 N 
HETATM   12  C   UNL     1      41.822 -15.013   4.968  1.00  0.00     0.222 C 
HETATM   13  O   UNL     1      41.304 -15.219   6.063  1.00  0.00    -0.273 OA
HETATM   14  H   UNL     1      42.916 -13.825   3.710  1.00  0.00     0.169 HD
BRANCH  12  15
HETATM   15  C   UNL     1      41.838 -16.145   3.945  1.00  0.00     0.112 C 
BRANCH  15  16
HETATM   16  C   UNL     1      43.178 -16.578   3.319  1.00  0.00     0.027 C 
BRANCH  16  17
HETATM   17  C   UNL     1      43.330 -16.046   1.874  1.00  0.00     0.005 C 
HETATM   18  C   UNL     1      42.046 -15.475   1.287  1.00  0.00     0.006 C 
ENDBRANCH  16  17
BRANCH  16  19
HETATM   19  C   UNL     1      43.424 -18.080   3.309  1.00  0.00    -0.054 A 
HETATM   20  C   UNL     1      43.132 -18.879   2.195  1.00  0.00     0.007 A 
HETATM   21  C   UNL     1      43.356 -20.257   2.230  1.00  0.00     0.001 A 
HETATM   22  C   UNL     1      43.889 -20.851   3.371  1.00  0.00     0.000 A 
HETATM   23  C   UNL     1      44.204 -20.068   4.479  1.00  0.00     0.001 A 
HETATM   24  C   UNL     1      43.977 -18.692   4.447  1.00  0.00     0.007 A 
ENDBRANCH  16  19
ENDBRANCH  15  16
ENDBRANCH  12  15
ENDBRANCH   1  11
BRANCH   8  25
HETATM   25  C   UNL     1      45.459 -10.596   8.197  1.00  0.00     0.270 C 
HETATM   26  N   UNL     1      46.483 -10.494   7.295  1.00  0.00    -0.365 N 
HETATM   27  H   UNL     1      46.277 -10.159   6.362  1.00  0.00     0.159 HD
HETATM   28  H   UNL     1      47.421 -10.728   7.579  1.00  0.00     0.159 HD
HETATM   29  O   UNL     1      45.661 -10.976   9.345  1.00  0.00    -0.266 OA
ENDBRANCH   8  25
TORSDOF 6
ENDMDL
MODEL 4
REMARK VINA RESULT:      -8.4      5.415      8.977
REMARK  6 active torsions:
REMARK  status: ('A' for Active; 'I' for Inactive)
REMARK    1  A    between atoms: C_2  and  C_3 
REMARK    2  A    between atoms: C_3  and  C_4 
REMARK    3  A    between atoms: C_3  and  C_10 
REMARK    4  A    between atoms: C_10  and  C_11 
REMARK       I    between atoms: C_11  and  N_12 
REMARK    5  A    between atoms: N_12  and  C_13 
REMARK    6  A    between atoms: C_20  and  C_21 
REMARK       I    between atoms: C_21  and  N_22 
ROOT
HETATM    1  C   UNL     1      44.077 -12.481   6.499  1.00  0.00     0.035 A 
HETATM    2  C   UNL     1      43.706 -12.042   7.778  1.00  0.00     0.046 A 
HETATM    3  C   UNL     1      44.447 -11.018   8.406  1.00  0.00     0.030 A 
HETATM    4  C   UNL     1      45.537 -10.473   7.738  1.00  0.00     0.063 A 
HETATM    5  N   UNL     1      46.051  -9.536   8.588  1.00  0.00    -0.277 N 
HETATM    6  H   UNL     1      46.860  -8.944   8.433  1.00  0.00     0.189 HD
HETATM    7  N   UNL     1      45.383  -9.405   9.746  1.00  0.00    -0.168 NA
HETATM    8  C   UNL     1      44.384 -10.313   9.646  1.00  0.00     0.156 A 
HETATM    9  C   UNL     1      45.931 -10.882   6.462  1.00  0.00     0.034 A 
HETATM   10  C   UNL     1      45.171 -11.890   5.855  1.00  0.00     0.032 A 
ENDROOT
BRANCH   1  11
HETATM   11  N   UNL     1      43.389 -13.491   5.790  1.00  0.00    -0.327 N 
HETATM   12  C   UNL     1      43.571 -14.855   5.901  1.00  0.00     0.222 C 
HETATM   13  O   UNL     1      44.397 -15.407   6.626  1.00  0.00    -0.273 OA
HETATM   14  H   UNL     1      42.826 -13.165   5.018  1.00  0.00     0.169 HD
BRANCH  12  15
HETATM   15  C   UNL     1      42.602 -15.724   5.105  1.00  0.00     0.112 C 
BRANCH  15  16
HETATM   16  C   UNL     1      42.990 -16.178   3.685  1.00  0.00     0.027 C 
BRANCH  16  17
HETATM   17  C   UNL     1      41.901 -15.807   2.650  1.00  0.00     0.005 C 
HETATM   18  C   UNL     1      40.490 -15.775   3.223  1.00  0.00     0.006 C 
ENDBRANCH  16  17
BRANCH  16  19
HETATM   19  C   UNL     1      43.299 -17.662   3.549  1.00  0.00    -0.054 A 
HETATM   20  C   UNL     1      43.864 -18.408   4.593  1.00  0.00     0.007 A 
HETATM   21  C   UNL     1      44.149 -19.765   4.424  1.00  0.00     0.001 A 
HETATM   22  C   UNL     1      43.861 -20.396   3.216  1.00  0.00     0.000 A 
HETATM   23  C   UNL     1      43.281 -19.673   2.176  1.00  0.00     0.001 A 
HETATM   24  C   UNL     1      43.000 -18.317   2.342  1.00  0.00     0.007 A 
ENDBRANCH  16  19
ENDBRANCH  15  16
ENDBRANCH  12  15
ENDBRANCH   1  11
BRANCH   8  25
HETATM   25  C   UNL     1      43.397 -10.480  10.722  1.00  0.00     0.270 C 
HETATM   26  N   UNL     1      42.161  -9.970  10.429  1.00  0.00    -0.365 N 
HETATM   27  H   UNL     1      42.016  -9.541   9.524  1.00  0.00     0.159 HD
HETATM   28  H   UNL     1      41.416 -10.052  11.103  1.00  0.00     0.159 HD
HETATM   29  O   UNL     1      43.616 -11.029  11.797  1.00  0.00    -0.266 OA
ENDBRANCH   8  25
TORSDOF 6
ENDMDL
MODEL 5
REMARK VINA RESULT:      -8.2      4.515      6.430
REMARK  6 active torsions:
REMARK  status: ('A' for Active; 'I' for Inactive)
REMARK    1  A    between atoms: C_2  and  C_3 
REMARK    2  A    between atoms: C_3  and  C_4 
REMARK    3  A    between atoms: C_3  and  C_10 
REMARK    4  A    between atoms: C_10  and  C_11 
REMARK       I    between atoms: C_11  and  N_12 
REMARK    5  A    between atoms: N_12  and  C_13 
REMARK    6  A    between atoms: C_20  and  C_21 
REMARK       I    between atoms: C_21  and  N_22 
ROOT
HETATM    1  C   UNL     1      40.239 -13.159   4.861  1.00  0.00     0.035 A 
HETATM    2  C   UNL     1      40.128 -12.380   6.021  1.00  0.00     0.046 A 
HETATM    3  C   UNL     1      39.452 -11.141   5.968  1.00  0.00     0.030 A 
HETATM    4  C   UNL     1      38.917 -10.722   4.756  1.00  0.00     0.063 A 
HETATM    5  N   UNL     1      38.351  -9.505   5.013  1.00  0.00    -0.277 N 
HETATM    6  H   UNL     1      37.873  -8.900   4.354  1.00  0.00     0.189 HD
HETATM    7  N   UNL     1      38.451  -9.100   6.289  1.00  0.00    -0.168 NA
HETATM    8  C   UNL     1      39.126 -10.105   6.895  1.00  0.00     0.156 A 
HETATM    9  C   UNL     1      39.003 -11.475   3.583  1.00  0.00     0.034 A 
HETATM   10  C   UNL     1      39.667 -12.705   3.666  1.00  0.00     0.032 A 
ENDROOT
BRANCH   1  11
HETATM   11  N   UNL     1      40.886 -14.414   4.823  1.00  0.00    -0.327 N 
HETATM   12  C   UNL     1      42.245 -14.645   4.741  1.00  0.00     0.222 C 
HETATM   13  O   UNL     1      43.112 -13.778   4.658  1.00  0.00    -0.273 OA
HETATM   14  H   UNL     1      40.277 -15.207   4.681  1.00  0.00     0.169 HD
BRANCH  12  15
HETATM   15  C   UNL     1      42.680 -16.104   4.842  1.00  0.00     0.112 C 
BRANCH  15  16
HETATM   16  C   UNL     1      43.432 -16.749   3.662  1.00  0.00     0.027 C 
BRANCH  16  17
HETATM   17  C   UNL     1      42.747 -16.436   2.310  1.00  0.00     0.005 C 
HETATM   18  C   UNL     1      43.539 -15.487   1.421  1.00  0.00     0.006 C 
ENDBRANCH  16  17
BRANCH  16  19
HETATM   19  C   UNL     1      43.621 -18.255   3.770  1.00  0.00    -0.054 A 
HETATM   20  C   UNL     1      43.496 -19.107   2.663  1.00  0.00     0.007 A 
HETATM   21  C   UNL     1      43.659 -20.487   2.805  1.00  0.00     0.001 A 
HETATM   22  C   UNL     1      43.964 -21.031   4.050  1.00  0.00     0.000 A 
HETATM   23  C   UNL     1      44.112 -20.197   5.155  1.00  0.00     0.001 A 
HETATM   24  C   UNL     1      43.945 -18.819   5.016  1.00  0.00     0.007 A 
ENDBRANCH  16  19
ENDBRANCH  15  16
ENDBRANCH  12  15
ENDBRANCH   1  11
BRANCH   8  25
HETATM   25  C   UNL     1      39.436 -10.057   8.331  1.00  0.00     0.270 C 
HETATM   26  N   UNL     1      40.751  -9.799   8.609  1.00  0.00    -0.365 N 
HETATM   27  H   UNL     1      41.390  -9.652   7.837  1.00  0.00     0.159 HD
HETATM   28  H   UNL     1      41.053  -9.733   9.568  1.00  0.00     0.159 HD
HETATM   29  O   UNL     1      38.619 -10.221   9.230  1.00  0.00    -0.266 OA
ENDBRANCH   8  25
TORSDOF 6
ENDMDL
MODEL 6
REMARK VINA RESULT:      -8.1      4.610      6.910
REMARK  6 active torsions:
REMARK  status: ('A' for Active; 'I' for Inactive)
REMARK    1  A    between atoms: C_2  and  C_3 
REMARK    2  A    between atoms: C_3  and  C_4 
REMARK    3  A    between atoms: C_3  and  C_10 
REMARK    4  A    between atoms: C_10  and  C_11 
REMARK       I    between atoms: C_11  and  N_12 
REMARK    5  A    between atoms: N_12  and  C_13 
REMARK    6  A    between atoms: C_20  and  C_21 
REMARK       I    between atoms: C_21  and  N_22 
ROOT
HETATM    1  C   UNL     1      43.008 -12.964   5.586  1.00  0.00     0.035 A 
HETATM    2  C   UNL     1      42.285 -11.784   5.361  1.00  0.00     0.046 A 
HETATM    3  C   UNL     1      42.518 -10.656   6.178  1.00  0.00     0.030 A 
HETATM    4  C   UNL     1      43.457 -10.750   7.197  1.00  0.00     0.063 A 
HETATM    5  N   UNL     1      43.448  -9.529   7.811  1.00  0.00    -0.277 N 
HETATM    6  H   UNL     1      44.005  -9.238   8.607  1.00  0.00     0.189 HD
HETATM    7  N   UNL     1      42.598  -8.640   7.273  1.00  0.00    -0.168 NA
HETATM    8  C   UNL     1      42.018  -9.321   6.257  1.00  0.00     0.156 A 
HETATM    9  C   UNL     1      44.199 -11.906   7.447  1.00  0.00     0.034 A 
HETATM   10  C   UNL     1      43.959 -13.006   6.613  1.00  0.00     0.032 A 
ENDROOT
BRANCH   1  11
HETATM   11  N   UNL     1      42.850 -14.135   4.813  1.00  0.00    -0.327 N 
HETATM   12  C   UNL     1      41.869 -15.096   4.952  1.00  0.00     0.222 C 
HETATM   13  O   UNL     1      40.983 -15.093   5.805  1.00  0.00    -0.273 OA
HETATM   14  H   UNL     1      43.629 -14.359   4.210  1.00  0.00     0.169 HD
BRANCH  12  15
HETATM   15  C   UNL     1      41.862 -16.200   3.898  1.00  0.00     0.112 C 
BRANCH  15  16
HETATM   16  C   UNL     1      43.195 -16.650   3.270  1.00  0.00     0.027 C 
BRANCH  16  17
HETATM   17  C   UNL     1      43.327 -16.170   1.805  1.00  0.00     0.005 C 
HETATM   18  C   UNL     1      42.103 -15.426   1.287  1.00  0.00     0.006 C 
ENDBRANCH  16  17
BRANCH  16  19
HETATM   19  C   UNL     1      43.447 -18.151   3.311  1.00  0.00    -0.054 A 
HETATM   20  C   UNL     1      43.193 -18.983   2.211  1.00  0.00     0.007 A 
HETATM   21  C   UNL     1      43.420 -20.358   2.292  1.00  0.00     0.001 A 
HETATM   22  C   UNL     1      43.918 -20.917   3.467  1.00  0.00     0.000 A 
HETATM   23  C   UNL     1      44.196 -20.102   4.561  1.00  0.00     0.001 A 
HETATM   24  C   UNL     1      43.965 -18.728   4.483  1.00  0.00     0.007 A 
ENDBRANCH  16  19
ENDBRANCH  15  16
ENDBRANCH  12  15
ENDBRANCH   1  11
BRANCH   8  25
HETATM   25  C   UNL     1      41.016  -8.686   5.389  1.00  0.00     0.270 C 
HETATM   26  N   UNL     1      41.518  -8.228   4.201  1.00  0.00    -0.365 N 
HETATM   27  H   UNL     1      42.502  -8.364   4.006  1.00  0.00     0.159 HD
HETATM   28  H   UNL     1      40.901  -7.791   3.536  1.00  0.00     0.159 HD
HETATM   29  O   UNL     1      39.827  -8.565   5.662  1.00  0.00    -0.266 OA
ENDBRANCH   8  25
TORSDOF 6
ENDMDL
MODEL 7
REMARK VINA RESULT:      -8.1      5.491      8.596
REMARK  6 active torsions:
REMARK  status: ('A' for Active; 'I' for Inactive)
REMARK    1  A    between atoms: C_2  and  C_3 
REMARK    2  A    between atoms: C_3  and  C_4 
REMARK    3  A    between atoms: C_3  and  C_10 
REMARK    4  A    between atoms: C_10  and  C_11 
REMARK       I    between atoms: C_11  and  N_12 
REMARK    5  A    between atoms: N_12  and  C_13 
REMARK    6  A    between atoms: C_20  and  C_21 
REMARK       I    between atoms: C_21  and  N_22 
ROOT
HETATM    1  C   UNL     1      43.722 -11.889   6.485  1.00  0.00     0.035 A 
HETATM    2  C   UNL     1      43.127 -10.721   6.980  1.00  0.00     0.046 A 
HETATM    3  C   UNL     1      43.933  -9.725   7.574  1.00  0.00     0.030 A 
HETATM    4  C   UNL     1      45.303  -9.936   7.660  1.00  0.00     0.063 A 
HETATM    5  N   UNL     1      45.801  -8.827   8.285  1.00  0.00    -0.277 N 
HETATM    6  H   UNL     1      46.769  -8.640   8.524  1.00  0.00     0.189 HD
HETATM    7  N   UNL     1      44.880  -7.901   8.598  1.00  0.00    -0.168 NA
HETATM    8  C   UNL     1      43.719  -8.440   8.159  1.00  0.00     0.156 A 
HETATM    9  C   UNL     1      45.930 -11.084   7.174  1.00  0.00     0.034 A 
HETATM   10  C   UNL     1      45.111 -12.051   6.577  1.00  0.00     0.032 A 
ENDROOT
BRANCH   1  11
HETATM   11  N   UNL     1      42.998 -12.933   5.866  1.00  0.00    -0.327 N 
HETATM   12  C   UNL     1      42.822 -13.130   4.511  1.00  0.00     0.222 C 
HETATM   13  O   UNL     1      43.252 -12.398   3.621  1.00  0.00    -0.273 OA
HETATM   14  H   UNL     1      42.428 -13.487   6.488  1.00  0.00     0.169 HD
BRANCH  12  15
HETATM   15  C   UNL     1      42.097 -14.412   4.113  1.00  0.00     0.112 C 
BRANCH  15  16
HETATM   16  C   UNL     1      42.651 -15.263   2.954  1.00  0.00     0.027 C 
BRANCH  16  17
HETATM   17  C   UNL     1      41.596 -15.464   1.840  1.00  0.00     0.005 C 
HETATM   18  C   UNL     1      40.167 -15.575   2.354  1.00  0.00     0.006 C 
ENDBRANCH  16  17
BRANCH  16  19
HETATM   19  C   UNL     1      43.188 -16.627   3.361  1.00  0.00    -0.054 A 
HETATM   20  C   UNL     1      43.632 -16.900   4.663  1.00  0.00     0.007 A 
HETATM   21  C   UNL     1      44.135 -18.160   4.994  1.00  0.00     0.001 A 
HETATM   22  C   UNL     1      44.187 -19.167   4.034  1.00  0.00     0.000 A 
HETATM   23  C   UNL     1      43.731 -18.919   2.742  1.00  0.00     0.001 A 
HETATM   24  C   UNL     1      43.232 -17.660   2.408  1.00  0.00     0.007 A 
ENDBRANCH  16  19
ENDBRANCH  15  16
ENDBRANCH  12  15
ENDBRANCH   1  11
BRANCH   8  25
HETATM   25  C   UNL     1      42.444  -7.721   8.301  1.00  0.00     0.270 C 
HETATM   26  N   UNL     1      42.197  -6.824   7.298  1.00  0.00    -0.365 N 
HETATM   27  H   UNL     1      42.876  -6.729   6.553  1.00  0.00     0.159 HD
HETATM   28  H   UNL     1      41.339  -6.295   7.305  1.00  0.00     0.159 HD
HETATM   29  O   UNL     1      41.643  -7.887   9.214  1.00  0.00    -0.266 OA
ENDBRANCH   8  25
TORSDOF 6
ENDMDL
MODEL 8
REMARK VINA RESULT:      -8.0      1.902      2.573
REMARK  6 active torsions:
REMARK  status: ('A' for Active; 'I' for Inactive)
REMARK    1  A    between atoms: C_2  and  C_3 
REMARK    2  A    between atoms: C_3  and  C_4 
REMARK    3  A    between atoms: C_3  and  C_10 
REMARK    4  A    between atoms: C_10  and  C_11 
REMARK       I    between atoms: C_11  and  N_12 
REMARK    5  A    between atoms: N_12  and  C_13 
REMARK    6  A    between atoms: C_20  and  C_21 
REMARK       I    between atoms: C_21  and  N_22 
ROOT
HETATM    1  C   UNL     1      41.971 -12.601   2.031  1.00  0.00     0.035 A 
HETATM    2  C   UNL     1      41.333 -13.127   0.899  1.00  0.00     0.046 A 
HETATM    3  C   UNL     1      40.811 -12.251  -0.077  1.00  0.00     0.030 A 
HETATM    4  C   UNL     1      40.937 -10.882   0.115  1.00  0.00     0.063 A 
HETATM    5  N   UNL     1      40.333 -10.307  -0.967  1.00  0.00    -0.277 N 
HETATM    6  H   UNL     1      40.229  -9.316  -1.158  1.00  0.00     0.189 HD
HETATM    7  N   UNL     1      39.840 -11.179  -1.861  1.00  0.00    -0.168 NA
HETATM    8  C   UNL     1      40.132 -12.388  -1.326  1.00  0.00     0.156 A 
HETATM    9  C   UNL     1      41.571 -10.323   1.227  1.00  0.00     0.034 A 
HETATM   10  C   UNL     1      42.092 -11.213   2.175  1.00  0.00     0.032 A 
ENDROOT
BRANCH   1  11
HETATM   11  N   UNL     1      42.533 -13.400   3.053  1.00  0.00    -0.327 N 
HETATM   12  C   UNL     1      42.104 -13.497   4.361  1.00  0.00     0.222 C 
HETATM   13  O   UNL     1      41.169 -12.869   4.854  1.00  0.00    -0.273 OA
HETATM   14  H   UNL     1      43.428 -13.811   2.832  1.00  0.00     0.169 HD
BRANCH  12  15
HETATM   15  C   UNL     1      42.820 -14.533   5.222  1.00  0.00     0.112 C 
BRANCH  15  16
HETATM   16  C   UNL     1      42.209 -15.940   5.371  1.00  0.00     0.027 C 
BRANCH  16  17
HETATM   17  C   UNL     1      42.220 -16.413   6.844  1.00  0.00     0.005 C 
HETATM   18  C   UNL     1      42.975 -15.485   7.786  1.00  0.00     0.006 C 
ENDBRANCH  16  17
BRANCH  16  19
HETATM   19  C   UNL     1      42.863 -17.015   4.515  1.00  0.00    -0.054 A 
HETATM   20  C   UNL     1      43.806 -17.915   5.033  1.00  0.00     0.007 A 
HETATM   21  C   UNL     1      44.397 -18.877   4.211  1.00  0.00     0.001 A 
HETATM   22  C   UNL     1      44.043 -18.963   2.867  1.00  0.00     0.000 A 
HETATM   23  C   UNL     1      43.093 -18.091   2.342  1.00  0.00     0.001 A 
HETATM   24  C   UNL     1      42.505 -17.126   3.160  1.00  0.00     0.007 A 
ENDBRANCH  16  19
ENDBRANCH  15  16
ENDBRANCH  12  15
ENDBRANCH   1  11
BRANCH   8  25
HETATM   25  C   UNL     1      39.768 -13.634  -2.016  1.00  0.00     0.270 C 
HETATM   26  N   UNL     1      38.663 -14.255  -1.499  1.00  0.00    -0.365 N 
HETATM   27  H   UNL     1      38.186 -13.823  -0.717  1.00  0.00     0.159 HD
HETATM   28  H   UNL     1      38.330 -15.108  -1.918  1.00  0.00     0.159 HD
HETATM   29  O   UNL     1      40.367 -14.105  -2.976  1.00  0.00    -0.266 OA
ENDBRANCH   8  25
TORSDOF 6
ENDMDL
MODEL 9
REMARK VINA RESULT:      -7.9      2.928      8.843
REMARK  6 active torsions:
REMARK  status: ('A' for Active; 'I' for Inactive)
REMARK    1  A    between atoms: C_2  and  C_3 
REMARK    2  A    between atoms: C_3  and  C_4 
REMARK    3  A    between atoms: C_3  and  C_10 
REMARK    4  A    between atoms: C_10  and  C_11 
REMARK       I    between atoms: C_11  and  N_12 
REMARK    5  A    between atoms: N_12  and  C_13 
REMARK    6  A    between atoms: C_20  and  C_21 
REMARK       I    between atoms: C_21  and  N_22 
ROOT
HETATM    1  C   UNL     1      42.691 -15.656   2.155  1.00  0.00     0.035 A 
HETATM    2  C   UNL     1      42.966 -17.030   2.133  1.00  0.00     0.046 A 
HETATM    3  C   UNL     1      43.424 -17.668   3.306  1.00  0.00     0.030 A 
HETATM    4  C   UNL     1      43.598 -16.910   4.457  1.00  0.00     0.063 A 
HETATM    5  N   UNL     1      44.056 -17.785   5.402  1.00  0.00    -0.277 N 
HETATM    6  H   UNL     1      44.300 -17.577   6.364  1.00  0.00     0.189 HD
HETATM    7  N   UNL     1      44.179 -19.052   4.976  1.00  0.00    -0.168 NA
HETATM    8  C   UNL     1      43.787 -18.998   3.681  1.00  0.00     0.156 A 
HETATM    9  C   UNL     1      43.328 -15.541   4.516  1.00  0.00     0.034 A 
HETATM   10  C   UNL     1      42.862 -14.934   3.343  1.00  0.00     0.032 A 
ENDROOT
BRANCH   1  11
HETATM   11  N   UNL     1      42.219 -14.936   1.034  1.00  0.00    -0.327 N 
HETATM   12  C   UNL     1      40.902 -14.709   0.688  1.00  0.00     0.222 C 
HETATM   13  O   UNL     1      39.921 -15.130   1.298  1.00  0.00    -0.273 OA
HETATM   14  H   UNL     1      42.920 -14.709   0.344  1.00  0.00     0.169 HD
BRANCH  12  15
HETATM   15  C   UNL     1      40.676 -13.791  -0.510  1.00  0.00     0.112 C 
BRANCH  15  16
HETATM   16  C   UNL     1      39.348 -13.878  -1.286  1.00  0.00     0.027 C 
BRANCH  16  17
HETATM   17  C   UNL     1      39.467 -14.808  -2.516  1.00  0.00     0.005 C 
HETATM   18  C   UNL     1      38.168 -14.975  -3.293  1.00  0.00     0.006 C 
ENDBRANCH  16  17
BRANCH  16  19
HETATM   19  C   UNL     1      38.786 -12.540  -1.745  1.00  0.00    -0.054 A 
HETATM   20  C   UNL     1      37.601 -12.005  -1.219  1.00  0.00     0.007 A 
HETATM   21  C   UNL     1      37.108 -10.782  -1.679  1.00  0.00     0.001 A 
HETATM   22  C   UNL     1      37.799 -10.072  -2.658  1.00  0.00     0.000 A 
HETATM   23  C   UNL     1      38.988 -10.579  -3.175  1.00  0.00     0.001 A 
HETATM   24  C   UNL     1      39.480 -11.803  -2.720  1.00  0.00     0.007 A 
ENDBRANCH  16  19
ENDBRANCH  15  16
ENDBRANCH  12  15
ENDBRANCH   1  11
BRANCH   8  25
HETATM   25  C   UNL     1      43.760 -20.204   2.842  1.00  0.00     0.270 C 
HETATM   26  N   UNL     1      44.036 -21.360   3.520  1.00  0.00    -0.365 N 
HETATM   27  H   UNL     1      44.221 -21.308   4.514  1.00  0.00     0.159 HD
HETATM   28  H   UNL     1      44.026 -22.240   3.028  1.00  0.00     0.159 HD
HETATM   29  O   UNL     1      43.508 -20.218   1.642  1.00  0.00    -0.266 OA
ENDBRANCH   8  25
TORSDOF 6
ENDMDL
MODEL 10
REMARK VINA RESULT:      -7.8      2.958      7.965
REMARK  6 active torsions:
REMARK  status: ('A' for Active; 'I' for Inactive)
REMARK    1  A    between atoms: C_2  and  C_3 
REMARK    2  A    between atoms: C_3  and  C_4 
REMARK    3  A    between atoms: C_3  and  C_10 
REMARK    4  A    between atoms: C_10  and  C_11 
REMARK       I    between atoms: C_11  and  N_12 
REMARK    5  A    between atoms: N_12  and  C_13 
REMARK    6  A    between atoms: C_20  and  C_21 
REMARK       I    between atoms: C_21  and  N_22 
ROOT
HETATM    1  C   UNL     1      42.507 -15.781   2.045  1.00  0.00     0.035 A 
HETATM    2  C   UNL     1      42.839 -17.142   2.078  1.00  0.00     0.046 A 
HETATM    3  C   UNL     1      43.419 -17.690   3.243  1.00  0.00     0.030 A 
HETATM    4  C   UNL     1      43.654 -16.858   4.330  1.00  0.00     0.063 A 
HETATM    5  N   UNL     1      44.225 -17.656   5.280  1.00  0.00    -0.277 N 
HETATM    6  H   UNL     1      44.538 -17.382   6.205  1.00  0.00     0.189 HD
HETATM    7  N   UNL     1      44.368 -18.941   4.918  1.00  0.00    -0.168 NA
HETATM    8  C   UNL     1      43.869 -18.980   3.660  1.00  0.00     0.156 A 
HETATM    9  C   UNL     1      43.331 -15.499   4.334  1.00  0.00     0.034 A 
HETATM   10  C   UNL     1      42.744 -14.983   3.171  1.00  0.00     0.032 A 
ENDROOT
BRANCH   1  11
HETATM   11  N   UNL     1      41.914 -15.149   0.929  1.00  0.00    -0.327 N 
HETATM   12  C   UNL     1      40.571 -15.116   0.611  1.00  0.00     0.222 C 
HETATM   13  O   UNL     1      39.673 -15.667   1.245  1.00  0.00    -0.273 OA
HETATM   14  H   UNL     1      42.560 -14.831   0.222  1.00  0.00     0.169 HD
BRANCH  12  15
HETATM   15  C   UNL     1      40.191 -14.253  -0.589  1.00  0.00     0.112 C 
BRANCH  15  16
HETATM   16  C   UNL     1      39.818 -12.775  -0.366  1.00  0.00     0.027 C 
BRANCH  16  17
HETATM   17  C   UNL     1      40.404 -11.865  -1.472  1.00  0.00     0.005 C 
HETATM   18  C   UNL     1      40.844 -12.617  -2.722  1.00  0.00     0.006 C 
ENDBRANCH  16  17
BRANCH  16  19
HETATM   19  C   UNL     1      40.223 -12.209   0.988  1.00  0.00    -0.054 A 
HETATM   20  C   UNL     1      41.458 -11.578   1.197  1.00  0.00     0.007 A 
HETATM   21  C   UNL     1      41.801 -11.087   2.458  1.00  0.00     0.001 A 
HETATM   22  C   UNL     1      40.910 -11.208   3.522  1.00  0.00     0.000 A 
HETATM   23  C   UNL     1      39.672 -11.814   3.326  1.00  0.00     0.001 A 
HETATM   24  C   UNL     1      39.329 -12.309   2.068  1.00  0.00     0.007 A 
ENDBRANCH  16  19
ENDBRANCH  15  16
ENDBRANCH  12  15
ENDBRANCH   1  11
BRANCH   8  25
HETATM   25  C   UNL     1      43.826 -20.235   2.896  1.00  0.00     0.270 C 
HETATM   26  N   UNL     1      43.972 -21.359   3.663  1.00  0.00    -0.365 N 
HETATM   27  H   UNL     1      44.083 -21.253   4.664  1.00  0.00     0.159 HD
HETATM   28  H   UNL     1      43.941 -22.266   3.226  1.00  0.00     0.159 HD
HETATM   29  O   UNL     1      43.666 -20.312   1.683  1.00  0.00    -0.266 OA
ENDBRANCH   8  25
TORSDOF 6
ENDMDL
