MODEL 1
REMARK VINA RESULT:      -7.9      0.000      0.000
REMARK  6 active torsions:
REMARK  status: ('A' for Active; 'I' for Inactive)
REMARK    1  A    between atoms: C_2  and  N_3 
REMARK    2  A    between atoms: N_3  and  C_5 
REMARK    3  A    between atoms: N_3  and  C_28 
REMARK    4  A    between atoms: C_8  and  C_9 
REMARK    5  A    between atoms: N_10  and  C_11 
REMARK    6  A    between atoms: C_11  and  C_12 
ROOT
HETATM    1  C   UNL     1      39.833 -13.294   1.865  1.00  0.00     0.222 C 
HETATM    2  N   UNL     1      40.483 -12.001   1.891  1.00  0.00    -0.316 N 
HETATM    3  C   UNL     1      41.145 -11.510   0.778  1.00  0.00     0.258 C 
HETATM    4  O   UNL     1      41.973 -10.605   0.828  1.00  0.00    -0.267 OA
HETATM    5  C   UNL     1      40.797 -12.121  -0.523  1.00  0.00     0.058 A 
HETATM    6  C   UNL     1      39.772 -13.071  -0.550  1.00  0.00     0.045 A 
HETATM    7  N   UNL     1      39.101 -13.434   0.617  1.00  0.00    -0.364 N 
HETATM    8  C   UNL     1      41.425 -11.698  -1.701  1.00  0.00     0.019 A 
HETATM    9  C   UNL     1      41.006 -12.211  -2.928  1.00  0.00     0.001 A 
HETATM   10  C   UNL     1      39.956 -13.126  -2.973  1.00  0.00     0.002 A 
HETATM   11  C   UNL     1      39.335 -13.543  -1.792  1.00  0.00     0.030 A 
HETATM   12  H   UNL     1      38.550 -14.278   0.537  1.00  0.00     0.162 HD
ENDROOT
BRANCH   1  13
HETATM   13  C   UNL     1      40.772 -14.493   2.094  1.00  0.00    -0.016 A 
HETATM   14  C   UNL     1      41.998 -14.642   1.418  1.00  0.00     0.013 A 
HETATM   15  C   UNL     1      42.864 -15.704   1.703  1.00  0.00     0.038 A 
HETATM   16  C   UNL     1      42.512 -16.657   2.656  1.00  0.00     0.134 A 
HETATM   17  C   UNL     1      41.292 -16.541   3.327  1.00  0.00     0.038 A 
HETATM   18  C   UNL     1      40.441 -15.464   3.057  1.00  0.00     0.013 A 
BRANCH  16  19
HETATM   19  N   UNL     1      43.418 -17.768   3.027  1.00  0.00    -0.042 N 
HETATM   20  H   UNL     1      44.357 -17.442   2.767  1.00  0.00     0.286 HD
BRANCH  19  21
HETATM   21  C   UNL     1      43.208 -19.014   2.197  1.00  0.00     0.237 C 
HETATM   22  C   UNL     1      43.785 -20.236   2.896  1.00  0.00     0.035 C 
ENDBRANCH  19  21
BRANCH  19  23
HETATM   23  C   UNL     1      43.519 -17.970   4.521  1.00  0.00     0.237 C 
HETATM   24  C   UNL     1      44.317 -16.903   5.247  1.00  0.00     0.035 C 
ENDBRANCH  19  23
ENDBRANCH  16  19
ENDBRANCH   1  13
BRANCH   2  25
HETATM   25  C   UNL     1      40.637 -11.325   3.172  1.00  0.00     0.193 C 
BRANCH  25  26
HETATM   26  C   UNL     1      41.556 -12.098   4.044  1.00  0.00     0.070 A 
HETATM   27  O   UNL     1      40.996 -12.725   5.120  1.00  0.00    -0.325 OA
HETATM   28  C   UNL     1      42.002 -13.366   5.770  1.00  0.00     0.142 A 
HETATM   29  C   UNL     1      43.202 -13.151   5.133  1.00  0.00     0.027 A 
HETATM   30  C   UNL     1      42.916 -12.330   4.017  1.00  0.00     0.036 A 
ENDBRANCH  25  26
ENDBRANCH   2  25
TORSDOF 6
ENDMDL
MODEL 2
REMARK VINA RESULT:      -7.9      3.293      4.801
REMARK  6 active torsions:
REMARK  status: ('A' for Active; 'I' for Inactive)
REMARK    1  A    between atoms: C_2  and  N_3 
REMARK    2  A    between atoms: N_3  and  C_5 
REMARK    3  A    between atoms: N_3  and  C_28 
REMARK    4  A    between atoms: C_8  and  C_9 
REMARK    5  A    between atoms: N_10  and  C_11 
REMARK    6  A    between atoms: C_11  and  C_12 
ROOT
HETATM    1  C   UNL     1      42.833 -13.387   6.522  1.00  0.00     0.222 C 
HETATM    2  N   UNL     1      43.780 -12.428   5.995  1.00  0.00    -0.316 N 
HETATM    3  C   UNL     1      43.540 -11.767   4.801  1.00  0.00     0.258 C 
HETATM    4  O   UNL     1      44.419 -11.211   4.148  1.00  0.00    -0.267 OA
HETATM    5  C   UNL     1      42.138 -11.736   4.331  1.00  0.00     0.058 A 
HETATM    6  C   UNL     1      41.155 -12.286   5.159  1.00  0.00     0.045 A 
HETATM    7  N   UNL     1      41.489 -12.851   6.389  1.00  0.00    -0.364 N 
HETATM    8  C   UNL     1      41.803 -11.101   3.129  1.00  0.00     0.019 A 
HETATM    9  C   UNL     1      40.464 -10.990   2.759  1.00  0.00     0.001 A 
HETATM   10  C   UNL     1      39.470 -11.496   3.595  1.00  0.00     0.002 A 
HETATM   11  C   UNL     1      39.814 -12.127   4.794  1.00  0.00     0.030 A 
HETATM   12  H   UNL     1      40.759 -13.418   6.800  1.00  0.00     0.162 HD
ENDROOT
BRANCH   1  13
HETATM   13  C   UNL     1      42.930 -14.796   5.908  1.00  0.00    -0.016 A 
HETATM   14  C   UNL     1      42.094 -15.232   4.863  1.00  0.00     0.013 A 
HETATM   15  C   UNL     1      42.257 -16.492   4.275  1.00  0.00     0.038 A 
HETATM   16  C   UNL     1      43.247 -17.356   4.736  1.00  0.00     0.134 A 
HETATM   17  C   UNL     1      44.078 -16.953   5.785  1.00  0.00     0.038 A 
HETATM   18  C   UNL     1      43.928 -15.683   6.352  1.00  0.00     0.013 A 
BRANCH  16  19
HETATM   19  N   UNL     1      43.490 -18.677   4.112  1.00  0.00    -0.042 N 
HETATM   20  H   UNL     1      42.635 -19.217   4.296  1.00  0.00     0.286 HD
BRANCH  19  21
HETATM   21  C   UNL     1      44.588 -19.465   4.788  1.00  0.00     0.237 C 
HETATM   22  C   UNL     1      44.037 -20.741   5.409  1.00  0.00     0.035 C 
ENDBRANCH  19  21
BRANCH  19  23
HETATM   23  C   UNL     1      43.545 -18.613   2.604  1.00  0.00     0.237 C 
HETATM   24  C   UNL     1      43.287 -19.937   1.908  1.00  0.00     0.035 C 
ENDBRANCH  19  23
ENDBRANCH  16  19
ENDBRANCH   1  13
BRANCH   2  25
HETATM   25  C   UNL     1      45.098 -12.341   6.610  1.00  0.00     0.193 C 
BRANCH  25  26
HETATM   26  C   UNL     1      45.124 -11.226   7.591  1.00  0.00     0.070 A 
HETATM   27  O   UNL     1      44.315 -11.353   8.683  1.00  0.00    -0.325 OA
HETATM   28  C   UNL     1      44.495 -10.238   9.438  1.00  0.00     0.142 A 
HETATM   29  C   UNL     1      45.401  -9.392   8.841  1.00  0.00     0.027 A 
HETATM   30  C   UNL     1      45.808 -10.030   7.645  1.00  0.00     0.036 A 
ENDBRANCH  25  26
ENDBRANCH   2  25
TORSDOF 6
ENDMDL
MODEL 3
REMARK VINA RESULT:      -7.8      2.291      5.219
REMARK  6 active torsions:
REMARK  status: ('A' for Active; 'I' for Inactive)
REMARK    1  A    between atoms: C_2  and  N_3 
REMARK    2  A    between atoms: N_3  and  C_5 
REMARK    3  A    between atoms: N_3  and  C_28 
REMARK    4  A    between atoms: C_8  and  C_9 
REMARK    5  A    between atoms: N_10  and  C_11 
REMARK    6  A    between atoms: C_11  and  C_12 
ROOT
HETATM    1  C   UNL     1      42.388 -13.288   3.113  1.00  0.00     0.222 C 
HETATM    2  N   UNL     1      41.288 -12.894   3.966  1.00  0.00    -0.316 N 
HETATM    3  C   UNL     1      41.500 -12.522   5.283  1.00  0.00     0.258 C 
HETATM    4  O   UNL     1      40.612 -12.499   6.130  1.00  0.00    -0.267 OA
HETATM    5  C   UNL     1      42.878 -12.124   5.645  1.00  0.00     0.058 A 
HETATM    6  C   UNL     1      43.833 -12.061   4.626  1.00  0.00     0.045 A 
HETATM    7  N   UNL     1      43.496 -12.369   3.309  1.00  0.00    -0.364 N 
HETATM    8  C   UNL     1      43.190 -11.746   6.957  1.00  0.00     0.019 A 
HETATM    9  C   UNL     1      44.467 -11.272   7.252  1.00  0.00     0.001 A 
HETATM   10  C   UNL     1      45.416 -11.163   6.237  1.00  0.00     0.002 A 
HETATM   11  C   UNL     1      45.096 -11.542   4.930  1.00  0.00     0.030 A 
HETATM   12  H   UNL     1      44.289 -12.517   2.699  1.00  0.00     0.162 HD
ENDROOT
BRANCH   1  13
HETATM   13  C   UNL     1      42.845 -14.749   3.282  1.00  0.00    -0.016 A 
HETATM   14  C   UNL     1      42.813 -15.419   4.519  1.00  0.00     0.013 A 
HETATM   15  C   UNL     1      43.163 -16.771   4.627  1.00  0.00     0.038 A 
HETATM   16  C   UNL     1      43.579 -17.477   3.501  1.00  0.00     0.134 A 
HETATM   17  C   UNL     1      43.637 -16.829   2.264  1.00  0.00     0.038 A 
HETATM   18  C   UNL     1      43.261 -15.485   2.157  1.00  0.00     0.013 A 
BRANCH  16  19
HETATM   19  N   UNL     1      43.910 -18.919   3.556  1.00  0.00    -0.042 N 
HETATM   20  H   UNL     1      44.850 -18.990   3.145  1.00  0.00     0.286 HD
BRANCH  19  21
HETATM   21  C   UNL     1      43.041 -19.768   2.656  1.00  0.00     0.237 C 
HETATM   22  C   UNL     1      43.873 -20.442   1.576  1.00  0.00     0.035 C 
ENDBRANCH  19  21
BRANCH  19  23
HETATM   23  C   UNL     1      44.106 -19.424   4.966  1.00  0.00     0.237 C 
HETATM   24  C   UNL     1      43.938 -20.924   5.127  1.00  0.00     0.035 C 
ENDBRANCH  19  23
ENDBRANCH  16  19
ENDBRANCH   1  13
BRANCH   2  25
HETATM   25  C   UNL     1      39.927 -13.118   3.495  1.00  0.00     0.193 C 
BRANCH  25  26
HETATM   26  C   UNL     1      39.948 -13.955   2.269  1.00  0.00     0.070 A 
HETATM   27  O   UNL     1      39.725 -15.291   2.437  1.00  0.00    -0.325 OA
HETATM   28  C   UNL     1      39.786 -15.858   1.204  1.00  0.00     0.142 A 
HETATM   29  C   UNL     1      40.056 -14.907   0.248  1.00  0.00     0.027 A 
HETATM   30  C   UNL     1      40.163 -13.675   0.935  1.00  0.00     0.036 A 
ENDBRANCH  25  26
ENDBRANCH   2  25
TORSDOF 6
ENDMDL
MODEL 4
REMARK VINA RESULT:      -7.2     10.105     13.409
REMARK  6 active torsions:
REMARK  status: ('A' for Active; 'I' for Inactive)
REMARK    1  A    between atoms: C_2  and  N_3 
REMARK    2  A    between atoms: N_3  and  C_5 
REMARK    3  A    between atoms: N_3  and  C_28 
REMARK    4  A    between atoms: C_8  and  C_9 
REMARK    5  A    between atoms: N_10  and  C_11 
REMARK    6  A    between atoms: C_11  and  C_12 
ROOT
HETATM    1  C   UNL     1      41.320  -9.562  11.787  1.00  0.00     0.222 C 
HETATM    2  N   UNL     1      40.788  -8.830  10.657  1.00  0.00    -0.316 N 
HETATM    3  C   UNL     1      41.627  -8.169   9.774  1.00  0.00     0.258 C 
HETATM    4  O   UNL     1      41.245  -7.283   9.015  1.00  0.00    -0.267 OA
HETATM    5  C   UNL     1      43.044  -8.592   9.763  1.00  0.00     0.058 A 
HETATM    6  C   UNL     1      43.412  -9.677  10.565  1.00  0.00     0.045 A 
HETATM    7  N   UNL     1      42.470 -10.337  11.354  1.00  0.00    -0.364 N 
HETATM    8  C   UNL     1      43.967  -7.972   8.913  1.00  0.00     0.019 A 
HETATM    9  C   UNL     1      45.272  -8.458   8.841  1.00  0.00     0.001 A 
HETATM   10  C   UNL     1      45.641  -9.565   9.602  1.00  0.00     0.002 A 
HETATM   11  C   UNL     1      44.712 -10.179  10.448  1.00  0.00     0.030 A 
HETATM   12  H   UNL     1      42.868 -10.944  12.058  1.00  0.00     0.162 HD
ENDROOT
BRANCH   1  13
HETATM   13  C   UNL     1      41.664  -8.697  13.013  1.00  0.00    -0.016 A 
HETATM   14  C   UNL     1      42.443  -7.528  12.927  1.00  0.00     0.013 A 
HETATM   15  C   UNL     1      42.676  -6.722  14.048  1.00  0.00     0.038 A 
HETATM   16  C   UNL     1      42.154  -7.081  15.288  1.00  0.00     0.134 A 
HETATM   17  C   UNL     1      41.393  -8.247  15.403  1.00  0.00     0.038 A 
HETATM   18  C   UNL     1      41.141  -9.036  14.275  1.00  0.00     0.013 A 
BRANCH  16  19
HETATM   19  N   UNL     1      42.331  -6.234  16.490  1.00  0.00    -0.042 N 
HETATM   20  H   UNL     1      43.313  -5.933  16.459  1.00  0.00     0.286 HD
BRANCH  19  21
HETATM   21  C   UNL     1      42.212  -7.002  17.786  1.00  0.00     0.237 C 
HETATM   22  C   UNL     1      42.158  -6.055  18.976  1.00  0.00     0.035 C 
ENDBRANCH  19  21
BRANCH  19  23
HETATM   23  C   UNL     1      41.565  -4.934  16.411  1.00  0.00     0.237 C 
HETATM   24  C   UNL     1      40.089  -5.091  16.095  1.00  0.00     0.035 C 
ENDBRANCH  19  23
ENDBRANCH  16  19
ENDBRANCH   1  13
BRANCH   2  25
HETATM   25  C   UNL     1      39.352  -8.596  10.592  1.00  0.00     0.193 C 
BRANCH  25  26
HETATM   26  C   UNL     1      38.968  -7.535  11.557  1.00  0.00     0.070 A 
HETATM   27  O   UNL     1      38.256  -7.932  12.651  1.00  0.00    -0.325 OA
HETATM   28  C   UNL     1      38.016  -6.818  13.391  1.00  0.00     0.142 A 
HETATM   29  C   UNL     1      38.556  -5.709  12.781  1.00  0.00     0.027 A 
HETATM   30  C   UNL     1      39.171  -6.171  11.594  1.00  0.00     0.036 A 
ENDBRANCH  25  26
ENDBRANCH   2  25
TORSDOF 6
ENDMDL
MODEL 5
REMARK VINA RESULT:      -7.1      1.420      2.253
REMARK  6 active torsions:
REMARK  status: ('A' for Active; 'I' for Inactive)
REMARK    1  A    between atoms: C_2  and  N_3 
REMARK    2  A    between atoms: N_3  and  C_5 
REMARK    3  A    between atoms: N_3  and  C_28 
REMARK    4  A    between atoms: C_8  and  C_9 
REMARK    5  A    between atoms: N_10  and  C_11 
REMARK    6  A    between atoms: C_11  and  C_12 
ROOT
HETATM    1  C   UNL     1      39.965 -12.957   1.938  1.00  0.00     0.222 C 
HETATM    2  N   UNL     1      40.603 -11.666   1.799  1.00  0.00    -0.316 N 
HETATM    3  C   UNL     1      41.175 -11.275   0.599  1.00  0.00     0.258 C 
HETATM    4  O   UNL     1      41.996 -10.368   0.505  1.00  0.00    -0.267 OA
HETATM    5  C   UNL     1      40.733 -12.001  -0.612  1.00  0.00     0.058 A 
HETATM    6  C   UNL     1      39.717 -12.951  -0.475  1.00  0.00     0.045 A 
HETATM    7  N   UNL     1      39.141 -13.209   0.769  1.00  0.00    -0.364 N 
HETATM    8  C   UNL     1      41.265 -11.684  -1.867  1.00  0.00     0.019 A 
HETATM    9  C   UNL     1      40.758 -12.305  -3.008  1.00  0.00     0.001 A 
HETATM   10  C   UNL     1      39.716 -13.222  -2.890  1.00  0.00     0.002 A 
HETATM   11  C   UNL     1      39.190 -13.533  -1.632  1.00  0.00     0.030 A 
HETATM   12  H   UNL     1      38.592 -14.057   0.806  1.00  0.00     0.162 HD
ENDROOT
BRANCH   1  13
HETATM   13  C   UNL     1      40.928 -14.129   2.200  1.00  0.00    -0.016 A 
HETATM   14  C   UNL     1      42.321 -13.961   2.312  1.00  0.00     0.013 A 
HETATM   15  C   UNL     1      43.163 -15.035   2.625  1.00  0.00     0.038 A 
HETATM   16  C   UNL     1      42.632 -16.309   2.810  1.00  0.00     0.134 A 
HETATM   17  C   UNL     1      41.254 -16.505   2.686  1.00  0.00     0.038 A 
HETATM   18  C   UNL     1      40.413 -15.424   2.398  1.00  0.00     0.013 A 
BRANCH  16  19
HETATM   19  N   UNL     1      43.476 -17.464   3.193  1.00  0.00    -0.042 N 
HETATM   20  H   UNL     1      44.441 -17.153   3.024  1.00  0.00     0.286 HD
BRANCH  19  21
HETATM   21  C   UNL     1      43.301 -18.660   2.285  1.00  0.00     0.237 C 
HETATM   22  C   UNL     1      43.770 -19.935   2.970  1.00  0.00     0.035 C 
ENDBRANCH  19  21
BRANCH  19  23
HETATM   23  C   UNL     1      43.454 -17.742   4.677  1.00  0.00     0.237 C 
HETATM   24  C   UNL     1      44.434 -16.915   5.488  1.00  0.00     0.035 C 
ENDBRANCH  19  23
ENDBRANCH  16  19
ENDBRANCH   1  13
BRANCH   2  25
HETATM   25  C   UNL     1      40.849 -10.877   2.999  1.00  0.00     0.193 C 
BRANCH  25  26
HETATM   26  C   UNL     1      39.703  -9.968   3.249  1.00  0.00     0.070 A 
HETATM   27  O   UNL     1      39.447  -9.649   4.552  1.00  0.00    -0.325 OA
HETATM   28  C   UNL     1      38.374  -8.817   4.550  1.00  0.00     0.142 A 
HETATM   29  C   UNL     1      37.930  -8.604   3.265  1.00  0.00     0.027 A 
HETATM   30  C   UNL     1      38.788  -9.349   2.422  1.00  0.00     0.036 A 
ENDBRANCH  25  26
ENDBRANCH   2  25
TORSDOF 6
ENDMDL
MODEL 6
REMARK VINA RESULT:      -7.1      2.026      6.283
REMARK  6 active torsions:
REMARK  status: ('A' for Active; 'I' for Inactive)
REMARK    1  A    between atoms: C_2  and  N_3 
REMARK    2  A    between atoms: N_3  and  C_5 
REMARK    3  A    between atoms: N_3  and  C_28 
REMARK    4  A    between atoms: C_8  and  C_9 
REMARK    5  A    between atoms: N_10  and  C_11 
REMARK    6  A    between atoms: C_11  and  C_12 
ROOT
HETATM    1  C   UNL     1      40.907 -14.891   2.954  1.00  0.00     0.222 C 
HETATM    2  N   UNL     1      42.289 -14.518   3.166  1.00  0.00    -0.316 N 
HETATM    3  C   UNL     1      42.623 -13.299   3.734  1.00  0.00     0.258 C 
HETATM    4  O   UNL     1      43.737 -12.793   3.641  1.00  0.00    -0.267 OA
HETATM    5  C   UNL     1      41.560 -12.612   4.499  1.00  0.00     0.058 A 
HETATM    6  C   UNL     1      40.341 -13.275   4.672  1.00  0.00     0.045 A 
HETATM    7  N   UNL     1      40.134 -14.545   4.134  1.00  0.00    -0.364 N 
HETATM    8  C   UNL     1      41.801 -11.369   5.097  1.00  0.00     0.019 A 
HETATM    9  C   UNL     1      40.821 -10.790   5.902  1.00  0.00     0.001 A 
HETATM   10  C   UNL     1      39.618 -11.460   6.118  1.00  0.00     0.002 A 
HETATM   11  C   UNL     1      39.386 -12.700   5.517  1.00  0.00     0.030 A 
HETATM   12  H   UNL     1      39.165 -14.836   4.113  1.00  0.00     0.162 HD
ENDROOT
BRANCH   1  13
HETATM   13  C   UNL     1      40.268 -14.306   1.681  1.00  0.00    -0.016 A 
HETATM   14  C   UNL     1      39.617 -13.058   1.660  1.00  0.00     0.013 A 
HETATM   15  C   UNL     1      39.112 -12.519   0.470  1.00  0.00     0.038 A 
HETATM   16  C   UNL     1      39.226 -13.228  -0.723  1.00  0.00     0.134 A 
HETATM   17  C   UNL     1      39.852 -14.477  -0.724  1.00  0.00     0.038 A 
HETATM   18  C   UNL     1      40.378 -15.001   0.463  1.00  0.00     0.013 A 
BRANCH  16  19
HETATM   19  N   UNL     1      38.753 -12.676  -2.013  1.00  0.00    -0.042 N 
HETATM   20  H   UNL     1      38.385 -11.745  -1.783  1.00  0.00     0.286 HD
BRANCH  19  21
HETATM   21  C   UNL     1      37.567 -13.420  -2.584  1.00  0.00     0.237 C 
HETATM   22  C   UNL     1      38.017 -14.470  -3.588  1.00  0.00     0.035 C 
ENDBRANCH  19  21
BRANCH  19  23
HETATM   23  C   UNL     1      39.881 -12.379  -2.973  1.00  0.00     0.237 C 
HETATM   24  C   UNL     1      40.834 -11.294  -2.508  1.00  0.00     0.035 C 
ENDBRANCH  19  23
ENDBRANCH  16  19
ENDBRANCH   1  13
BRANCH   2  25
HETATM   25  C   UNL     1      43.332 -15.335   2.560  1.00  0.00     0.193 C 
BRANCH  25  26
HETATM   26  C   UNL     1      43.540 -16.566   3.364  1.00  0.00     0.070 A 
HETATM   27  O   UNL     1      43.746 -16.396   4.702  1.00  0.00    -0.325 OA
HETATM   28  C   UNL     1      43.909 -17.634   5.236  1.00  0.00     0.142 A 
HETATM   29  C   UNL     1      43.822 -18.597   4.258  1.00  0.00     0.027 A 
HETATM   30  C   UNL     1      43.584 -17.908   3.045  1.00  0.00     0.036 A 
ENDBRANCH  25  26
ENDBRANCH   2  25
TORSDOF 6
ENDMDL
MODEL 7
REMARK VINA RESULT:      -7.1      0.898      1.803
REMARK  6 active torsions:
REMARK  status: ('A' for Active; 'I' for Inactive)
REMARK    1  A    between atoms: C_2  and  N_3 
REMARK    2  A    between atoms: N_3  and  C_5 
REMARK    3  A    between atoms: N_3  and  C_28 
REMARK    4  A    between atoms: C_8  and  C_9 
REMARK    5  A    between atoms: N_10  and  C_11 
REMARK    6  A    between atoms: C_11  and  C_12 
ROOT
HETATM    1  C   UNL     1      39.751 -12.569   2.144  1.00  0.00     0.222 C 
HETATM    2  N   UNL     1      40.465 -11.337   1.884  1.00  0.00    -0.316 N 
HETATM    3  C   UNL     1      41.125 -11.132   0.683  1.00  0.00     0.258 C 
HETATM    4  O   UNL     1      41.998 -10.283   0.528  1.00  0.00    -0.267 OA
HETATM    5  C   UNL     1      40.715 -11.986  -0.452  1.00  0.00     0.058 A 
HETATM    6  C   UNL     1      39.643 -12.863  -0.262  1.00  0.00     0.045 A 
HETATM    7  N   UNL     1      38.983 -12.931   0.965  1.00  0.00    -0.364 N 
HETATM    8  C   UNL     1      41.334 -11.859  -1.701  1.00  0.00     0.019 A 
HETATM    9  C   UNL     1      40.860 -12.598  -2.784  1.00  0.00     0.001 A 
HETATM   10  C   UNL     1      39.765 -13.444  -2.618  1.00  0.00     0.002 A 
HETATM   11  C   UNL     1      39.152 -13.564  -1.368  1.00  0.00     0.030 A 
HETATM   12  H   UNL     1      38.388 -13.742   1.074  1.00  0.00     0.162 HD
ENDROOT
BRANCH   1  13
HETATM   13  C   UNL     1      40.633 -13.741   2.613  1.00  0.00    -0.016 A 
HETATM   14  C   UNL     1      40.309 -14.542   3.723  1.00  0.00     0.013 A 
HETATM   15  C   UNL     1      41.092 -15.647   4.079  1.00  0.00     0.038 A 
HETATM   16  C   UNL     1      42.234 -15.961   3.345  1.00  0.00     0.134 A 
HETATM   17  C   UNL     1      42.587 -15.169   2.249  1.00  0.00     0.038 A 
HETATM   18  C   UNL     1      41.787 -14.081   1.882  1.00  0.00     0.013 A 
BRANCH  16  19
HETATM   19  N   UNL     1      43.064 -17.148   3.652  1.00  0.00    -0.042 N 
HETATM   20  H   UNL     1      42.408 -17.833   4.048  1.00  0.00     0.286 HD
BRANCH  19  21
HETATM   21  C   UNL     1      44.069 -16.906   4.754  1.00  0.00     0.237 C 
HETATM   22  C   UNL     1      43.650 -17.610   6.036  1.00  0.00     0.035 C 
ENDBRANCH  19  21
BRANCH  19  23
HETATM   23  C   UNL     1      43.583 -17.838   2.413  1.00  0.00     0.237 C 
HETATM   24  C   UNL     1      43.111 -19.271   2.245  1.00  0.00     0.035 C 
ENDBRANCH  19  23
ENDBRANCH  16  19
ENDBRANCH   1  13
BRANCH   2  25
HETATM   25  C   UNL     1      40.684 -10.413   2.988  1.00  0.00     0.193 C 
BRANCH  25  26
HETATM   26  C   UNL     1      41.682 -10.978   3.930  1.00  0.00     0.070 A 
HETATM   27  O   UNL     1      41.217 -11.374   5.151  1.00  0.00    -0.325 OA
HETATM   28  C   UNL     1      42.282 -11.855   5.842  1.00  0.00     0.142 A 
HETATM   29  C   UNL     1      43.428 -11.764   5.087  1.00  0.00     0.027 A 
HETATM   30  C   UNL     1      43.042 -11.196   3.850  1.00  0.00     0.036 A 
ENDBRANCH  25  26
ENDBRANCH   2  25
TORSDOF 6
ENDMDL
MODEL 8
REMARK VINA RESULT:      -7.1      1.567      2.672
REMARK  6 active torsions:
REMARK  status: ('A' for Active; 'I' for Inactive)
REMARK    1  A    between atoms: C_2  and  N_3 
REMARK    2  A    between atoms: N_3  and  C_5 
REMARK    3  A    between atoms: N_3  and  C_28 
REMARK    4  A    between atoms: C_8  and  C_9 
REMARK    5  A    between atoms: N_10  and  C_11 
REMARK    6  A    between atoms: C_11  and  C_12 
ROOT
HETATM    1  C   UNL     1      39.878 -12.873   2.178  1.00  0.00     0.222 C 
HETATM    2  N   UNL     1      40.566 -11.617   1.973  1.00  0.00    -0.316 N 
HETATM    3  C   UNL     1      41.166 -11.319   0.760  1.00  0.00     0.258 C 
HETATM    4  O   UNL     1      42.022 -10.449   0.625  1.00  0.00    -0.267 OA
HETATM    5  C   UNL     1      40.712 -12.098  -0.413  1.00  0.00     0.058 A 
HETATM    6  C   UNL     1      39.659 -13.000  -0.235  1.00  0.00     0.045 A 
HETATM    7  N   UNL     1      39.059 -13.163   1.013  1.00  0.00    -0.364 N 
HETATM    8  C   UNL     1      41.271 -11.875  -1.677  1.00  0.00     0.019 A 
HETATM    9  C   UNL     1      40.754 -12.543  -2.786  1.00  0.00     0.001 A 
HETATM   10  C   UNL     1      39.677 -13.413  -2.630  1.00  0.00     0.002 A 
HETATM   11  C   UNL     1      39.125 -13.629  -1.364  1.00  0.00     0.030 A 
HETATM   12  H   UNL     1      38.478 -13.987   1.093  1.00  0.00     0.162 HD
ENDROOT
BRANCH   1  13
HETATM   13  C   UNL     1      40.793 -14.063   2.522  1.00  0.00    -0.016 A 
HETATM   14  C   UNL     1      42.124 -13.901   2.950  1.00  0.00     0.013 A 
HETATM   15  C   UNL     1      42.907 -14.998   3.328  1.00  0.00     0.038 A 
HETATM   16  C   UNL     1      42.384 -16.287   3.261  1.00  0.00     0.134 A 
HETATM   17  C   UNL     1      41.071 -16.475   2.820  1.00  0.00     0.038 A 
HETATM   18  C   UNL     1      40.283 -15.373   2.469  1.00  0.00     0.013 A 
BRANCH  16  19
HETATM   19  N   UNL     1      43.157 -17.473   3.697  1.00  0.00    -0.042 N 
HETATM   20  H   UNL     1      42.450 -18.142   4.027  1.00  0.00     0.286 HD
BRANCH  19  21
HETATM   21  C   UNL     1      44.022 -17.211   4.908  1.00  0.00     0.237 C 
HETATM   22  C   UNL     1      43.409 -17.825   6.157  1.00  0.00     0.035 C 
ENDBRANCH  19  21
BRANCH  19  23
HETATM   23  C   UNL     1      43.816 -18.200   2.549  1.00  0.00     0.237 C 
HETATM   24  C   UNL     1      43.239 -19.573   2.257  1.00  0.00     0.035 C 
ENDBRANCH  19  23
ENDBRANCH  16  19
ENDBRANCH   1  13
BRANCH   2  25
HETATM   25  C   UNL     1      40.827 -10.768   3.128  1.00  0.00     0.193 C 
BRANCH  25  26
HETATM   26  C   UNL     1      39.673  -9.863   3.361  1.00  0.00     0.070 A 
HETATM   27  O   UNL     1      39.435  -9.495   4.653  1.00  0.00    -0.325 OA
HETATM   28  C   UNL     1      38.351  -8.676   4.636  1.00  0.00     0.142 A 
HETATM   29  C   UNL     1      37.883  -8.523   3.352  1.00  0.00     0.027 A 
HETATM   30  C   UNL     1      38.736  -9.291   2.526  1.00  0.00     0.036 A 
ENDBRANCH  25  26
ENDBRANCH   2  25
TORSDOF 6
ENDMDL
MODEL 9
REMARK VINA RESULT:      -7.0      2.309      6.283
REMARK  6 active torsions:
REMARK  status: ('A' for Active; 'I' for Inactive)
REMARK    1  A    between atoms: C_2  and  N_3 
REMARK    2  A    between atoms: N_3  and  C_5 
REMARK    3  A    between atoms: N_3  and  C_28 
REMARK    4  A    between atoms: C_8  and  C_9 
REMARK    5  A    between atoms: N_10  and  C_11 
REMARK    6  A    between atoms: C_11  and  C_12 
ROOT
HETATM    1  C   UNL     1      42.586 -12.452   2.885  1.00  0.00     0.222 C 
HETATM    2  N   UNL     1      42.332 -12.780   4.271  1.00  0.00    -0.316 N 
HETATM    3  C   UNL     1      42.018 -14.073   4.655  1.00  0.00     0.258 C 
HETATM    4  O   UNL     1      41.482 -14.349   5.724  1.00  0.00    -0.267 OA
HETATM    5  C   UNL     1      42.378 -15.151   3.709  1.00  0.00     0.058 A 
HETATM    6  C   UNL     1      43.084 -14.802   2.553  1.00  0.00     0.045 A 
HETATM    7  N   UNL     1      43.434 -13.476   2.301  1.00  0.00    -0.364 N 
HETATM    8  C   UNL     1      42.087 -16.488   4.006  1.00  0.00     0.019 A 
HETATM    9  C   UNL     1      42.531 -17.496   3.151  1.00  0.00     0.001 A 
HETATM   10  C   UNL     1      43.273 -17.166   2.018  1.00  0.00     0.002 A 
HETATM   11  C   UNL     1      43.559 -15.828   1.730  1.00  0.00     0.030 A 
HETATM   12  H   UNL     1      43.730 -13.297   1.351  1.00  0.00     0.162 HD
ENDROOT
BRANCH   1  13
HETATM   13  C   UNL     1      41.323 -12.226   2.033  1.00  0.00    -0.016 A 
HETATM   14  C   UNL     1      41.371 -11.980   0.648  1.00  0.00     0.013 A 
HETATM   15  C   UNL     1      40.203 -11.853  -0.112  1.00  0.00     0.038 A 
HETATM   16  C   UNL     1      38.956 -11.946   0.502  1.00  0.00     0.134 A 
HETATM   17  C   UNL     1      38.882 -12.171   1.879  1.00  0.00     0.038 A 
HETATM   18  C   UNL     1      40.053 -12.323   2.630  1.00  0.00     0.013 A 
BRANCH  16  19
HETATM   19  N   UNL     1      37.693 -11.869  -0.268  1.00  0.00    -0.042 N 
HETATM   20  H   UNL     1      37.003 -12.367   0.307  1.00  0.00     0.286 HD
BRANCH  19  21
HETATM   21  C   UNL     1      37.735 -12.646  -1.564  1.00  0.00     0.237 C 
HETATM   22  C   UNL     1      37.049 -11.874  -2.682  1.00  0.00     0.035 C 
ENDBRANCH  19  21
BRANCH  19  23
HETATM   23  C   UNL     1      37.136 -10.467  -0.347  1.00  0.00     0.237 C 
HETATM   24  C   UNL     1      36.149 -10.120   0.752  1.00  0.00     0.035 C 
ENDBRANCH  19  23
ENDBRANCH  16  19
ENDBRANCH   1  13
BRANCH   2  25
HETATM   25  C   UNL     1      42.177 -11.691   5.227  1.00  0.00     0.193 C 
BRANCH  25  26
HETATM   26  C   UNL     1      43.447 -11.484   5.967  1.00  0.00     0.070 A 
HETATM   27  O   UNL     1      43.343 -11.237   7.306  1.00  0.00    -0.325 OA
HETATM   28  C   UNL     1      44.607 -11.083   7.778  1.00  0.00     0.142 A 
HETATM   29  C   UNL     1      45.522 -11.218   6.760  1.00  0.00     0.027 A 
HETATM   30  C   UNL     1      44.773 -11.476   5.587  1.00  0.00     0.036 A 
ENDBRANCH  25  26
ENDBRANCH   2  25
TORSDOF 6
ENDMDL
MODEL 10
REMARK VINA RESULT:      -6.9      3.302      7.189
REMARK  6 active torsions:
REMARK  status: ('A' for Active; 'I' for Inactive)
REMARK    1  A    between atoms: C_2  and  N_3 
REMARK    2  A    between atoms: N_3  and  C_5 
REMARK    3  A    between atoms: N_3  and  C_28 
REMARK    4  A    between atoms: C_8  and  C_9 
REMARK    5  A    between atoms: N_10  and  C_11 
REMARK    6  A    between atoms: C_11  and  C_12 
ROOT
HETATM    1  C   UNL     1      41.187 -13.500   4.628  1.00  0.00     0.222 C 
HETATM    2  N   UNL     1      41.831 -13.702   3.347  1.00  0.00    -0.316 N 
HETATM    3  C   UNL     1      42.843 -14.635   3.193  1.00  0.00     0.258 C 
HETATM    4  O   UNL     1      43.634 -14.626   2.255  1.00  0.00    -0.267 OA
HETATM    5  C   UNL     1      42.931 -15.692   4.224  1.00  0.00     0.058 A 
HETATM    6  C   UNL     1      41.945 -15.728   5.215  1.00  0.00     0.045 A 
HETATM    7  N   UNL     1      40.911 -14.793   5.230  1.00  0.00    -0.364 N 
HETATM    8  C   UNL     1      43.930 -16.670   4.159  1.00  0.00     0.019 A 
HETATM    9  C   UNL     1      43.930 -17.717   5.079  1.00  0.00     0.001 A 
HETATM   10  C   UNL     1      42.928 -17.790   6.045  1.00  0.00     0.002 A 
HETATM   11  C   UNL     1      41.934 -16.809   6.102  1.00  0.00     0.030 A 
HETATM   12  H   UNL     1      40.392 -14.759   6.097  1.00  0.00     0.162 HD
ENDROOT
BRANCH   1  13
HETATM   13  C   UNL     1      41.956 -12.588   5.601  1.00  0.00    -0.016 A 
HETATM   14  C   UNL     1      43.185 -12.956   6.181  1.00  0.00     0.013 A 
HETATM   15  C   UNL     1      43.897 -12.075   7.003  1.00  0.00     0.038 A 
HETATM   16  C   UNL     1      43.384 -10.811   7.284  1.00  0.00     0.134 A 
HETATM   17  C   UNL     1      42.157 -10.429   6.734  1.00  0.00     0.038 A 
HETATM   18  C   UNL     1      41.461 -11.304   5.892  1.00  0.00     0.013 A 
BRANCH  16  19
HETATM   19  N   UNL     1      44.124  -9.826   8.105  1.00  0.00    -0.042 N 
HETATM   20  H   UNL     1      44.270  -9.021   7.484  1.00  0.00     0.286 HD
BRANCH  19  21
HETATM   21  C   UNL     1      45.520 -10.280   8.469  1.00  0.00     0.237 C 
HETATM   22  C   UNL     1      46.562  -9.308   7.937  1.00  0.00     0.035 C 
ENDBRANCH  19  21
BRANCH  19  23
HETATM   23  C   UNL     1      43.293  -9.254   9.229  1.00  0.00     0.237 C 
HETATM   24  C   UNL     1      43.921  -9.383  10.605  1.00  0.00     0.035 C 
ENDBRANCH  19  23
ENDBRANCH  16  19
ENDBRANCH   1  13
BRANCH   2  25
HETATM   25  C   UNL     1      41.568 -12.748   2.278  1.00  0.00     0.193 C 
BRANCH  25  26
HETATM   26  C   UNL     1      40.883 -13.429   1.150  1.00  0.00     0.070 A 
HETATM   27  O   UNL     1      40.917 -12.797  -0.059  1.00  0.00    -0.325 OA
HETATM   28  C   UNL     1      40.241 -13.584  -0.935  1.00  0.00     0.142 A 
HETATM   29  C   UNL     1      39.764 -14.709  -0.303  1.00  0.00     0.027 A 
HETATM   30  C   UNL     1      40.177 -14.610   1.047  1.00  0.00     0.036 A 
ENDBRANCH  25  26
ENDBRANCH   2  25
TORSDOF 6
ENDMDL
