MODEL 1
REMARK VINA RESULT:      -9.1      0.000      0.000
REMARK  8 active torsions:
REMARK  status: ('A' for Active; 'I' for Inactive)
REMARK    1  A    between atoms: C_4  and  O_5 
REMARK    2  A    between atoms: O_5  and  C_6 
REMARK    3  A    between atoms: C_8  and  C_9 
REMARK    4  A    between atoms: C_9  and  N_10 
REMARK    5  A    between atoms: C_9  and  C_14 
REMARK       I    between atoms: N_10  and  C_11 
REMARK       I    between atoms: C_11  and  N_12 
REMARK    6  A    between atoms: C_14  and  C_15 
REMARK       I    between atoms: C_15  and  N_16 
REMARK    7  A    between atoms: N_16  and  N_17 
REMARK       I    between atoms: N_17  and  C_18 
REMARK    8  A    between atoms: C_18  and  C_19 
ROOT
HETATM    1  C   UNL     1      41.899 -13.069   2.772  1.00  0.00     0.128 C 
ENDROOT
BRANCH   1   2
HETATM    2  C   UNL     1      41.913 -14.264   3.736  1.00  0.00    -0.032 A 
HETATM    3  C   UNL     1      42.982 -15.178   3.788  1.00  0.00     0.046 A 
HETATM    4  C   UNL     1      42.993 -16.243   4.697  1.00  0.00     0.076 A 
HETATM    5  C   UNL     1      41.932 -16.406   5.584  1.00  0.00     0.037 A 
HETATM    6  C   UNL     1      40.838 -15.546   5.517  1.00  0.00     0.003 A 
HETATM    7  C   UNL     1      40.822 -14.497   4.594  1.00  0.00     0.009 A 
BRANCH   4   8
HETATM    8  O   UNL     1      44.132 -17.020   4.677  1.00  0.00    -0.311 OA
BRANCH   8   9
HETATM    9  C   UNL     1      44.048 -18.317   4.235  1.00  0.00     0.076 A 
HETATM   10  C   UNL     1      44.123 -19.412   5.099  1.00  0.00     0.037 A 
HETATM   11  C   UNL     1      43.987 -20.705   4.590  1.00  0.00     0.003 A 
HETATM   12  C   UNL     1      43.748 -20.899   3.229  1.00  0.00     0.000 A 
HETATM   13  C   UNL     1      43.641 -19.802   2.374  1.00  0.00     0.003 A 
HETATM   14  C   UNL     1      43.783 -18.509   2.879  1.00  0.00     0.037 A 
ENDBRANCH   8   9
ENDBRANCH   4   8
ENDBRANCH   1   2
BRANCH   1  15
HETATM   15  N   UNL     1      41.844 -13.515   1.384  1.00  0.00    -0.334 N 
HETATM   16  C   UNL     1      40.675 -13.583   0.698  1.00  0.00     0.314 C 
HETATM   17  N   UNL     1      40.839 -13.986  -0.583  1.00  0.00    -0.352 N 
HETATM   18  O   UNL     1      39.581 -13.296   1.161  1.00  0.00    -0.248 OA
HETATM   19  H   UNL     1      41.544 -14.685  -0.762  1.00  0.00     0.160 HD
HETATM   20  H   UNL     1      39.965 -14.137  -1.073  1.00  0.00     0.160 HD
HETATM   21  H   UNL     1      42.687 -13.442   0.830  1.00  0.00     0.165 HD
ENDBRANCH   1  15
BRANCH   1  22
HETATM   22  C   UNL     1      43.118 -12.164   3.005  1.00  0.00     0.134 C 
BRANCH  22  23
HETATM   23  C   UNL     1      43.246 -11.474   4.346  1.00  0.00     0.238 C 
HETATM   24  N   UNL     1      44.401 -11.695   5.064  1.00  0.00    -0.267 N 
HETATM   25  H   UNL     1      44.866 -12.610   5.047  1.00  0.00     0.190 HD
HETATM   26  O   UNL     1      42.402 -10.650   4.711  1.00  0.00    -0.272 OA
BRANCH  24  27
HETATM   27  N   UNL     1      44.497 -11.017   6.292  1.00  0.00    -0.262 N 
HETATM   28  C   UNL     1      44.300 -11.690   7.483  1.00  0.00     0.293 C 
HETATM   29  O   UNL     1      43.909 -12.855   7.531  1.00  0.00    -0.264 OA
HETATM   30  H   UNL     1      44.912 -10.086   6.279  1.00  0.00     0.190 HD
BRANCH  28  31
HETATM   31  C   UNL     1      44.609 -10.896   8.653  1.00  0.00     0.144 A 
HETATM   32  O   UNL     1      43.937 -11.131   9.827  1.00  0.00    -0.317 OA
HETATM   33  C   UNL     1      44.403 -10.243  10.742  1.00  0.00     0.143 A 
HETATM   34  C   UNL     1      45.370  -9.441  10.186  1.00  0.00     0.027 A 
HETATM   35  C   UNL     1      45.504  -9.859   8.840  1.00  0.00     0.045 A 
ENDBRANCH  28  31
ENDBRANCH  24  27
ENDBRANCH  22  23
ENDBRANCH   1  22
TORSDOF 8
ENDMDL
MODEL 2
REMARK VINA RESULT:      -9.1      3.104      6.757
REMARK  8 active torsions:
REMARK  status: ('A' for Active; 'I' for Inactive)
REMARK    1  A    between atoms: C_4  and  O_5 
REMARK    2  A    between atoms: O_5  and  C_6 
REMARK    3  A    between atoms: C_8  and  C_9 
REMARK    4  A    between atoms: C_9  and  N_10 
REMARK    5  A    between atoms: C_9  and  C_14 
REMARK       I    between atoms: N_10  and  C_11 
REMARK       I    between atoms: C_11  and  N_12 
REMARK    6  A    between atoms: C_14  and  C_15 
REMARK       I    between atoms: C_15  and  N_16 
REMARK    7  A    between atoms: N_16  and  N_17 
REMARK       I    between atoms: N_17  and  C_18 
REMARK    8  A    between atoms: C_18  and  C_19 
ROOT
HETATM    1  C   UNL     1      42.122 -12.796   4.410  1.00  0.00     0.128 C 
ENDROOT
BRANCH   1   2
HETATM    2  C   UNL     1      42.118 -14.225   4.971  1.00  0.00    -0.032 A 
HETATM    3  C   UNL     1      43.144 -15.147   4.690  1.00  0.00     0.046 A 
HETATM    4  C   UNL     1      43.142 -16.436   5.237  1.00  0.00     0.076 A 
HETATM    5  C   UNL     1      42.112 -16.823   6.091  1.00  0.00     0.037 A 
HETATM    6  C   UNL     1      41.059 -15.946   6.343  1.00  0.00     0.003 A 
HETATM    7  C   UNL     1      41.055 -14.668   5.777  1.00  0.00     0.009 A 
BRANCH   4   8
HETATM    8  O   UNL     1      44.240 -17.208   4.924  1.00  0.00    -0.311 OA
BRANCH   8   9
HETATM    9  C   UNL     1      44.058 -18.381   4.234  1.00  0.00     0.076 A 
HETATM   10  C   UNL     1      44.231 -19.635   4.824  1.00  0.00     0.037 A 
HETATM   11  C   UNL     1      43.987 -20.789   4.078  1.00  0.00     0.003 A 
HETATM   12  C   UNL     1      43.545 -20.689   2.758  1.00  0.00     0.000 A 
HETATM   13  C   UNL     1      43.341 -19.434   2.182  1.00  0.00     0.003 A 
HETATM   14  C   UNL     1      43.591 -18.279   2.923  1.00  0.00     0.037 A 
ENDBRANCH   8   9
ENDBRANCH   4   8
ENDBRANCH   1   2
BRANCH   1  15
HETATM   15  N   UNL     1      40.764 -12.278   4.279  1.00  0.00    -0.334 N 
HETATM   16  C   UNL     1      40.367 -11.138   4.899  1.00  0.00     0.314 C 
HETATM   17  N   UNL     1      39.084 -10.809   4.626  1.00  0.00    -0.352 N 
HETATM   18  O   UNL     1      41.082 -10.454   5.616  1.00  0.00    -0.248 OA
HETATM   19  H   UNL     1      38.421 -11.565   4.536  1.00  0.00     0.160 HD
HETATM   20  H   UNL     1      38.748 -10.018   5.162  1.00  0.00     0.160 HD
HETATM   21  H   UNL     1      40.226 -12.562   3.471  1.00  0.00     0.165 HD
ENDBRANCH   1  15
BRANCH   1  22
HETATM   22  C   UNL     1      42.859 -12.738   3.063  1.00  0.00     0.134 C 
BRANCH  22  23
HETATM   23  C   UNL     1      42.029 -12.714   1.798  1.00  0.00     0.238 C 
HETATM   24  N   UNL     1      41.944 -13.884   1.075  1.00  0.00    -0.267 N 
HETATM   25  H   UNL     1      42.744 -14.523   1.008  1.00  0.00     0.190 HD
HETATM   26  O   UNL     1      41.359 -11.719   1.506  1.00  0.00    -0.272 OA
BRANCH  24  27
HETATM   27  N   UNL     1      41.142 -13.833  -0.079  1.00  0.00    -0.262 N 
HETATM   28  C   UNL     1      40.039 -14.655  -0.203  1.00  0.00     0.293 C 
HETATM   29  O   UNL     1      39.779 -15.546   0.603  1.00  0.00    -0.264 OA
HETATM   30  H   UNL     1      41.281 -13.042  -0.708  1.00  0.00     0.190 HD
BRANCH  28  31
HETATM   31  C   UNL     1      39.223 -14.356  -1.362  1.00  0.00     0.144 A 
HETATM   32  O   UNL     1      38.501 -13.190  -1.398  1.00  0.00    -0.317 OA
HETATM   33  C   UNL     1      37.821 -13.174  -2.573  1.00  0.00     0.143 A 
HETATM   34  C   UNL     1      38.094 -14.306  -3.304  1.00  0.00     0.027 A 
HETATM   35  C   UNL     1      38.996 -15.069  -2.525  1.00  0.00     0.045 A 
ENDBRANCH  28  31
ENDBRANCH  24  27
ENDBRANCH  22  23
ENDBRANCH   1  22
TORSDOF 8
ENDMDL
MODEL 3
REMARK VINA RESULT:      -8.9      2.509      3.530
REMARK  8 active torsions:
REMARK  status: ('A' for Active; 'I' for Inactive)
REMARK    1  A    between atoms: C_4  and  O_5 
REMARK    2  A    between atoms: O_5  and  C_6 
REMARK    3  A    between atoms: C_8  and  C_9 
REMARK    4  A    between atoms: C_9  and  N_10 
REMARK    5  A    between atoms: C_9  and  C_14 
REMARK       I    between atoms: N_10  and  C_11 
REMARK       I    between atoms: C_11  and  N_12 
REMARK    6  A    between atoms: C_14  and  C_15 
REMARK       I    between atoms: C_15  and  N_16 
REMARK    7  A    between atoms: N_16  and  N_17 
REMARK       I    between atoms: N_17  and  C_18 
REMARK    8  A    between atoms: C_18  and  C_19 
ROOT
HETATM    1  C   UNL     1      42.791 -12.523   6.095  1.00  0.00     0.128 C 
ENDROOT
BRANCH   1   2
HETATM    2  C   UNL     1      42.501 -14.025   5.968  1.00  0.00    -0.032 A 
HETATM    3  C   UNL     1      43.460 -14.939   5.492  1.00  0.00     0.046 A 
HETATM    4  C   UNL     1      43.191 -16.311   5.414  1.00  0.00     0.076 A 
HETATM    5  C   UNL     1      41.951 -16.797   5.825  1.00  0.00     0.037 A 
HETATM    6  C   UNL     1      40.968 -15.906   6.251  1.00  0.00     0.003 A 
HETATM    7  C   UNL     1      41.236 -14.535   6.307  1.00  0.00     0.009 A 
BRANCH   4   8
HETATM    8  O   UNL     1      44.243 -17.093   4.987  1.00  0.00    -0.311 OA
BRANCH   8   9
HETATM    9  C   UNL     1      43.981 -18.227   4.259  1.00  0.00     0.076 A 
HETATM   10  C   UNL     1      43.621 -18.188   2.910  1.00  0.00     0.037 A 
HETATM   11  C   UNL     1      43.411 -19.380   2.216  1.00  0.00     0.003 A 
HETATM   12  C   UNL     1      43.588 -20.605   2.861  1.00  0.00     0.000 A 
HETATM   13  C   UNL     1      43.981 -20.642   4.199  1.00  0.00     0.003 A 
HETATM   14  C   UNL     1      44.184 -19.451   4.897  1.00  0.00     0.037 A 
ENDBRANCH   8   9
ENDBRANCH   4   8
ENDBRANCH   1   2
BRANCH   1  15
HETATM   15  N   UNL     1      42.645 -11.848   4.810  1.00  0.00    -0.334 N 
HETATM   16  C   UNL     1      42.284 -10.543   4.721  1.00  0.00     0.314 C 
HETATM   17  N   UNL     1      42.237 -10.096   3.445  1.00  0.00    -0.352 N 
HETATM   18  O   UNL     1      42.044  -9.823   5.678  1.00  0.00    -0.248 OA
HETATM   19  H   UNL     1      41.902 -10.737   2.742  1.00  0.00     0.160 HD
HETATM   20  H   UNL     1      41.872  -9.154   3.362  1.00  0.00     0.160 HD
HETATM   21  H   UNL     1      43.136 -12.235   4.015  1.00  0.00     0.165 HD
ENDBRANCH   1  15
BRANCH   1  22
HETATM   22  C   UNL     1      44.191 -12.282   6.680  1.00  0.00     0.134 C 
BRANCH  22  23
HETATM   23  C   UNL     1      44.315 -11.362   7.875  1.00  0.00     0.238 C 
HETATM   24  N   UNL     1      43.147 -10.878   8.425  1.00  0.00    -0.267 N 
HETATM   25  H   UNL     1      42.341 -10.648   7.833  1.00  0.00     0.190 HD
HETATM   26  O   UNL     1      45.413 -11.163   8.403  1.00  0.00    -0.272 OA
BRANCH  24  27
HETATM   27  N   UNL     1      43.299 -10.049   9.550  1.00  0.00    -0.262 N 
HETATM   28  C   UNL     1      42.311  -9.144   9.892  1.00  0.00     0.293 C 
HETATM   29  O   UNL     1      41.334  -8.924   9.178  1.00  0.00    -0.264 OA
HETATM   30  H   UNL     1      44.046 -10.281  10.203  1.00  0.00     0.190 HD
BRANCH  28  31
HETATM   31  C   UNL     1      42.538  -8.497  11.167  1.00  0.00     0.144 A 
HETATM   32  O   UNL     1      41.920  -7.302  11.439  1.00  0.00    -0.317 OA
HETATM   33  C   UNL     1      42.318  -6.916  12.678  1.00  0.00     0.143 A 
HETATM   34  C   UNL     1      43.177  -7.842  13.219  1.00  0.00     0.027 A 
HETATM   35  C   UNL     1      43.320  -8.861  12.247  1.00  0.00     0.045 A 
ENDBRANCH  28  31
ENDBRANCH  24  27
ENDBRANCH  22  23
ENDBRANCH   1  22
TORSDOF 8
ENDMDL
MODEL 4
REMARK VINA RESULT:      -8.7      1.868      6.751
REMARK  8 active torsions:
REMARK  status: ('A' for Active; 'I' for Inactive)
REMARK    1  A    between atoms: C_4  and  O_5 
REMARK    2  A    between atoms: O_5  and  C_6 
REMARK    3  A    between atoms: C_8  and  C_9 
REMARK    4  A    between atoms: C_9  and  N_10 
REMARK    5  A    between atoms: C_9  and  C_14 
REMARK       I    between atoms: N_10  and  C_11 
REMARK       I    between atoms: C_11  and  N_12 
REMARK    6  A    between atoms: C_14  and  C_15 
REMARK       I    between atoms: C_15  and  N_16 
REMARK    7  A    between atoms: N_16  and  N_17 
REMARK       I    between atoms: N_17  and  C_18 
REMARK    8  A    between atoms: C_18  and  C_19 
ROOT
HETATM    1  C   UNL     1      42.631 -12.666   5.578  1.00  0.00     0.128 C 
ENDROOT
BRANCH   1   2
HETATM    2  C   UNL     1      42.472 -14.181   5.764  1.00  0.00    -0.032 A 
HETATM    3  C   UNL     1      43.439 -15.100   5.315  1.00  0.00     0.046 A 
HETATM    4  C   UNL     1      43.295 -16.477   5.522  1.00  0.00     0.076 A 
HETATM    5  C   UNL     1      42.177 -16.961   6.197  1.00  0.00     0.037 A 
HETATM    6  C   UNL     1      41.181 -16.076   6.606  1.00  0.00     0.003 A 
HETATM    7  C   UNL     1      41.320 -14.705   6.377  1.00  0.00     0.009 A 
BRANCH   4   8
HETATM    8  O   UNL     1      44.348 -17.251   5.084  1.00  0.00    -0.311 OA
BRANCH   8   9
HETATM    9  C   UNL     1      44.094 -18.327   4.269  1.00  0.00     0.076 A 
HETATM   10  C   UNL     1      44.267 -19.647   4.692  1.00  0.00     0.037 A 
HETATM   11  C   UNL     1      43.948 -20.697   3.829  1.00  0.00     0.003 A 
HETATM   12  C   UNL     1      43.433 -20.426   2.560  1.00  0.00     0.000 A 
HETATM   13  C   UNL     1      43.230 -19.107   2.153  1.00  0.00     0.003 A 
HETATM   14  C   UNL     1      43.554 -18.057   3.012  1.00  0.00     0.037 A 
ENDBRANCH   8   9
ENDBRANCH   4   8
ENDBRANCH   1   2
BRANCH   1  15
HETATM   15  N   UNL     1      42.753 -11.988   6.864  1.00  0.00    -0.334 N 
HETATM   16  C   UNL     1      43.960 -11.729   7.428  1.00  0.00     0.314 C 
HETATM   17  N   UNL     1      43.861 -11.064   8.602  1.00  0.00    -0.352 N 
HETATM   18  O   UNL     1      45.036 -12.035   6.935  1.00  0.00    -0.248 OA
HETATM   19  H   UNL     1      43.089 -11.303   9.206  1.00  0.00     0.160 HD
HETATM   20  H   UNL     1      44.749 -10.955   9.079  1.00  0.00     0.160 HD
HETATM   21  H   UNL     1      41.981 -11.411   7.169  1.00  0.00     0.165 HD
ENDBRANCH   1  15
BRANCH   1  22
HETATM   22  C   UNL     1      41.462 -12.088   4.766  1.00  0.00     0.134 C 
BRANCH  22  23
HETATM   23  C   UNL     1      41.427 -12.357   3.278  1.00  0.00     0.238 C 
HETATM   24  N   UNL     1      40.189 -12.477   2.685  1.00  0.00    -0.267 N 
HETATM   25  H   UNL     1      39.405 -12.916   3.182  1.00  0.00     0.190 HD
HETATM   26  O   UNL     1      42.467 -12.341   2.612  1.00  0.00    -0.272 OA
BRANCH  24  27
HETATM   27  N   UNL     1      40.194 -12.700   1.297  1.00  0.00    -0.262 N 
HETATM   28  C   UNL     1      40.023 -13.974   0.791  1.00  0.00     0.293 C 
HETATM   29  O   UNL     1      39.992 -14.975   1.504  1.00  0.00    -0.264 OA
HETATM   30  H   UNL     1      40.120 -11.881   0.693  1.00  0.00     0.190 HD
BRANCH  28  31
HETATM   31  C   UNL     1      39.875 -14.008  -0.650  1.00  0.00     0.144 A 
HETATM   32  O   UNL     1      39.128 -15.003  -1.229  1.00  0.00    -0.317 OA
HETATM   33  C   UNL     1      39.172 -14.809  -2.572  1.00  0.00     0.143 A 
HETATM   34  C   UNL     1      39.929 -13.702  -2.875  1.00  0.00     0.027 A 
HETATM   35  C   UNL     1      40.383 -13.185  -1.637  1.00  0.00     0.045 A 
ENDBRANCH  28  31
ENDBRANCH  24  27
ENDBRANCH  22  23
ENDBRANCH   1  22
TORSDOF 8
ENDMDL
MODEL 5
REMARK VINA RESULT:      -8.5      2.956      7.148
REMARK  8 active torsions:
REMARK  status: ('A' for Active; 'I' for Inactive)
REMARK    1  A    between atoms: C_4  and  O_5 
REMARK    2  A    between atoms: O_5  and  C_6 
REMARK    3  A    between atoms: C_8  and  C_9 
REMARK    4  A    between atoms: C_9  and  N_10 
REMARK    5  A    between atoms: C_9  and  C_14 
REMARK       I    between atoms: N_10  and  C_11 
REMARK       I    between atoms: C_11  and  N_12 
REMARK    6  A    between atoms: C_14  and  C_15 
REMARK       I    between atoms: C_15  and  N_16 
REMARK    7  A    between atoms: N_16  and  N_17 
REMARK       I    between atoms: N_17  and  C_18 
REMARK    8  A    between atoms: C_18  and  C_19 
ROOT
HETATM    1  C   UNL     1      40.444 -11.991   5.796  1.00  0.00     0.128 C 
ENDROOT
BRANCH   1   2
HETATM    2  C   UNL     1      41.632 -12.930   6.050  1.00  0.00    -0.032 A 
HETATM    3  C   UNL     1      41.505 -14.331   6.013  1.00  0.00     0.046 A 
HETATM    4  C   UNL     1      42.606 -15.173   6.215  1.00  0.00     0.076 A 
HETATM    5  C   UNL     1      43.864 -14.622   6.447  1.00  0.00     0.037 A 
HETATM    6  C   UNL     1      44.005 -13.239   6.540  1.00  0.00     0.003 A 
HETATM    7  C   UNL     1      42.899 -12.404   6.359  1.00  0.00     0.009 A 
BRANCH   4   8
HETATM    8  O   UNL     1      42.346 -16.521   6.089  1.00  0.00    -0.311 OA
BRANCH   8   9
HETATM    9  C   UNL     1      42.849 -17.200   5.007  1.00  0.00     0.076 A 
HETATM   10  C   UNL     1      42.484 -16.897   3.693  1.00  0.00     0.037 A 
HETATM   11  C   UNL     1      43.067 -17.598   2.635  1.00  0.00     0.003 A 
HETATM   12  C   UNL     1      44.029 -18.576   2.890  1.00  0.00     0.000 A 
HETATM   13  C   UNL     1      44.416 -18.853   4.202  1.00  0.00     0.003 A 
HETATM   14  C   UNL     1      43.830 -18.159   5.261  1.00  0.00     0.037 A 
ENDBRANCH   8   9
ENDBRANCH   4   8
ENDBRANCH   1   2
BRANCH   1  15
HETATM   15  N   UNL     1      39.883 -11.500   7.050  1.00  0.00    -0.334 N 
HETATM   16  C   UNL     1      40.023 -10.209   7.443  1.00  0.00     0.314 C 
HETATM   17  N   UNL     1      39.403  -9.945   8.616  1.00  0.00    -0.352 N 
HETATM   18  O   UNL     1      40.622  -9.353   6.809  1.00  0.00    -0.248 OA
HETATM   19  H   UNL     1      39.419 -10.668   9.320  1.00  0.00     0.160 HD
HETATM   20  H   UNL     1      39.586  -9.012   8.967  1.00  0.00     0.160 HD
HETATM   21  H   UNL     1      39.111 -12.013   7.455  1.00  0.00     0.165 HD
ENDBRANCH   1  15
BRANCH   1  22
HETATM   22  C   UNL     1      39.365 -12.689   4.952  1.00  0.00     0.134 C 
BRANCH  22  23
HETATM   23  C   UNL     1      39.444 -12.558   3.447  1.00  0.00     0.238 C 
HETATM   24  N   UNL     1      39.122 -13.669   2.698  1.00  0.00    -0.267 N 
HETATM   25  H   UNL     1      39.359 -14.613   3.023  1.00  0.00     0.190 HD
HETATM   26  O   UNL     1      39.666 -11.463   2.923  1.00  0.00    -0.272 OA
BRANCH  24  27
HETATM   27  N   UNL     1      39.179 -13.504   1.302  1.00  0.00    -0.262 N 
HETATM   28  C   UNL     1      40.033 -14.277   0.540  1.00  0.00     0.293 C 
HETATM   29  O   UNL     1      40.864 -15.037   1.035  1.00  0.00    -0.264 OA
HETATM   30  H   UNL     1      38.438 -12.955   0.867  1.00  0.00     0.190 HD
BRANCH  28  31
HETATM   31  C   UNL     1      39.845 -14.111  -0.886  1.00  0.00     0.144 A 
HETATM   32  O   UNL     1      40.497 -13.096  -1.541  1.00  0.00    -0.317 OA
HETATM   33  C   UNL     1      40.130 -13.158  -2.846  1.00  0.00     0.143 A 
HETATM   34  C   UNL     1      39.256 -14.199  -3.053  1.00  0.00     0.027 A 
HETATM   35  C   UNL     1      39.071 -14.814  -1.791  1.00  0.00     0.045 A 
ENDBRANCH  28  31
ENDBRANCH  24  27
ENDBRANCH  22  23
ENDBRANCH   1  22
TORSDOF 8
ENDMDL
MODEL 6
REMARK VINA RESULT:      -8.2      2.394      9.090
REMARK  8 active torsions:
REMARK  status: ('A' for Active; 'I' for Inactive)
REMARK    1  A    between atoms: C_4  and  O_5 
REMARK    2  A    between atoms: O_5  and  C_6 
REMARK    3  A    between atoms: C_8  and  C_9 
REMARK    4  A    between atoms: C_9  and  N_10 
REMARK    5  A    between atoms: C_9  and  C_14 
REMARK       I    between atoms: N_10  and  C_11 
REMARK       I    between atoms: C_11  and  N_12 
REMARK    6  A    between atoms: C_14  and  C_15 
REMARK       I    between atoms: C_15  and  N_16 
REMARK    7  A    between atoms: N_16  and  N_17 
REMARK       I    between atoms: N_17  and  C_18 
REMARK    8  A    between atoms: C_18  and  C_19 
ROOT
HETATM    1  C   UNL     1      43.948 -12.510   6.122  1.00  0.00     0.128 C 
ENDROOT
BRANCH   1   2
HETATM    2  C   UNL     1      44.454 -11.330   6.963  1.00  0.00    -0.032 A 
HETATM    3  C   UNL     1      43.581 -10.461   7.643  1.00  0.00     0.046 A 
HETATM    4  C   UNL     1      44.060  -9.409   8.433  1.00  0.00     0.076 A 
HETATM    5  C   UNL     1      45.433  -9.215   8.567  1.00  0.00     0.037 A 
HETATM    6  C   UNL     1      46.317 -10.030   7.861  1.00  0.00     0.003 A 
HETATM    7  C   UNL     1      45.832 -11.064   7.057  1.00  0.00     0.009 A 
BRANCH   4   8
HETATM    8  O   UNL     1      43.093  -8.678   9.090  1.00  0.00    -0.311 OA
BRANCH   8   9
HETATM    9  C   UNL     1      42.944  -8.832  10.446  1.00  0.00     0.076 A 
HETATM   10  C   UNL     1      42.826 -10.085  11.052  1.00  0.00     0.037 A 
HETATM   11  C   UNL     1      42.721 -10.174  12.441  1.00  0.00     0.003 A 
HETATM   12  C   UNL     1      42.764  -9.017  13.221  1.00  0.00     0.000 A 
HETATM   13  C   UNL     1      42.916  -7.769  12.615  1.00  0.00     0.003 A 
HETATM   14  C   UNL     1      43.013  -7.678  11.226  1.00  0.00     0.037 A 
ENDBRANCH   8   9
ENDBRANCH   4   8
ENDBRANCH   1   2
BRANCH   1  15
HETATM   15  N   UNL     1      43.090 -12.051   5.034  1.00  0.00    -0.334 N 
HETATM   16  C   UNL     1      43.600 -11.556   3.877  1.00  0.00     0.314 C 
HETATM   17  N   UNL     1      42.643 -11.217   2.983  1.00  0.00    -0.352 N 
HETATM   18  O   UNL     1      44.793 -11.440   3.639  1.00  0.00    -0.248 OA
HETATM   19  H   UNL     1      41.792 -10.815   3.346  1.00  0.00     0.160 HD
HETATM   20  H   UNL     1      43.009 -10.755   2.159  1.00  0.00     0.160 HD
HETATM   21  H   UNL     1      42.146 -12.412   4.992  1.00  0.00     0.165 HD
ENDBRANCH   1  15
BRANCH   1  22
HETATM   22  C   UNL     1      43.212 -13.533   7.000  1.00  0.00     0.134 C 
BRANCH  22  23
HETATM   23  C   UNL     1      43.078 -14.949   6.483  1.00  0.00     0.238 C 
HETATM   24  N   UNL     1      43.799 -15.283   5.357  1.00  0.00    -0.267 N 
HETATM   25  H   UNL     1      43.948 -14.601   4.604  1.00  0.00     0.190 HD
HETATM   26  O   UNL     1      42.446 -15.794   7.124  1.00  0.00    -0.272 OA
BRANCH  24  27
HETATM   27  N   UNL     1      43.672 -16.613   4.921  1.00  0.00    -0.262 N 
HETATM   28  C   UNL     1      43.490 -16.897   3.581  1.00  0.00     0.293 C 
HETATM   29  O   UNL     1      43.301 -16.024   2.735  1.00  0.00    -0.264 OA
HETATM   30  H   UNL     1      43.921 -17.347   5.583  1.00  0.00     0.190 HD
BRANCH  28  31
HETATM   31  C   UNL     1      43.556 -18.311   3.276  1.00  0.00     0.144 A 
HETATM   32  O   UNL     1      43.050 -18.771   2.086  1.00  0.00    -0.317 OA
HETATM   33  C   UNL     1      43.222 -20.117   2.069  1.00  0.00     0.143 A 
HETATM   34  C   UNL     1      43.837 -20.540   3.224  1.00  0.00     0.027 A 
HETATM   35  C   UNL     1      44.052 -19.377   4.003  1.00  0.00     0.045 A 
ENDBRANCH  28  31
ENDBRANCH  24  27
ENDBRANCH  22  23
ENDBRANCH   1  22
TORSDOF 8
ENDMDL
MODEL 7
REMARK VINA RESULT:      -8.1      6.817     13.112
REMARK  8 active torsions:
REMARK  status: ('A' for Active; 'I' for Inactive)
REMARK    1  A    between atoms: C_4  and  O_5 
REMARK    2  A    between atoms: O_5  and  C_6 
REMARK    3  A    between atoms: C_8  and  C_9 
REMARK    4  A    between atoms: C_9  and  N_10 
REMARK    5  A    between atoms: C_9  and  C_14 
REMARK       I    between atoms: N_10  and  C_11 
REMARK       I    between atoms: C_11  and  N_12 
REMARK    6  A    between atoms: C_14  and  C_15 
REMARK       I    between atoms: C_15  and  N_16 
REMARK    7  A    between atoms: N_16  and  N_17 
REMARK       I    between atoms: N_17  and  C_18 
REMARK    8  A    between atoms: C_18  and  C_19 
ROOT
HETATM    1  C   UNL     1      40.938  -8.977  13.354  1.00  0.00     0.128 C 
ENDROOT
BRANCH   1   2
HETATM    2  C   UNL     1      40.725  -7.960  14.484  1.00  0.00    -0.032 A 
HETATM    3  C   UNL     1      41.282  -8.132  15.765  1.00  0.00     0.046 A 
HETATM    4  C   UNL     1      41.105  -7.178  16.776  1.00  0.00     0.076 A 
HETATM    5  C   UNL     1      40.373  -6.023  16.516  1.00  0.00     0.037 A 
HETATM    6  C   UNL     1      39.768  -5.855  15.272  1.00  0.00     0.003 A 
HETATM    7  C   UNL     1      39.930  -6.819  14.274  1.00  0.00     0.009 A 
BRANCH   4   8
HETATM    8  O   UNL     1      41.759  -7.449  17.959  1.00  0.00    -0.311 OA
BRANCH   8   9
HETATM    9  C   UNL     1      41.035  -7.511  19.124  1.00  0.00     0.076 A 
HETATM   10  C   UNL     1      41.172  -6.570  20.146  1.00  0.00     0.037 A 
HETATM   11  C   UNL     1      40.373  -6.666  21.287  1.00  0.00     0.003 A 
HETATM   12  C   UNL     1      39.423  -7.683  21.391  1.00  0.00     0.000 A 
HETATM   13  C   UNL     1      39.264  -8.602  20.353  1.00  0.00     0.003 A 
HETATM   14  C   UNL     1      40.066  -8.511  19.215  1.00  0.00     0.037 A 
ENDBRANCH   8   9
ENDBRANCH   4   8
ENDBRANCH   1   2
BRANCH   1  15
HETATM   15  N   UNL     1      40.053 -10.127  13.507  1.00  0.00    -0.334 N 
HETATM   16  C   UNL     1      39.398 -10.675  12.451  1.00  0.00     0.314 C 
HETATM   17  N   UNL     1      38.656 -11.752  12.794  1.00  0.00    -0.352 N 
HETATM   18  O   UNL     1      39.474 -10.268  11.302  1.00  0.00    -0.248 OA
HETATM   19  H   UNL     1      38.191 -11.728  13.690  1.00  0.00     0.160 HD
HETATM   20  H   UNL     1      38.086 -12.106  12.035  1.00  0.00     0.160 HD
HETATM   21  H   UNL     1      40.189 -10.724  14.311  1.00  0.00     0.165 HD
ENDBRANCH   1  15
BRANCH   1  22
HETATM   22  C   UNL     1      42.406  -9.424  13.288  1.00  0.00     0.134 C 
BRANCH  22  23
HETATM   23  C   UNL     1      42.876 -10.144  12.043  1.00  0.00     0.238 C 
HETATM   24  N   UNL     1      42.494  -9.621  10.827  1.00  0.00    -0.267 N 
HETATM   25  H   UNL     1      41.572  -9.185  10.705  1.00  0.00     0.190 HD
HETATM   26  O   UNL     1      43.671 -11.085  12.125  1.00  0.00    -0.272 OA
BRANCH  24  27
HETATM   27  N   UNL     1      42.971 -10.300   9.692  1.00  0.00    -0.262 N 
HETATM   28  C   UNL     1      44.018  -9.781   8.953  1.00  0.00     0.293 C 
HETATM   29  O   UNL     1      44.490  -8.665   9.160  1.00  0.00    -0.264 OA
HETATM   30  H   UNL     1      42.664 -11.263   9.561  1.00  0.00     0.190 HD
BRANCH  28  31
HETATM   31  C   UNL     1      44.503 -10.682   7.929  1.00  0.00     0.144 A 
HETATM   32  O   UNL     1      45.636 -10.358   7.225  1.00  0.00    -0.317 OA
HETATM   33  C   UNL     1      45.851 -11.354   6.327  1.00  0.00     0.143 A 
HETATM   34  C   UNL     1      44.881 -12.322   6.440  1.00  0.00     0.027 A 
HETATM   35  C   UNL     1      44.012 -11.890   7.471  1.00  0.00     0.045 A 
ENDBRANCH  28  31
ENDBRANCH  24  27
ENDBRANCH  22  23
ENDBRANCH   1  22
TORSDOF 8
ENDMDL
MODEL 8
REMARK VINA RESULT:      -7.9      2.780      5.669
REMARK  8 active torsions:
REMARK  status: ('A' for Active; 'I' for Inactive)
REMARK    1  A    between atoms: C_4  and  O_5 
REMARK    2  A    between atoms: O_5  and  C_6 
REMARK    3  A    between atoms: C_8  and  C_9 
REMARK    4  A    between atoms: C_9  and  N_10 
REMARK    5  A    between atoms: C_9  and  C_14 
REMARK       I    between atoms: N_10  and  C_11 
REMARK       I    between atoms: C_11  and  N_12 
REMARK    6  A    between atoms: C_14  and  C_15 
REMARK       I    between atoms: C_15  and  N_16 
REMARK    7  A    between atoms: N_16  and  N_17 
REMARK       I    between atoms: N_17  and  C_18 
REMARK    8  A    between atoms: C_18  and  C_19 
ROOT
HETATM    1  C   UNL     1      42.799 -14.605   4.233  1.00  0.00     0.128 C 
ENDROOT
BRANCH   1   2
HETATM    2  C   UNL     1      41.806 -14.853   3.088  1.00  0.00    -0.032 A 
HETATM    3  C   UNL     1      41.756 -14.035   1.944  1.00  0.00     0.046 A 
HETATM    4  C   UNL     1      40.867 -14.295   0.894  1.00  0.00     0.076 A 
HETATM    5  C   UNL     1      40.014 -15.394   0.966  1.00  0.00     0.037 A 
HETATM    6  C   UNL     1      40.009 -16.188   2.111  1.00  0.00     0.003 A 
HETATM    7  C   UNL     1      40.883 -15.911   3.165  1.00  0.00     0.009 A 
BRANCH   4   8
HETATM    8  O   UNL     1      40.972 -13.448  -0.188  1.00  0.00    -0.311 OA
BRANCH   8   9
HETATM    9  C   UNL     1      39.930 -13.368  -1.078  1.00  0.00     0.076 A 
HETATM   10  C   UNL     1      39.892 -14.111  -2.261  1.00  0.00     0.037 A 
HETATM   11  C   UNL     1      38.782 -14.016  -3.101  1.00  0.00     0.003 A 
HETATM   12  C   UNL     1      37.703 -13.205  -2.746  1.00  0.00     0.000 A 
HETATM   13  C   UNL     1      37.729 -12.490  -1.548  1.00  0.00     0.003 A 
HETATM   14  C   UNL     1      38.840 -12.578  -0.710  1.00  0.00     0.037 A 
ENDBRANCH   8   9
ENDBRANCH   4   8
ENDBRANCH   1   2
BRANCH   1  15
HETATM   15  N   UNL     1      42.318 -15.186   5.482  1.00  0.00    -0.334 N 
HETATM   16  C   UNL     1      43.058 -16.074   6.193  1.00  0.00     0.314 C 
HETATM   17  N   UNL     1      42.452 -16.469   7.336  1.00  0.00    -0.352 N 
HETATM   18  O   UNL     1      44.166 -16.471   5.865  1.00  0.00    -0.248 OA
HETATM   19  H   UNL     1      41.450 -16.587   7.311  1.00  0.00     0.160 HD
HETATM   20  H   UNL     1      42.950 -17.205   7.822  1.00  0.00     0.160 HD
HETATM   21  H   UNL     1      41.604 -14.684   5.993  1.00  0.00     0.165 HD
ENDBRANCH   1  15
BRANCH   1  22
HETATM   22  C   UNL     1      43.075 -13.103   4.402  1.00  0.00     0.134 C 
BRANCH  22  23
HETATM   23  C   UNL     1      42.810 -12.478   5.754  1.00  0.00     0.238 C 
HETATM   24  N   UNL     1      43.903 -12.116   6.510  1.00  0.00    -0.267 N 
HETATM   25  H   UNL     1      44.763 -12.678   6.499  1.00  0.00     0.190 HD
HETATM   26  O   UNL     1      41.659 -12.194   6.099  1.00  0.00    -0.272 OA
BRANCH  24  27
HETATM   27  N   UNL     1      43.619 -11.514   7.748  1.00  0.00    -0.262 N 
HETATM   28  C   UNL     1      44.594 -10.804   8.422  1.00  0.00     0.293 C 
HETATM   29  O   UNL     1      45.768 -10.772   8.056  1.00  0.00    -0.264 OA
HETATM   30  H   UNL     1      42.639 -11.446   8.019  1.00  0.00     0.190 HD
BRANCH  28  31
HETATM   31  C   UNL     1      44.096 -10.101   9.586  1.00  0.00     0.144 A 
HETATM   32  O   UNL     1      42.758  -9.807   9.678  1.00  0.00    -0.317 OA
HETATM   33  C   UNL     1      42.572  -9.138  10.844  1.00  0.00     0.143 A 
HETATM   34  C   UNL     1      43.764  -8.996  11.514  1.00  0.00     0.027 A 
HETATM   35  C   UNL     1      44.747  -9.616  10.705  1.00  0.00     0.045 A 
ENDBRANCH  28  31
ENDBRANCH  24  27
ENDBRANCH  22  23
ENDBRANCH   1  22
TORSDOF 8
ENDMDL
MODEL 9
REMARK VINA RESULT:      -7.5     15.978     17.657
REMARK  8 active torsions:
REMARK  status: ('A' for Active; 'I' for Inactive)
REMARK    1  A    between atoms: C_4  and  O_5 
REMARK    2  A    between atoms: O_5  and  C_6 
REMARK    3  A    between atoms: C_8  and  C_9 
REMARK    4  A    between atoms: C_9  and  N_10 
REMARK    5  A    between atoms: C_9  and  C_14 
REMARK       I    between atoms: N_10  and  C_11 
REMARK       I    between atoms: C_11  and  N_12 
REMARK    6  A    between atoms: C_14  and  C_15 
REMARK       I    between atoms: C_15  and  N_16 
REMARK    7  A    between atoms: N_16  and  N_17 
REMARK       I    between atoms: N_17  and  C_18 
REMARK    8  A    between atoms: C_18  and  C_19 
ROOT
HETATM    1  C   UNL     1      46.858 -29.260  -1.267  1.00  0.00     0.128 C 
ENDROOT
BRANCH   1   2
HETATM    2  C   UNL     1      48.297 -29.794  -1.249  1.00  0.00    -0.032 A 
HETATM    3  C   UNL     1      49.149 -29.625  -0.142  1.00  0.00     0.046 A 
HETATM    4  C   UNL     1      50.448 -30.147  -0.129  1.00  0.00     0.076 A 
HETATM    5  C   UNL     1      50.916 -30.864  -1.229  1.00  0.00     0.037 A 
HETATM    6  C   UNL     1      50.110 -31.000  -2.357  1.00  0.00     0.003 A 
HETATM    7  C   UNL     1      48.822 -30.459  -2.372  1.00  0.00     0.009 A 
BRANCH   4   8
HETATM    8  O   UNL     1      51.147 -29.958   1.044  1.00  0.00    -0.311 OA
BRANCH   8   9
HETATM    9  C   UNL     1      50.659 -30.502   2.207  1.00  0.00     0.076 A 
HETATM   10  C   UNL     1      50.130 -29.721   3.237  1.00  0.00     0.037 A 
HETATM   11  C   UNL     1      49.610 -30.339   4.375  1.00  0.00     0.003 A 
HETATM   12  C   UNL     1      49.594 -31.732   4.470  1.00  0.00     0.000 A 
HETATM   13  C   UNL     1      50.093 -32.510   3.424  1.00  0.00     0.003 A 
HETATM   14  C   UNL     1      50.619 -31.894   2.289  1.00  0.00     0.037 A 
ENDBRANCH   8   9
ENDBRANCH   4   8
ENDBRANCH   1   2
BRANCH   1  15
HETATM   15  N   UNL     1      46.620 -28.427  -2.441  1.00  0.00    -0.334 N 
HETATM   16  C   UNL     1      45.383 -28.285  -2.982  1.00  0.00     0.314 C 
HETATM   17  N   UNL     1      45.366 -27.446  -4.042  1.00  0.00    -0.352 N 
HETATM   18  O   UNL     1      44.375 -28.829  -2.558  1.00  0.00    -0.248 OA
HETATM   19  H   UNL     1      46.163 -27.465  -4.661  1.00  0.00     0.160 HD
HETATM   20  H   UNL     1      44.470 -27.411  -4.514  1.00  0.00     0.160 HD
HETATM   21  H   UNL     1      47.287 -27.695  -2.644  1.00  0.00     0.165 HD
ENDBRANCH   1  15
BRANCH   1  22
HETATM   22  C   UNL     1      46.545 -28.486   0.023  1.00  0.00     0.134 C 
BRANCH  22  23
HETATM   23  C   UNL     1      45.564 -29.097   0.999  1.00  0.00     0.238 C 
HETATM   24  N   UNL     1      44.430 -29.681   0.476  1.00  0.00    -0.267 N 
HETATM   25  H   UNL     1      43.967 -29.287  -0.351  1.00  0.00     0.190 HD
HETATM   26  O   UNL     1      45.840 -29.176   2.200  1.00  0.00    -0.272 OA
BRANCH  24  27
HETATM   27  N   UNL     1      43.555 -30.263   1.410  1.00  0.00    -0.262 N 
HETATM   28  C   UNL     1      42.301 -29.724   1.626  1.00  0.00     0.293 C 
HETATM   29  O   UNL     1      41.940 -28.658   1.128  1.00  0.00    -0.264 OA
HETATM   30  H   UNL     1      43.793 -31.191   1.757  1.00  0.00     0.190 HD
BRANCH  28  31
HETATM   31  C   UNL     1      41.462 -30.538   2.480  1.00  0.00     0.144 A 
HETATM   32  O   UNL     1      41.361 -30.237   3.815  1.00  0.00    -0.317 OA
HETATM   33  C   UNL     1      40.537 -31.159   4.375  1.00  0.00     0.143 A 
HETATM   34  C   UNL     1      40.096 -32.050   3.426  1.00  0.00     0.027 A 
HETATM   35  C   UNL     1      40.691 -31.652   2.205  1.00  0.00     0.045 A 
ENDBRANCH  28  31
ENDBRANCH  24  27
ENDBRANCH  22  23
ENDBRANCH   1  22
TORSDOF 8
ENDMDL
MODEL 10
REMARK VINA RESULT:      -7.5      5.904     12.670
REMARK  8 active torsions:
REMARK  status: ('A' for Active; 'I' for Inactive)
REMARK    1  A    between atoms: C_4  and  O_5 
REMARK    2  A    between atoms: O_5  and  C_6 
REMARK    3  A    between atoms: C_8  and  C_9 
REMARK    4  A    between atoms: C_9  and  N_10 
REMARK    5  A    between atoms: C_9  and  C_14 
REMARK       I    between atoms: N_10  and  C_11 
REMARK       I    between atoms: C_11  and  N_12 
REMARK    6  A    between atoms: C_14  and  C_15 
REMARK       I    between atoms: C_15  and  N_16 
REMARK    7  A    between atoms: N_16  and  N_17 
REMARK       I    between atoms: N_17  and  C_18 
REMARK    8  A    between atoms: C_18  and  C_19 
ROOT
HETATM    1  C   UNL     1      41.218  -9.240  13.085  1.00  0.00     0.128 C 
ENDROOT
BRANCH   1   2
HETATM    2  C   UNL     1      41.139  -8.118  14.130  1.00  0.00    -0.032 A 
HETATM    3  C   UNL     1      40.781  -6.799  13.792  1.00  0.00     0.046 A 
HETATM    4  C   UNL     1      40.681  -5.795  14.762  1.00  0.00     0.076 A 
HETATM    5  C   UNL     1      40.930  -6.097  16.099  1.00  0.00     0.037 A 
HETATM    6  C   UNL     1      41.337  -7.383  16.451  1.00  0.00     0.003 A 
HETATM    7  C   UNL     1      41.455  -8.376  15.475  1.00  0.00     0.009 A 
BRANCH   4   8
HETATM    8  O   UNL     1      40.260  -4.567  14.296  1.00  0.00    -0.311 OA
BRANCH   8   9
HETATM    9  C   UNL     1      41.190  -3.583  14.072  1.00  0.00     0.076 A 
HETATM   10  C   UNL     1      41.424  -2.548  14.981  1.00  0.00     0.037 A 
HETATM   11  C   UNL     1      42.415  -1.603  14.713  1.00  0.00     0.003 A 
HETATM   12  C   UNL     1      43.188  -1.709  13.555  1.00  0.00     0.000 A 
HETATM   13  C   UNL     1      42.975  -2.763  12.666  1.00  0.00     0.003 A 
HETATM   14  C   UNL     1      41.980  -3.704  12.929  1.00  0.00     0.037 A 
ENDBRANCH   8   9
ENDBRANCH   4   8
ENDBRANCH   1   2
BRANCH   1  15
HETATM   15  N   UNL     1      40.205 -10.261  13.333  1.00  0.00    -0.334 N 
HETATM   16  C   UNL     1      39.419 -10.748  12.339  1.00  0.00     0.314 C 
HETATM   17  N   UNL     1      38.568 -11.710  12.765  1.00  0.00    -0.352 N 
HETATM   18  O   UNL     1      39.472 -10.387  11.173  1.00  0.00    -0.248 OA
HETATM   19  H   UNL     1      38.170 -11.601  13.686  1.00  0.00     0.160 HD
HETATM   20  H   UNL     1      37.910 -12.008  12.055  1.00  0.00     0.160 HD
HETATM   21  H   UNL     1      40.316 -10.848  14.149  1.00  0.00     0.165 HD
ENDBRANCH   1  15
BRANCH   1  22
HETATM   22  C   UNL     1      42.622  -9.863  13.055  1.00  0.00     0.134 C 
BRANCH  22  23
HETATM   23  C   UNL     1      43.119 -10.434  11.745  1.00  0.00     0.238 C 
HETATM   24  N   UNL     1      42.561  -9.939  10.586  1.00  0.00    -0.267 N 
HETATM   25  H   UNL     1      41.570  -9.673  10.548  1.00  0.00     0.190 HD
HETATM   26  O   UNL     1      44.072 -11.218  11.723  1.00  0.00    -0.272 OA
BRANCH  24  27
HETATM   27  N   UNL     1      43.066 -10.472   9.387  1.00  0.00    -0.262 N 
HETATM   28  C   UNL     1      43.723  -9.662   8.481  1.00  0.00     0.293 C 
HETATM   29  O   UNL     1      43.786  -8.440   8.604  1.00  0.00    -0.264 OA
HETATM   30  H   UNL     1      43.111 -11.488   9.311  1.00  0.00     0.190 HD
BRANCH  28  31
HETATM   31  C   UNL     1      44.333 -10.393   7.390  1.00  0.00     0.144 A 
HETATM   32  O   UNL     1      43.562 -10.790   6.326  1.00  0.00    -0.317 OA
HETATM   33  C   UNL     1      44.372 -11.462   5.470  1.00  0.00     0.143 A 
HETATM   34  C   UNL     1      45.658 -11.505   5.955  1.00  0.00     0.027 A 
HETATM   35  C   UNL     1      45.634 -10.817   7.192  1.00  0.00     0.045 A 
ENDBRANCH  28  31
ENDBRANCH  24  27
ENDBRANCH  22  23
ENDBRANCH   1  22
TORSDOF 8
ENDMDL
