MODEL 1
REMARK VINA RESULT:      -8.9      0.000      0.000
REMARK  6 active torsions:
REMARK  status: ('A' for Active; 'I' for Inactive)
REMARK    1  A    between atoms: C_4  and  O_5 
REMARK    2  A    between atoms: O_5  and  C_6 
REMARK    3  A    between atoms: C_6  and  C_7 
REMARK       I    between atoms: C_7  and  N_8 
REMARK    4  A    between atoms: N_8  and  N_9 
REMARK       I    between atoms: N_9  and  C_10 
REMARK    5  A    between atoms: C_10  and  C_11 
REMARK    6  A    between atoms: C_12  and  C_13 
ROOT
HETATM    1  N   UNL     1      43.438 -12.019   5.904  1.00  0.00    -0.263 N 
HETATM    2  C   UNL     1      44.011 -12.168   7.154  1.00  0.00     0.274 C 
HETATM    3  O   UNL     1      43.721 -13.114   7.885  1.00  0.00    -0.266 OA
HETATM    4  H   UNL     1      43.908 -11.451   5.199  1.00  0.00     0.190 HD
ENDROOT
BRANCH   1   5
HETATM    5  N   UNL     1      42.693 -13.102   5.396  1.00  0.00    -0.265 N 
HETATM    6  C   UNL     1      42.860 -13.395   4.052  1.00  0.00     0.260 C 
HETATM    7  O   UNL     1      43.512 -12.665   3.307  1.00  0.00    -0.269 OA
HETATM    8  H   UNL     1      42.470 -13.832   6.073  1.00  0.00     0.190 HD
BRANCH   6   9
HETATM    9  C   UNL     1      42.149 -14.668   3.602  1.00  0.00     0.280 C 
BRANCH   9  10
HETATM   10  O   UNL     1      43.018 -15.376   2.720  1.00  0.00    -0.342 OA
BRANCH  10  11
HETATM   11  C   UNL     1      43.300 -16.642   3.150  1.00  0.00     0.069 A 
HETATM   12  C   UNL     1      43.204 -17.762   2.323  1.00  0.00     0.043 A 
HETATM   13  C   UNL     1      43.563 -19.027   2.807  1.00  0.00    -0.059 A 
HETATM   14  C   UNL     1      43.507 -20.231   1.914  1.00  0.00     0.048 C 
HETATM   15  C   UNL     1      44.050 -19.145   4.115  1.00  0.00     0.007 A 
HETATM   16  C   UNL     1      44.167 -18.018   4.932  1.00  0.00     0.003 A 
HETATM   17  C   UNL     1      43.800 -16.766   4.444  1.00  0.00     0.037 A 
ENDBRANCH  10  11
ENDBRANCH   9  10
ENDBRANCH   6   9
ENDBRANCH   1   5
BRANCH   2  18
HETATM   18  C   UNL     1      44.974 -11.138   7.508  1.00  0.00     0.081 A 
HETATM   19  C   UNL     1      44.919 -10.180   8.571  1.00  0.00     0.104 A 
HETATM   20  N   UNL     1      45.977  -9.350   8.522  1.00  0.00    -0.174 NA
HETATM   21  N   UNL     1      46.703  -9.780   7.486  1.00  0.00    -0.288 N 
HETATM   22  H   UNL     1      47.564  -9.288   7.267  1.00  0.00     0.188 HD
HETATM   23  C   UNL     1      46.154 -10.847   6.844  1.00  0.00     0.128 A 
BRANCH  19  24
HETATM   24  C   UNL     1      43.926 -10.029   9.635  1.00  0.00    -0.004 A 
HETATM   25  C   UNL     1      42.686  -9.425   9.388  1.00  0.00     0.015 A 
HETATM   26  C   UNL     1      41.738  -9.305  10.410  1.00  0.00     0.024 A 
HETATM   27  C   UNL     1      42.024  -9.797  11.681  1.00  0.00     0.034 A 
HETATM   28 CL   UNL     1      40.856  -9.651  12.936  1.00  0.00    -0.084 Cl
HETATM   29  C   UNL     1      43.247 -10.412  11.941  1.00  0.00     0.024 A 
HETATM   30  C   UNL     1      44.192 -10.532  10.918  1.00  0.00     0.015 A 
ENDBRANCH  19  24
ENDBRANCH   2  18
TORSDOF 6
ENDMDL
MODEL 2
REMARK VINA RESULT:      -8.6      5.177      8.487
REMARK  6 active torsions:
REMARK  status: ('A' for Active; 'I' for Inactive)
REMARK    1  A    between atoms: C_4  and  O_5 
REMARK    2  A    between atoms: O_5  and  C_6 
REMARK    3  A    between atoms: C_6  and  C_7 
REMARK       I    between atoms: C_7  and  N_8 
REMARK    4  A    between atoms: N_8  and  N_9 
REMARK       I    between atoms: N_9  and  C_10 
REMARK    5  A    between atoms: C_10  and  C_11 
REMARK    6  A    between atoms: C_12  and  C_13 
ROOT
HETATM    1  N   UNL     1      41.027 -14.436   4.734  1.00  0.00    -0.263 N 
HETATM    2  C   UNL     1      42.391 -14.515   4.950  1.00  0.00     0.274 C 
HETATM    3  O   UNL     1      43.191 -13.918   4.230  1.00  0.00    -0.266 OA
HETATM    4  H   UNL     1      40.384 -14.645   5.497  1.00  0.00     0.190 HD
ENDROOT
BRANCH   1   5
HETATM    5  N   UNL     1      40.568 -13.469   3.817  1.00  0.00    -0.265 N 
HETATM    6  C   UNL     1      39.911 -13.941   2.692  1.00  0.00     0.260 C 
HETATM    7  O   UNL     1      39.855 -15.143   2.433  1.00  0.00    -0.269 OA
HETATM    8  H   UNL     1      40.338 -12.561   4.221  1.00  0.00     0.190 HD
BRANCH   6   9
HETATM    9  C   UNL     1      39.306 -12.845   1.820  1.00  0.00     0.280 C 
BRANCH   9  10
HETATM   10  O   UNL     1      40.050 -12.779   0.606  1.00  0.00    -0.342 OA
BRANCH  10  11
HETATM   11  C   UNL     1      39.309 -13.107  -0.494  1.00  0.00     0.069 A 
HETATM   12  C   UNL     1      38.354 -12.251  -1.046  1.00  0.00     0.043 A 
HETATM   13  C   UNL     1      37.666 -12.621  -2.210  1.00  0.00    -0.059 A 
HETATM   14  C   UNL     1      36.672 -11.691  -2.838  1.00  0.00     0.048 C 
HETATM   15  C   UNL     1      37.973 -13.842  -2.826  1.00  0.00     0.007 A 
HETATM   16  C   UNL     1      38.945 -14.684  -2.282  1.00  0.00     0.003 A 
HETATM   17  C   UNL     1      39.618 -14.311  -1.122  1.00  0.00     0.037 A 
ENDBRANCH  10  11
ENDBRANCH   9  10
ENDBRANCH   6   9
ENDBRANCH   1   5
BRANCH   2  18
HETATM   18  C   UNL     1      42.780 -15.335   6.086  1.00  0.00     0.081 A 
HETATM   19  C   UNL     1      43.161 -16.715   6.112  1.00  0.00     0.104 A 
HETATM   20  N   UNL     1      43.383 -17.125   7.374  1.00  0.00    -0.174 NA
HETATM   21  N   UNL     1      43.184 -16.041   8.128  1.00  0.00    -0.288 N 
HETATM   22  H   UNL     1      43.304 -16.127   9.133  1.00  0.00     0.188 HD
HETATM   23  C   UNL     1      42.825 -14.941   7.412  1.00  0.00     0.128 A 
BRANCH  19  24
HETATM   24  C   UNL     1      43.342 -17.650   5.002  1.00  0.00    -0.004 A 
HETATM   25  C   UNL     1      42.983 -17.300   3.693  1.00  0.00     0.015 A 
HETATM   26  C   UNL     1      43.181 -18.197   2.638  1.00  0.00     0.024 A 
HETATM   27  C   UNL     1      43.746 -19.445   2.887  1.00  0.00     0.034 A 
HETATM   28 CL   UNL     1      43.990 -20.546   1.588  1.00  0.00    -0.084 Cl
HETATM   29  C   UNL     1      44.120 -19.805   4.180  1.00  0.00     0.024 A 
HETATM   30  C   UNL     1      43.923 -18.907   5.233  1.00  0.00     0.015 A 
ENDBRANCH  19  24
ENDBRANCH   2  18
TORSDOF 6
ENDMDL
MODEL 3
REMARK VINA RESULT:      -8.5      5.183      8.249
REMARK  6 active torsions:
REMARK  status: ('A' for Active; 'I' for Inactive)
REMARK    1  A    between atoms: C_4  and  O_5 
REMARK    2  A    between atoms: O_5  and  C_6 
REMARK    3  A    between atoms: C_6  and  C_7 
REMARK       I    between atoms: C_7  and  N_8 
REMARK    4  A    between atoms: N_8  and  N_9 
REMARK       I    between atoms: N_9  and  C_10 
REMARK    5  A    between atoms: C_10  and  C_11 
REMARK    6  A    between atoms: C_12  and  C_13 
ROOT
HETATM    1  N   UNL     1      40.990 -14.462   4.763  1.00  0.00    -0.263 N 
HETATM    2  C   UNL     1      42.360 -14.552   4.936  1.00  0.00     0.274 C 
HETATM    3  O   UNL     1      43.141 -13.974   4.181  1.00  0.00    -0.266 OA
HETATM    4  H   UNL     1      40.370 -14.654   5.550  1.00  0.00     0.190 HD
ENDROOT
BRANCH   1   5
HETATM    5  N   UNL     1      40.510 -13.505   3.845  1.00  0.00    -0.265 N 
HETATM    6  C   UNL     1      39.958 -13.992   2.672  1.00  0.00     0.260 C 
HETATM    7  O   UNL     1      40.010 -15.186   2.379  1.00  0.00    -0.269 OA
HETATM    8  H   UNL     1      40.188 -12.630   4.259  1.00  0.00     0.190 HD
BRANCH   6   9
HETATM    9  C   UNL     1      39.320 -12.919   1.795  1.00  0.00     0.280 C 
BRANCH   9  10
HETATM   10  O   UNL     1      40.356 -12.266   1.065  1.00  0.00    -0.342 OA
BRANCH  10  11
HETATM   11  C   UNL     1      40.376 -12.607  -0.258  1.00  0.00     0.069 A 
HETATM   12  C   UNL     1      39.625 -13.663  -0.778  1.00  0.00     0.043 A 
HETATM   13  C   UNL     1      39.643 -13.927  -2.155  1.00  0.00    -0.059 A 
HETATM   14  C   UNL     1      38.805 -15.029  -2.732  1.00  0.00     0.048 C 
HETATM   15  C   UNL     1      40.395 -13.100  -2.999  1.00  0.00     0.007 A 
HETATM   16  C   UNL     1      41.126 -12.032  -2.477  1.00  0.00     0.003 A 
HETATM   17  C   UNL     1      41.108 -11.781  -1.107  1.00  0.00     0.037 A 
ENDBRANCH  10  11
ENDBRANCH   9  10
ENDBRANCH   6   9
ENDBRANCH   1   5
BRANCH   2  18
HETATM   18  C   UNL     1      42.778 -15.357   6.072  1.00  0.00     0.081 A 
HETATM   19  C   UNL     1      43.195 -16.727   6.100  1.00  0.00     0.104 A 
HETATM   20  N   UNL     1      43.436 -17.127   7.362  1.00  0.00    -0.174 NA
HETATM   21  N   UNL     1      43.214 -16.045   8.113  1.00  0.00    -0.288 N 
HETATM   22  H   UNL     1      43.343 -16.125   9.117  1.00  0.00     0.188 HD
HETATM   23  C   UNL     1      42.821 -14.957   7.397  1.00  0.00     0.128 A 
BRANCH  19  24
HETATM   24  C   UNL     1      43.392 -17.661   4.991  1.00  0.00    -0.004 A 
HETATM   25  C   UNL     1      43.938 -18.934   5.204  1.00  0.00     0.015 A 
HETATM   26  C   UNL     1      44.102 -19.824   4.138  1.00  0.00     0.024 A 
HETATM   27  C   UNL     1      43.713 -19.447   2.855  1.00  0.00     0.034 A 
HETATM   28 CL   UNL     1      43.913 -20.544   1.545  1.00  0.00    -0.084 Cl
HETATM   29  C   UNL     1      43.156 -18.190   2.627  1.00  0.00     0.024 A 
HETATM   30  C   UNL     1      42.992 -17.302   3.694  1.00  0.00     0.015 A 
ENDBRANCH  19  24
ENDBRANCH   2  18
TORSDOF 6
ENDMDL
MODEL 4
REMARK VINA RESULT:      -8.5      1.197      1.902
REMARK  6 active torsions:
REMARK  status: ('A' for Active; 'I' for Inactive)
REMARK    1  A    between atoms: C_4  and  O_5 
REMARK    2  A    between atoms: O_5  and  C_6 
REMARK    3  A    between atoms: C_6  and  C_7 
REMARK       I    between atoms: C_7  and  N_8 
REMARK    4  A    between atoms: N_8  and  N_9 
REMARK       I    between atoms: N_9  and  C_10 
REMARK    5  A    between atoms: C_10  and  C_11 
REMARK    6  A    between atoms: C_12  and  C_13 
ROOT
HETATM    1  N   UNL     1      42.763 -11.476   6.871  1.00  0.00    -0.263 N 
HETATM    2  C   UNL     1      43.864 -11.945   7.566  1.00  0.00     0.274 C 
HETATM    3  O   UNL     1      43.924 -13.106   7.967  1.00  0.00    -0.266 OA
HETATM    4  H   UNL     1      42.856 -10.654   6.275  1.00  0.00     0.190 HD
ENDROOT
BRANCH   1   5
HETATM    5  N   UNL     1      41.817 -12.426   6.433  1.00  0.00    -0.265 N 
HETATM    6  C   UNL     1      41.936 -12.862   5.124  1.00  0.00     0.260 C 
HETATM    7  O   UNL     1      42.732 -12.347   4.340  1.00  0.00    -0.269 OA
HETATM    8  H   UNL     1      41.442 -13.034   7.162  1.00  0.00     0.190 HD
BRANCH   6   9
HETATM    9  C   UNL     1      40.984 -13.998   4.760  1.00  0.00     0.280 C 
BRANCH   9  10
HETATM   10  O   UNL     1      41.315 -14.454   3.450  1.00  0.00    -0.342 OA
BRANCH  10  11
HETATM   11  C   UNL     1      42.090 -15.579   3.455  1.00  0.00     0.069 A 
HETATM   12  C   UNL     1      42.477 -16.227   4.630  1.00  0.00     0.043 A 
HETATM   13  C   UNL     1      43.225 -17.411   4.567  1.00  0.00    -0.059 A 
HETATM   14  C   UNL     1      43.607 -18.140   5.820  1.00  0.00     0.048 C 
HETATM   15  C   UNL     1      43.548 -17.949   3.315  1.00  0.00     0.007 A 
HETATM   16  C   UNL     1      43.139 -17.310   2.142  1.00  0.00     0.003 A 
HETATM   17  C   UNL     1      42.402 -16.130   2.214  1.00  0.00     0.037 A 
ENDBRANCH  10  11
ENDBRANCH   9  10
ENDBRANCH   6   9
ENDBRANCH   1   5
BRANCH   2  18
HETATM   18  C   UNL     1      44.923 -10.966   7.757  1.00  0.00     0.081 A 
HETATM   19  C   UNL     1      45.092 -10.017   8.816  1.00  0.00     0.104 A 
HETATM   20  N   UNL     1      46.167  -9.240   8.594  1.00  0.00    -0.174 NA
HETATM   21  N   UNL     1      46.689  -9.694   7.452  1.00  0.00    -0.288 N 
HETATM   22  H   UNL     1      47.525  -9.243   7.094  1.00  0.00     0.188 HD
HETATM   23  C   UNL     1      45.990 -10.727   6.908  1.00  0.00     0.128 A 
BRANCH  19  24
HETATM   24  C   UNL     1      44.296  -9.828  10.030  1.00  0.00    -0.004 A 
HETATM   25  C   UNL     1      44.086 -10.882  10.929  1.00  0.00     0.015 A 
HETATM   26  C   UNL     1      43.340 -10.681  12.095  1.00  0.00     0.024 A 
HETATM   27  C   UNL     1      42.810  -9.423  12.371  1.00  0.00     0.034 A 
HETATM   28 CL   UNL     1      41.895  -9.177  13.807  1.00  0.00    -0.084 Cl
HETATM   29  C   UNL     1      43.021  -8.361  11.494  1.00  0.00     0.024 A 
HETATM   30  C   UNL     1      43.767  -8.564  10.329  1.00  0.00     0.015 A 
ENDBRANCH  19  24
ENDBRANCH   2  18
TORSDOF 6
ENDMDL
MODEL 5
REMARK VINA RESULT:      -8.4      1.755      2.466
REMARK  6 active torsions:
REMARK  status: ('A' for Active; 'I' for Inactive)
REMARK    1  A    between atoms: C_4  and  O_5 
REMARK    2  A    between atoms: O_5  and  C_6 
REMARK    3  A    between atoms: C_6  and  C_7 
REMARK       I    between atoms: C_7  and  N_8 
REMARK    4  A    between atoms: N_8  and  N_9 
REMARK       I    between atoms: N_9  and  C_10 
REMARK    5  A    between atoms: C_10  and  C_11 
REMARK    6  A    between atoms: C_12  and  C_13 
ROOT
HETATM    1  N   UNL     1      43.797 -12.824   7.418  1.00  0.00    -0.263 N 
HETATM    2  C   UNL     1      43.637 -11.476   7.147  1.00  0.00     0.274 C 
HETATM    3  O   UNL     1      42.673 -11.060   6.507  1.00  0.00    -0.266 OA
HETATM    4  H   UNL     1      44.386 -13.114   8.198  1.00  0.00     0.190 HD
ENDROOT
BRANCH   1   5
HETATM    5  N   UNL     1      42.708 -13.676   7.145  1.00  0.00    -0.265 N 
HETATM    6  C   UNL     1      43.007 -15.005   6.894  1.00  0.00     0.260 C 
HETATM    7  O   UNL     1      44.168 -15.396   6.774  1.00  0.00    -0.269 OA
HETATM    8  H   UNL     1      41.824 -13.405   7.577  1.00  0.00     0.190 HD
BRANCH   6   9
HETATM    9  C   UNL     1      41.780 -15.902   6.760  1.00  0.00     0.280 C 
BRANCH   9  10
HETATM   10  O   UNL     1      42.156 -17.064   6.023  1.00  0.00    -0.342 OA
BRANCH  10  11
HETATM   11  C   UNL     1      42.088 -16.885   4.670  1.00  0.00     0.069 A 
HETATM   12  C   UNL     1      41.004 -16.269   4.042  1.00  0.00     0.043 A 
HETATM   13  C   UNL     1      41.020 -16.062   2.655  1.00  0.00    -0.059 A 
HETATM   14  C   UNL     1      39.882 -15.361   1.975  1.00  0.00     0.048 C 
HETATM   15  C   UNL     1      42.147 -16.451   1.920  1.00  0.00     0.007 A 
HETATM   16  C   UNL     1      43.238 -17.045   2.556  1.00  0.00     0.003 A 
HETATM   17  C   UNL     1      43.211 -17.253   3.933  1.00  0.00     0.037 A 
ENDBRANCH  10  11
ENDBRANCH   9  10
ENDBRANCH   6   9
ENDBRANCH   1   5
BRANCH   2  18
HETATM   18  C   UNL     1      44.679 -10.620   7.689  1.00  0.00     0.081 A 
HETATM   19  C   UNL     1      44.690  -9.879   8.915  1.00  0.00     0.104 A 
HETATM   20  N   UNL     1      45.816  -9.151   9.023  1.00  0.00    -0.174 NA
HETATM   21  N   UNL     1      46.517  -9.437   7.924  1.00  0.00    -0.288 N 
HETATM   22  H   UNL     1      47.420  -8.989   7.801  1.00  0.00     0.188 HD
HETATM   23  C   UNL     1      45.890 -10.311   7.092  1.00  0.00     0.128 A 
BRANCH  19  24
HETATM   24  C   UNL     1      43.697  -9.847   9.989  1.00  0.00    -0.004 A 
HETATM   25  C   UNL     1      42.467  -9.197   9.820  1.00  0.00     0.015 A 
HETATM   26  C   UNL     1      41.519  -9.191  10.849  1.00  0.00     0.024 A 
HETATM   27  C   UNL     1      41.794  -9.844  12.048  1.00  0.00     0.034 A 
HETATM   28 CL   UNL     1      40.626  -9.838  13.311  1.00  0.00    -0.084 Cl
HETATM   29  C   UNL     1      43.007 -10.506  12.228  1.00  0.00     0.024 A 
HETATM   30  C   UNL     1      43.952 -10.511  11.199  1.00  0.00     0.015 A 
ENDBRANCH  19  24
ENDBRANCH   2  18
TORSDOF 6
ENDMDL
MODEL 6
REMARK VINA RESULT:      -8.4      3.278      9.114
REMARK  6 active torsions:
REMARK  status: ('A' for Active; 'I' for Inactive)
REMARK    1  A    between atoms: C_4  and  O_5 
REMARK    2  A    between atoms: O_5  and  C_6 
REMARK    3  A    between atoms: C_6  and  C_7 
REMARK       I    between atoms: C_7  and  N_8 
REMARK    4  A    between atoms: N_8  and  N_9 
REMARK       I    between atoms: N_9  and  C_10 
REMARK    5  A    between atoms: C_10  and  C_11 
REMARK    6  A    between atoms: C_12  and  C_13 
ROOT
HETATM    1  N   UNL     1      42.489 -12.597   4.613  1.00  0.00    -0.263 N 
HETATM    2  C   UNL     1      41.208 -12.948   4.999  1.00  0.00     0.274 C 
HETATM    3  O   UNL     1      40.797 -12.728   6.137  1.00  0.00    -0.266 OA
HETATM    4  H   UNL     1      42.702 -12.478   3.623  1.00  0.00     0.190 HD
ENDROOT
BRANCH   1   5
HETATM    5  N   UNL     1      43.227 -11.770   5.484  1.00  0.00    -0.265 N 
HETATM    6  C   UNL     1      44.064 -12.407   6.385  1.00  0.00     0.260 C 
HETATM    7  O   UNL     1      44.060 -13.630   6.519  1.00  0.00    -0.269 OA
HETATM    8  H   UNL     1      43.449 -10.843   5.119  1.00  0.00     0.190 HD
BRANCH   6   9
HETATM    9  C   UNL     1      44.947 -11.457   7.190  1.00  0.00     0.280 C 
BRANCH   9  10
HETATM   10  O   UNL     1      44.568 -11.550   8.561  1.00  0.00    -0.342 OA
BRANCH  10  11
HETATM   11  C   UNL     1      44.185 -10.351   9.092  1.00  0.00     0.069 A 
HETATM   12  C   UNL     1      43.848 -10.191  10.438  1.00  0.00     0.043 A 
HETATM   13  C   UNL     1      43.519  -8.922  10.935  1.00  0.00    -0.059 A 
HETATM   14  C   UNL     1      43.201  -8.730  12.388  1.00  0.00     0.048 C 
HETATM   15  C   UNL     1      43.566  -7.818  10.074  1.00  0.00     0.007 A 
HETATM   16  C   UNL     1      43.925  -7.979   8.734  1.00  0.00     0.003 A 
HETATM   17  C   UNL     1      44.243  -9.245   8.247  1.00  0.00     0.037 A 
ENDBRANCH  10  11
ENDBRANCH   9  10
ENDBRANCH   6   9
ENDBRANCH   1   5
BRANCH   2  18
HETATM   18  C   UNL     1      40.408 -13.572   3.957  1.00  0.00     0.081 A 
HETATM   19  C   UNL     1      40.600 -14.835   3.309  1.00  0.00     0.104 A 
HETATM   20  N   UNL     1      39.680 -15.022   2.345  1.00  0.00    -0.174 NA
HETATM   21  N   UNL     1      38.906 -13.935   2.394  1.00  0.00    -0.288 N 
HETATM   22  H   UNL     1      38.130 -13.869   1.742  1.00  0.00     0.188 HD
HETATM   23  C   UNL     1      39.291 -13.036   3.340  1.00  0.00     0.128 A 
BRANCH  19  24
HETATM   24  C   UNL     1      41.597 -15.873   3.573  1.00  0.00    -0.004 A 
HETATM   25  C   UNL     1      42.259 -16.525   2.524  1.00  0.00     0.015 A 
HETATM   26  C   UNL     1      43.224 -17.501   2.792  1.00  0.00     0.024 A 
HETATM   27  C   UNL     1      43.538 -17.822   4.110  1.00  0.00     0.034 A 
HETATM   28 CL   UNL     1      44.728 -19.021   4.438  1.00  0.00    -0.084 Cl
HETATM   29  C   UNL     1      42.900 -17.173   5.166  1.00  0.00     0.024 A 
HETATM   30  C   UNL     1      41.936 -16.198   4.896  1.00  0.00     0.015 A 
ENDBRANCH  19  24
ENDBRANCH   2  18
TORSDOF 6
ENDMDL
MODEL 7
REMARK VINA RESULT:      -8.3      4.199      6.180
REMARK  6 active torsions:
REMARK  status: ('A' for Active; 'I' for Inactive)
REMARK    1  A    between atoms: C_4  and  O_5 
REMARK    2  A    between atoms: O_5  and  C_6 
REMARK    3  A    between atoms: C_6  and  C_7 
REMARK       I    between atoms: C_7  and  N_8 
REMARK    4  A    between atoms: N_8  and  N_9 
REMARK       I    between atoms: N_9  and  C_10 
REMARK    5  A    between atoms: C_10  and  C_11 
REMARK    6  A    between atoms: C_12  and  C_13 
ROOT
HETATM    1  N   UNL     1      42.438 -13.606   7.057  1.00  0.00    -0.263 N 
HETATM    2  C   UNL     1      42.786 -12.733   6.042  1.00  0.00     0.274 C 
HETATM    3  O   UNL     1      43.807 -12.897   5.376  1.00  0.00    -0.266 OA
HETATM    4  H   UNL     1      41.467 -13.658   7.366  1.00  0.00     0.190 HD
ENDROOT
BRANCH   1   5
HETATM    5  N   UNL     1      43.158 -14.814   7.152  1.00  0.00    -0.265 N 
HETATM    6  C   UNL     1      42.414 -15.983   7.161  1.00  0.00     0.260 C 
HETATM    7  O   UNL     1      41.185 -15.966   7.225  1.00  0.00    -0.269 OA
HETATM    8  H   UNL     1      44.101 -14.790   6.763  1.00  0.00     0.190 HD
BRANCH   6   9
HETATM    9  C   UNL     1      43.255 -17.254   7.109  1.00  0.00     0.280 C 
BRANCH   9  10
HETATM   10  O   UNL     1      44.304 -17.057   6.163  1.00  0.00    -0.342 OA
BRANCH  10  11
HETATM   11  C   UNL     1      43.977 -17.481   4.906  1.00  0.00     0.069 A 
HETATM   12  C   UNL     1      43.602 -16.604   3.885  1.00  0.00     0.043 A 
HETATM   13  C   UNL     1      43.334 -17.095   2.600  1.00  0.00    -0.059 A 
HETATM   14  C   UNL     1      42.976 -16.159   1.484  1.00  0.00     0.048 C 
HETATM   15  C   UNL     1      43.480 -18.466   2.348  1.00  0.00     0.007 A 
HETATM   16  C   UNL     1      43.877 -19.335   3.366  1.00  0.00     0.003 A 
HETATM   17  C   UNL     1      44.134 -18.839   4.642  1.00  0.00     0.037 A 
ENDBRANCH  10  11
ENDBRANCH   9  10
ENDBRANCH   6   9
ENDBRANCH   1   5
BRANCH   2  18
HETATM   18  C   UNL     1      41.848 -11.642   5.830  1.00  0.00     0.081 A 
HETATM   19  C   UNL     1      40.986 -11.400   4.713  1.00  0.00     0.104 A 
HETATM   20  N   UNL     1      40.319 -10.242   4.867  1.00  0.00    -0.174 NA
HETATM   21  N   UNL     1      40.713  -9.773   6.053  1.00  0.00    -0.288 N 
HETATM   22  H   UNL     1      40.323  -8.893   6.375  1.00  0.00     0.188 HD
HETATM   23  C   UNL     1      41.624 -10.570   6.676  1.00  0.00     0.128 A 
BRANCH  19  24
HETATM   24  C   UNL     1      40.753 -12.220   3.524  1.00  0.00    -0.004 A 
HETATM   25  C   UNL     1      39.746 -13.195   3.502  1.00  0.00     0.015 A 
HETATM   26  C   UNL     1      39.522 -13.957   2.351  1.00  0.00     0.024 A 
HETATM   27  C   UNL     1      40.298 -13.743   1.215  1.00  0.00     0.034 A 
HETATM   28 CL   UNL     1      40.019 -14.680  -0.201  1.00  0.00    -0.084 Cl
HETATM   29  C   UNL     1      41.295 -12.769   1.215  1.00  0.00     0.024 A 
HETATM   30  C   UNL     1      41.517 -12.007   2.366  1.00  0.00     0.015 A 
ENDBRANCH  19  24
ENDBRANCH   2  18
TORSDOF 6
ENDMDL
MODEL 8
REMARK VINA RESULT:      -8.2      7.149      9.597
REMARK  6 active torsions:
REMARK  status: ('A' for Active; 'I' for Inactive)
REMARK    1  A    between atoms: C_4  and  O_5 
REMARK    2  A    between atoms: O_5  and  C_6 
REMARK    3  A    between atoms: C_6  and  C_7 
REMARK       I    between atoms: C_7  and  N_8 
REMARK    4  A    between atoms: N_8  and  N_9 
REMARK       I    between atoms: N_9  and  C_10 
REMARK    5  A    between atoms: C_10  and  C_11 
REMARK    6  A    between atoms: C_12  and  C_13 
ROOT
HETATM    1  N   UNL     1      39.189 -13.664  -0.072  1.00  0.00    -0.263 N 
HETATM    2  C   UNL     1      39.349 -13.606  -1.445  1.00  0.00     0.274 C 
HETATM    3  O   UNL     1      40.218 -14.262  -2.018  1.00  0.00    -0.266 OA
HETATM    4  H   UNL     1      38.296 -13.396   0.343  1.00  0.00     0.190 HD
ENDROOT
BRANCH   1   5
HETATM    5  N   UNL     1      39.892 -14.668   0.624  1.00  0.00    -0.265 N 
HETATM    6  C   UNL     1      39.902 -14.576   2.007  1.00  0.00     0.260 C 
HETATM    7  O   UNL     1      39.444 -13.595   2.593  1.00  0.00    -0.269 OA
HETATM    8  H   UNL     1      39.938 -15.572   0.154  1.00  0.00     0.190 HD
BRANCH   6   9
HETATM    9  C   UNL     1      40.544 -15.771   2.704  1.00  0.00     0.280 C 
BRANCH   9  10
HETATM   10  O   UNL     1      41.823 -15.996   2.115  1.00  0.00    -0.342 OA
BRANCH  10  11
HETATM   11  C   UNL     1      42.523 -16.999   2.724  1.00  0.00     0.069 A 
HETATM   12  C   UNL     1      42.793 -18.220   2.102  1.00  0.00     0.043 A 
HETATM   13  C   UNL     1      43.566 -19.188   2.758  1.00  0.00    -0.059 A 
HETATM   14  C   UNL     1      43.900 -20.485   2.083  1.00  0.00     0.048 C 
HETATM   15  C   UNL     1      44.088 -18.901   4.026  1.00  0.00     0.007 A 
HETATM   16  C   UNL     1      43.835 -17.670   4.634  1.00  0.00     0.003 A 
HETATM   17  C   UNL     1      43.060 -16.716   3.978  1.00  0.00     0.037 A 
ENDBRANCH  10  11
ENDBRANCH   9  10
ENDBRANCH   6   9
ENDBRANCH   1   5
BRANCH   2  18
HETATM   18  C   UNL     1      38.408 -12.735  -2.130  1.00  0.00     0.081 A 
HETATM   19  C   UNL     1      38.522 -11.338  -2.421  1.00  0.00     0.104 A 
HETATM   20  N   UNL     1      37.403 -10.880  -3.012  1.00  0.00    -0.174 NA
HETATM   21  N   UNL     1      36.613 -11.950  -3.127  1.00  0.00    -0.288 N 
HETATM   22  H   UNL     1      35.701 -11.829  -3.557  1.00  0.00     0.188 HD
HETATM   23  C   UNL     1      37.162 -13.088  -2.620  1.00  0.00     0.128 A 
BRANCH  19  24
HETATM   24  C   UNL     1      39.642 -10.427  -2.183  1.00  0.00    -0.004 A 
HETATM   25  C   UNL     1      40.082 -10.144  -0.883  1.00  0.00     0.015 A 
HETATM   26  C   UNL     1      41.168  -9.288  -0.672  1.00  0.00     0.024 A 
HETATM   27  C   UNL     1      41.823  -8.718  -1.760  1.00  0.00     0.034 A 
HETATM   28 CL   UNL     1      43.160  -7.667  -1.499  1.00  0.00    -0.084 Cl
HETATM   29  C   UNL     1      41.407  -8.999  -3.060  1.00  0.00     0.024 A 
HETATM   30  C   UNL     1      40.323  -9.856  -3.269  1.00  0.00     0.015 A 
ENDBRANCH  19  24
ENDBRANCH   2  18
TORSDOF 6
ENDMDL
MODEL 9
REMARK VINA RESULT:      -8.0      3.174      4.225
REMARK  6 active torsions:
REMARK  status: ('A' for Active; 'I' for Inactive)
REMARK    1  A    between atoms: C_4  and  O_5 
REMARK    2  A    between atoms: O_5  and  C_6 
REMARK    3  A    between atoms: C_6  and  C_7 
REMARK       I    between atoms: C_7  and  N_8 
REMARK    4  A    between atoms: N_8  and  N_9 
REMARK       I    between atoms: N_9  and  C_10 
REMARK    5  A    between atoms: C_10  and  C_11 
REMARK    6  A    between atoms: C_12  and  C_13 
ROOT
HETATM    1  N   UNL     1      39.575 -13.301   4.493  1.00  0.00    -0.263 N 
HETATM    2  C   UNL     1      40.121 -12.891   5.696  1.00  0.00     0.274 C 
HETATM    3  O   UNL     1      40.776 -13.659   6.399  1.00  0.00    -0.266 OA
HETATM    4  H   UNL     1      39.333 -12.605   3.787  1.00  0.00     0.190 HD
ENDROOT
BRANCH   1   5
HETATM    5  N   UNL     1      39.986 -14.549   3.983  1.00  0.00    -0.265 N 
HETATM    6  C   UNL     1      40.215 -14.618   2.618  1.00  0.00     0.260 C 
HETATM    7  O   UNL     1      39.938 -13.683   1.868  1.00  0.00    -0.269 OA
HETATM    8  H   UNL     1      40.504 -15.136   4.637  1.00  0.00     0.190 HD
BRANCH   6   9
HETATM    9  C   UNL     1      40.804 -15.947   2.155  1.00  0.00     0.280 C 
BRANCH   9  10
HETATM   10  O   UNL     1      42.225 -15.846   2.203  1.00  0.00    -0.342 OA
BRANCH  10  11
HETATM   11  C   UNL     1      42.820 -16.933   2.778  1.00  0.00     0.069 A 
HETATM   12  C   UNL     1      42.934 -18.165   2.130  1.00  0.00     0.043 A 
HETATM   13  C   UNL     1      43.607 -19.226   2.751  1.00  0.00    -0.059 A 
HETATM   14  C   UNL     1      43.777 -20.539   2.047  1.00  0.00     0.048 C 
HETATM   15  C   UNL     1      44.187 -19.024   4.010  1.00  0.00     0.007 A 
HETATM   16  C   UNL     1      44.089 -17.784   4.644  1.00  0.00     0.003 A 
HETATM   17  C   UNL     1      43.413 -16.737   4.023  1.00  0.00     0.037 A 
ENDBRANCH  10  11
ENDBRANCH   9  10
ENDBRANCH   6   9
ENDBRANCH   1   5
BRANCH   2  18
HETATM   18  C   UNL     1      39.868 -11.500   6.036  1.00  0.00     0.081 A 
HETATM   19  C   UNL     1      40.783 -10.511   6.522  1.00  0.00     0.104 A 
HETATM   20  N   UNL     1      40.144  -9.356   6.783  1.00  0.00    -0.174 NA
HETATM   21  N   UNL     1      38.872  -9.584   6.445  1.00  0.00    -0.288 N 
HETATM   22  H   UNL     1      38.203  -8.829   6.561  1.00  0.00     0.188 HD
HETATM   23  C   UNL     1      38.649 -10.846   5.990  1.00  0.00     0.128 A 
BRANCH  19  24
HETATM   24  C   UNL     1      42.228 -10.605   6.731  1.00  0.00    -0.004 A 
HETATM   25  C   UNL     1      43.069 -11.142   5.747  1.00  0.00     0.015 A 
HETATM   26  C   UNL     1      44.451 -11.207   5.952  1.00  0.00     0.024 A 
HETATM   27  C   UNL     1      44.999 -10.727   7.139  1.00  0.00     0.034 A 
HETATM   28 CL   UNL     1      46.699 -10.805   7.389  1.00  0.00    -0.084 Cl
HETATM   29  C   UNL     1      44.179 -10.178   8.123  1.00  0.00     0.024 A 
HETATM   30  C   UNL     1      42.798 -10.113   7.915  1.00  0.00     0.015 A 
ENDBRANCH  19  24
ENDBRANCH   2  18
TORSDOF 6
ENDMDL
MODEL 10
REMARK VINA RESULT:      -8.0      3.647      9.527
REMARK  6 active torsions:
REMARK  status: ('A' for Active; 'I' for Inactive)
REMARK    1  A    between atoms: C_4  and  O_5 
REMARK    2  A    between atoms: O_5  and  C_6 
REMARK    3  A    between atoms: C_6  and  C_7 
REMARK       I    between atoms: C_7  and  N_8 
REMARK    4  A    between atoms: N_8  and  N_9 
REMARK       I    between atoms: N_9  and  C_10 
REMARK    5  A    between atoms: C_10  and  C_11 
REMARK    6  A    between atoms: C_12  and  C_13 
ROOT
HETATM    1  N   UNL     1      43.687 -14.126   6.717  1.00  0.00    -0.263 N 
HETATM    2  C   UNL     1      42.743 -15.071   6.355  1.00  0.00     0.274 C 
HETATM    3  O   UNL     1      41.546 -14.902   6.581  1.00  0.00    -0.266 OA
HETATM    4  H   UNL     1      44.593 -14.114   6.248  1.00  0.00     0.190 HD
ENDROOT
BRANCH   1   5
HETATM    5  N   UNL     1      43.218 -12.865   7.139  1.00  0.00    -0.265 N 
HETATM    6  C   UNL     1      44.134 -11.827   7.131  1.00  0.00     0.260 C 
HETATM    7  O   UNL     1      45.329 -12.020   6.906  1.00  0.00    -0.269 OA
HETATM    8  H   UNL     1      42.225 -12.696   6.979  1.00  0.00     0.190 HD
BRANCH   6   9
HETATM    9  C   UNL     1      43.529 -10.463   7.448  1.00  0.00     0.280 C 
BRANCH   9  10
HETATM   10  O   UNL     1      44.480  -9.718   8.206  1.00  0.00    -0.342 OA
BRANCH  10  11
HETATM   11  C   UNL     1      43.900  -8.873   9.110  1.00  0.00     0.069 A 
HETATM   12  C   UNL     1      43.812  -9.166  10.472  1.00  0.00     0.043 A 
HETATM   13  C   UNL     1      43.256  -8.232  11.358  1.00  0.00    -0.059 A 
HETATM   14  C   UNL     1      43.198  -8.516  12.829  1.00  0.00     0.048 C 
HETATM   15  C   UNL     1      42.824  -6.995  10.863  1.00  0.00     0.007 A 
HETATM   16  C   UNL     1      42.935  -6.697   9.503  1.00  0.00     0.003 A 
HETATM   17  C   UNL     1      43.482  -7.634   8.629  1.00  0.00     0.037 A 
ENDBRANCH  10  11
ENDBRANCH   9  10
ENDBRANCH   6   9
ENDBRANCH   1   5
BRANCH   2  18
HETATM   18  C   UNL     1      43.283 -16.243   5.684  1.00  0.00     0.081 A 
HETATM   19  C   UNL     1      43.047 -16.706   4.350  1.00  0.00     0.104 A 
HETATM   20  N   UNL     1      43.680 -17.872   4.130  1.00  0.00    -0.174 NA
HETATM   21  N   UNL     1      44.327 -18.132   5.269  1.00  0.00    -0.288 N 
HETATM   22  H   UNL     1      44.882 -18.981   5.322  1.00  0.00     0.188 HD
HETATM   23  C   UNL     1      44.129 -17.192   6.233  1.00  0.00     0.128 A 
BRANCH  19  24
HETATM   24  C   UNL     1      42.268 -16.087   3.276  1.00  0.00    -0.004 A 
HETATM   25  C   UNL     1      42.899 -15.446   2.202  1.00  0.00     0.015 A 
HETATM   26  C   UNL     1      42.143 -14.877   1.172  1.00  0.00     0.024 A 
HETATM   27  C   UNL     1      40.753 -14.955   1.208  1.00  0.00     0.034 A 
HETATM   28 CL   UNL     1      39.824 -14.257  -0.061  1.00  0.00    -0.084 Cl
HETATM   29  C   UNL     1      40.110 -15.601   2.262  1.00  0.00     0.024 A 
HETATM   30  C   UNL     1      40.867 -16.170   3.290  1.00  0.00     0.015 A 
ENDBRANCH  19  24
ENDBRANCH   2  18
TORSDOF 6
ENDMDL
