MODEL 1
REMARK VINA RESULT:      -7.8      0.000      0.000
REMARK  7 active torsions:
REMARK  status: ('A' for Active; 'I' for Inactive)
REMARK    1  A    between atoms: C_2  and  N_3 
REMARK    2  A    between atoms: N_3  and  N_4 
REMARK       I    between atoms: N_4  and  C_5 
REMARK    3  A    between atoms: C_5  and  C_6 
REMARK    4  A    between atoms: C_6  and  C_7 
REMARK    5  A    between atoms: C_7  and  C_8 
REMARK    6  A    between atoms: C_8  and  N_9 
REMARK       I    between atoms: N_9  and  C_10 
REMARK       I    between atoms: C_10  and  N_11 
REMARK    7  A    between atoms: N_11  and  C_12 
ROOT
HETATM    1  C   UNL     1      43.363 -17.987   2.160  1.00  0.00     0.068 A 
HETATM    2  C   UNL     1      43.230 -16.607   2.279  1.00  0.00     0.124 A 
HETATM    3  N   UNL     1      43.423 -15.976   3.451  1.00  0.00    -0.223 NA
HETATM    4  C   UNL     1      43.725 -16.726   4.528  1.00  0.00     0.129 A 
HETATM    5 CL   UNL     1      43.951 -15.839   5.977  1.00  0.00    -0.062 Cl
HETATM    6  C   UNL     1      43.859 -18.098   4.514  1.00  0.00     0.067 A 
HETATM    7  C   UNL     1      43.673 -18.737   3.295  1.00  0.00     0.051 A 
HETATM    8  C   UNL     1      43.804 -20.160   3.200  1.00  0.00     0.099 C 
HETATM    9  N   UNL     1      43.908 -21.312   3.128  1.00  0.00    -0.191 NA
ENDROOT
BRANCH   2  10
HETATM   10  N   UNL     1      42.969 -15.790   1.159  1.00  0.00    -0.186 NA
HETATM   11  H   UNL     1      43.848 -15.781   0.621  1.00  0.00     0.154 HD
BRANCH  10  12
HETATM   12  N   UNL     1      42.545 -14.482   1.494  1.00  0.00    -0.286 N 
HETATM   13  C   UNL     1      41.185 -14.240   1.385  1.00  0.00     0.232 C 
HETATM   14  O   UNL     1      40.404 -15.008   0.827  1.00  0.00    -0.272 OA
HETATM   15  H   UNL     1      43.060 -14.053   2.259  1.00  0.00     0.184 HD
BRANCH  13  16
HETATM   16  C   UNL     1      40.724 -12.965   2.056  1.00  0.00     0.106 C 
BRANCH  16  17
HETATM   17  C   UNL     1      39.488 -13.181   2.923  1.00  0.00     0.029 C 
BRANCH  17  18
HETATM   18  C   UNL     1      39.398 -12.119   4.016  1.00  0.00     0.125 C 
BRANCH  18  19
HETATM   19  N   UNL     1      40.413 -12.308   5.032  1.00  0.00    -0.343 N 
HETATM   20  C   UNL     1      41.396 -11.371   5.239  1.00  0.00     0.316 C 
HETATM   21  N   UNL     1      42.221 -11.754   6.264  1.00  0.00    -0.339 N 
HETATM   22  O   UNL     1      41.504 -10.344   4.585  1.00  0.00    -0.248 OA
HETATM   23  H   UNL     1      42.246 -12.750   6.423  1.00  0.00     0.164 HD
HETATM   24  H   UNL     1      40.186 -12.898   5.818  1.00  0.00     0.164 HD
BRANCH  21  25
HETATM   25  C   UNL     1      43.421 -11.027   6.662  1.00  0.00     0.086 C 
HETATM   26  C   UNL     1      44.671 -11.911   6.751  1.00  0.00     0.025 C 
HETATM   27  C   UNL     1      45.908 -11.085   7.100  1.00  0.00     0.002 C 
HETATM   28  C   UNL     1      45.703 -10.270   8.375  1.00  0.00     0.000 C 
HETATM   29  C   UNL     1      44.452  -9.398   8.296  1.00  0.00     0.002 C 
HETATM   30  C   UNL     1      43.212 -10.221   7.951  1.00  0.00     0.025 C 
ENDBRANCH  21  25
ENDBRANCH  18  19
ENDBRANCH  17  18
ENDBRANCH  16  17
ENDBRANCH  13  16
ENDBRANCH  10  12
ENDBRANCH   2  10
TORSDOF 7
ENDMDL
MODEL 2
REMARK VINA RESULT:      -7.6      3.527      5.689
REMARK  7 active torsions:
REMARK  status: ('A' for Active; 'I' for Inactive)
REMARK    1  A    between atoms: C_2  and  N_3 
REMARK    2  A    between atoms: N_3  and  N_4 
REMARK       I    between atoms: N_4  and  C_5 
REMARK    3  A    between atoms: C_5  and  C_6 
REMARK    4  A    between atoms: C_6  and  C_7 
REMARK    5  A    between atoms: C_7  and  C_8 
REMARK    6  A    between atoms: C_8  and  N_9 
REMARK       I    between atoms: N_9  and  C_10 
REMARK       I    between atoms: C_10  and  N_11 
REMARK    7  A    between atoms: N_11  and  C_12 
ROOT
HETATM    1  C   UNL     1      41.062 -14.839   4.289  1.00  0.00     0.068 A 
HETATM    2  C   UNL     1      41.855 -14.830   5.432  1.00  0.00     0.124 A 
HETATM    3  N   UNL     1      42.874 -15.693   5.595  1.00  0.00    -0.223 NA
HETATM    4  C   UNL     1      43.094 -16.597   4.621  1.00  0.00     0.129 A 
HETATM    5 CL   UNL     1      44.410 -17.655   4.912  1.00  0.00    -0.062 Cl
HETATM    6  C   UNL     1      42.353 -16.697   3.463  1.00  0.00     0.067 A 
HETATM    7  C   UNL     1      41.313 -15.790   3.300  1.00  0.00     0.051 A 
HETATM    8  C   UNL     1      40.504 -15.828   2.119  1.00  0.00     0.099 C 
HETATM    9  N   UNL     1      39.849 -15.863   1.164  1.00  0.00    -0.191 NA
ENDROOT
BRANCH   2  10
HETATM   10  N   UNL     1      41.684 -13.861   6.443  1.00  0.00    -0.186 NA
HETATM   11  H   UNL     1      40.663 -13.771   6.560  1.00  0.00     0.154 HD
BRANCH  10  12
HETATM   12  N   UNL     1      42.291 -12.617   6.151  1.00  0.00    -0.286 N 
HETATM   13  C   UNL     1      43.429 -12.312   6.881  1.00  0.00     0.232 C 
HETATM   14  O   UNL     1      43.784 -12.943   7.874  1.00  0.00    -0.272 OA
HETATM   15  H   UNL     1      42.249 -12.346   5.171  1.00  0.00     0.184 HD
BRANCH  13  16
HETATM   16  C   UNL     1      44.233 -11.158   6.326  1.00  0.00     0.106 C 
BRANCH  16  17
HETATM   17  C   UNL     1      45.696 -11.211   6.755  1.00  0.00     0.029 C 
BRANCH  17  18
HETATM   18  C   UNL     1      45.962 -10.240   7.903  1.00  0.00     0.125 C 
BRANCH  18  19
HETATM   19  N   UNL     1      44.731  -9.784   8.515  1.00  0.00    -0.343 N 
HETATM   20  C   UNL     1      44.448 -10.055   9.831  1.00  0.00     0.316 C 
HETATM   21  N   UNL     1      43.246  -9.502  10.191  1.00  0.00    -0.339 N 
HETATM   22  O   UNL     1      45.178 -10.706  10.563  1.00  0.00    -0.248 OA
HETATM   23  H   UNL     1      42.613  -9.353   9.420  1.00  0.00     0.164 HD
HETATM   24  H   UNL     1      44.286  -8.969   8.122  1.00  0.00     0.164 HD
BRANCH  21  25
HETATM   25  C   UNL     1      42.614  -9.697  11.491  1.00  0.00     0.086 C 
HETATM   26  C   UNL     1      41.085  -9.797  11.419  1.00  0.00     0.025 C 
HETATM   27  C   UNL     1      40.485 -10.073  12.797  1.00  0.00     0.002 C 
HETATM   28  C   UNL     1      40.933  -9.038  13.827  1.00  0.00     0.000 C 
HETATM   29  C   UNL     1      42.455  -8.927  13.892  1.00  0.00     0.002 C 
HETATM   30  C   UNL     1      43.060  -8.647  12.518  1.00  0.00     0.025 C 
ENDBRANCH  21  25
ENDBRANCH  18  19
ENDBRANCH  17  18
ENDBRANCH  16  17
ENDBRANCH  13  16
ENDBRANCH  10  12
ENDBRANCH   2  10
TORSDOF 7
ENDMDL
MODEL 3
REMARK VINA RESULT:      -7.5      3.744      5.601
REMARK  7 active torsions:
REMARK  status: ('A' for Active; 'I' for Inactive)
REMARK    1  A    between atoms: C_2  and  N_3 
REMARK    2  A    between atoms: N_3  and  N_4 
REMARK       I    between atoms: N_4  and  C_5 
REMARK    3  A    between atoms: C_5  and  C_6 
REMARK    4  A    between atoms: C_6  and  C_7 
REMARK    5  A    between atoms: C_7  and  C_8 
REMARK    6  A    between atoms: C_8  and  N_9 
REMARK       I    between atoms: N_9  and  C_10 
REMARK       I    between atoms: C_10  and  N_11 
REMARK    7  A    between atoms: N_11  and  C_12 
ROOT
HETATM    1  C   UNL     1      42.831 -15.767   4.349  1.00  0.00     0.068 A 
HETATM    2  C   UNL     1      41.985 -14.679   4.157  1.00  0.00     0.124 A 
HETATM    3  N   UNL     1      41.073 -14.655   3.169  1.00  0.00    -0.223 NA
HETATM    4  C   UNL     1      41.015 -15.715   2.341  1.00  0.00     0.129 A 
HETATM    5 CL   UNL     1      39.825 -15.598   1.113  1.00  0.00    -0.062 Cl
HETATM    6  C   UNL     1      41.821 -16.829   2.437  1.00  0.00     0.067 A 
HETATM    7  C   UNL     1      42.749 -16.849   3.471  1.00  0.00     0.051 A 
HETATM    8  C   UNL     1      43.616 -17.976   3.639  1.00  0.00     0.099 C 
HETATM    9  N   UNL     1      44.317 -18.889   3.771  1.00  0.00    -0.191 NA
ENDROOT
BRANCH   2  10
HETATM   10  N   UNL     1      41.985 -13.579   5.041  1.00  0.00    -0.186 NA
HETATM   11  H   UNL     1      41.803 -12.756   4.447  1.00  0.00     0.154 HD
BRANCH  10  12
HETATM   12  N   UNL     1      43.184 -13.439   5.779  1.00  0.00    -0.286 N 
HETATM   13  C   UNL     1      43.557 -12.140   6.086  1.00  0.00     0.232 C 
HETATM   14  O   UNL     1      43.036 -11.149   5.580  1.00  0.00    -0.272 OA
HETATM   15  H   UNL     1      43.347 -14.172   6.465  1.00  0.00     0.184 HD
BRANCH  13  16
HETATM   16  C   UNL     1      44.637 -12.036   7.140  1.00  0.00     0.106 C 
BRANCH  16  17
HETATM   17  C   UNL     1      45.536 -10.822   6.931  1.00  0.00     0.029 C 
BRANCH  17  18
HETATM   18  C   UNL     1      46.125 -10.347   8.257  1.00  0.00     0.125 C 
BRANCH  18  19
HETATM   19  N   UNL     1      45.184  -9.538   9.003  1.00  0.00    -0.343 N 
HETATM   20  C   UNL     1      44.727  -9.932  10.236  1.00  0.00     0.316 C 
HETATM   21  N   UNL     1      43.870  -8.997  10.757  1.00  0.00    -0.339 N 
HETATM   22  O   UNL     1      45.050 -10.979  10.777  1.00  0.00    -0.248 OA
HETATM   23  H   UNL     1      43.417  -8.422  10.063  1.00  0.00     0.164 HD
HETATM   24  H   UNL     1      45.167  -8.546   8.817  1.00  0.00     0.164 HD
BRANCH  21  25
HETATM   25  C   UNL     1      43.136  -9.167  12.005  1.00  0.00     0.086 C 
HETATM   26  C   UNL     1      41.711  -9.701  11.809  1.00  0.00     0.025 C 
HETATM   27  C   UNL     1      41.018  -9.928  13.151  1.00  0.00     0.002 C 
HETATM   28  C   UNL     1      41.033  -8.670  14.016  1.00  0.00     0.000 C 
HETATM   29  C   UNL     1      42.448  -8.128  14.203  1.00  0.00     0.002 C 
HETATM   30  C   UNL     1      43.145  -7.896  12.863  1.00  0.00     0.025 C 
ENDBRANCH  21  25
ENDBRANCH  18  19
ENDBRANCH  17  18
ENDBRANCH  16  17
ENDBRANCH  13  16
ENDBRANCH  10  12
ENDBRANCH   2  10
TORSDOF 7
ENDMDL
MODEL 4
REMARK VINA RESULT:      -7.5      2.994      3.817
REMARK  7 active torsions:
REMARK  status: ('A' for Active; 'I' for Inactive)
REMARK    1  A    between atoms: C_2  and  N_3 
REMARK    2  A    between atoms: N_3  and  N_4 
REMARK       I    between atoms: N_4  and  C_5 
REMARK    3  A    between atoms: C_5  and  C_6 
REMARK    4  A    between atoms: C_6  and  C_7 
REMARK    5  A    between atoms: C_7  and  C_8 
REMARK    6  A    between atoms: C_8  and  N_9 
REMARK       I    between atoms: N_9  and  C_10 
REMARK       I    between atoms: C_10  and  N_11 
REMARK    7  A    between atoms: N_11  and  C_12 
ROOT
HETATM    1  C   UNL     1      42.662 -17.382   2.543  1.00  0.00     0.068 A 
HETATM    2  C   UNL     1      42.582 -16.191   3.256  1.00  0.00     0.124 A 
HETATM    3  N   UNL     1      43.272 -15.999   4.395  1.00  0.00    -0.223 NA
HETATM    4  C   UNL     1      44.033 -17.014   4.848  1.00  0.00     0.129 A 
HETATM    5 CL   UNL     1      44.876 -16.681   6.303  1.00  0.00    -0.062 Cl
HETATM    6  C   UNL     1      44.162 -18.235   4.223  1.00  0.00     0.067 A 
HETATM    7  C   UNL     1      43.456 -18.416   3.040  1.00  0.00     0.051 A 
HETATM    8  C   UNL     1      43.546 -19.656   2.330  1.00  0.00     0.099 C 
HETATM    9  N   UNL     1      43.620 -20.662   1.760  1.00  0.00    -0.191 NA
ENDROOT
BRANCH   2  10
HETATM   10  N   UNL     1      41.837 -15.092   2.779  1.00  0.00    -0.186 NA
HETATM   11  H   UNL     1      42.380 -14.724   1.983  1.00  0.00     0.154 HD
BRANCH  10  12
HETATM   12  N   UNL     1      41.598 -14.097   3.757  1.00  0.00    -0.286 N 
HETATM   13  C   UNL     1      42.168 -12.858   3.511  1.00  0.00     0.232 C 
HETATM   14  O   UNL     1      43.011 -12.662   2.639  1.00  0.00    -0.272 OA
HETATM   15  H   UNL     1      40.676 -14.137   4.185  1.00  0.00     0.184 HD
BRANCH  13  16
HETATM   16  C   UNL     1      41.630 -11.743   4.380  1.00  0.00     0.106 C 
BRANCH  16  17
HETATM   17  C   UNL     1      42.556 -11.421   5.549  1.00  0.00     0.029 C 
BRANCH  17  18
HETATM   18  C   UNL     1      41.962 -10.323   6.427  1.00  0.00     0.125 C 
BRANCH  18  19
HETATM   19  N   UNL     1      42.496 -10.364   7.772  1.00  0.00    -0.343 N 
HETATM   20  C   UNL     1      41.934  -9.626   8.785  1.00  0.00     0.316 C 
HETATM   21  N   UNL     1      42.592  -9.847   9.968  1.00  0.00    -0.339 N 
HETATM   22  O   UNL     1      40.979  -8.879   8.631  1.00  0.00    -0.248 OA
HETATM   23  H   UNL     1      43.545 -10.155   9.857  1.00  0.00     0.164 HD
HETATM   24  H   UNL     1      43.002 -11.191   8.051  1.00  0.00     0.164 HD
BRANCH  21  25
HETATM   25  C   UNL     1      42.302  -9.137  11.208  1.00  0.00     0.086 C 
HETATM   26  C   UNL     1      43.560  -8.678  11.957  1.00  0.00     0.025 C 
HETATM   27  C   UNL     1      43.196  -7.878  13.207  1.00  0.00     0.002 C 
HETATM   28  C   UNL     1      42.248  -8.654  14.119  1.00  0.00     0.000 C 
HETATM   29  C   UNL     1      41.001  -9.123  13.373  1.00  0.00     0.002 C 
HETATM   30  C   UNL     1      41.359  -9.927  12.125  1.00  0.00     0.025 C 
ENDBRANCH  21  25
ENDBRANCH  18  19
ENDBRANCH  17  18
ENDBRANCH  16  17
ENDBRANCH  13  16
ENDBRANCH  10  12
ENDBRANCH   2  10
TORSDOF 7
ENDMDL
MODEL 5
REMARK VINA RESULT:      -7.5      3.223      6.579
REMARK  7 active torsions:
REMARK  status: ('A' for Active; 'I' for Inactive)
REMARK    1  A    between atoms: C_2  and  N_3 
REMARK    2  A    between atoms: N_3  and  N_4 
REMARK       I    between atoms: N_4  and  C_5 
REMARK    3  A    between atoms: C_5  and  C_6 
REMARK    4  A    between atoms: C_6  and  C_7 
REMARK    5  A    between atoms: C_7  and  C_8 
REMARK    6  A    between atoms: C_8  and  N_9 
REMARK       I    between atoms: N_9  and  C_10 
REMARK       I    between atoms: C_10  and  N_11 
REMARK    7  A    between atoms: N_11  and  C_12 
ROOT
HETATM    1  C   UNL     1      42.994 -16.800   4.705  1.00  0.00     0.068 A 
HETATM    2  C   UNL     1      43.071 -17.463   5.925  1.00  0.00     0.124 A 
HETATM    3  N   UNL     1      43.589 -18.700   6.029  1.00  0.00    -0.223 NA
HETATM    4  C   UNL     1      44.013 -19.300   4.901  1.00  0.00     0.129 A 
HETATM    5 CL   UNL     1      44.658 -20.873   5.126  1.00  0.00    -0.062 Cl
HETATM    6  C   UNL     1      43.961 -18.734   3.645  1.00  0.00     0.067 A 
HETATM    7  C   UNL     1      43.438 -17.451   3.553  1.00  0.00     0.051 A 
HETATM    8  C   UNL     1      43.359 -16.794   2.284  1.00  0.00     0.099 C 
HETATM    9  N   UNL     1      43.295 -16.267   1.254  1.00  0.00    -0.191 NA
ENDROOT
BRANCH   2  10
HETATM   10  N   UNL     1      42.685 -16.840   7.131  1.00  0.00    -0.186 NA
HETATM   11  H   UNL     1      42.562 -17.611   7.806  1.00  0.00     0.154 HD
BRANCH  10  12
HETATM   12  N   UNL     1      41.516 -16.051   7.018  1.00  0.00    -0.286 N 
HETATM   13  C   UNL     1      41.719 -14.690   6.849  1.00  0.00     0.232 C 
HETATM   14  O   UNL     1      42.808 -14.144   7.009  1.00  0.00    -0.272 OA
HETATM   15  H   UNL     1      40.750 -16.499   6.520  1.00  0.00     0.184 HD
BRANCH  13  16
HETATM   16  C   UNL     1      40.490 -13.930   6.402  1.00  0.00     0.106 C 
BRANCH  16  17
HETATM   17  C   UNL     1      40.777 -13.011   5.218  1.00  0.00     0.029 C 
BRANCH  17  18
HETATM   18  C   UNL     1      39.478 -12.493   4.605  1.00  0.00     0.125 C 
BRANCH  18  19
HETATM   19  N   UNL     1      39.168 -13.162   3.360  1.00  0.00    -0.343 N 
HETATM   20  C   UNL     1      39.615 -12.672   2.157  1.00  0.00     0.316 C 
HETATM   21  N   UNL     1      39.220 -13.485   1.126  1.00  0.00    -0.339 N 
HETATM   22  O   UNL     1      40.272 -11.648   2.043  1.00  0.00    -0.248 OA
HETATM   23  H   UNL     1      38.397 -14.032   1.325  1.00  0.00     0.164 HD
HETATM   24  H   UNL     1      38.975 -14.152   3.394  1.00  0.00     0.164 HD
BRANCH  21  25
HETATM   25  C   UNL     1      39.448 -13.186  -0.283  1.00  0.00     0.086 C 
HETATM   26  C   UNL     1      38.379 -12.272  -0.895  1.00  0.00     0.025 C 
HETATM   27  C   UNL     1      38.709 -11.936  -2.348  1.00  0.00     0.002 C 
HETATM   28  C   UNL     1      38.921 -13.194  -3.187  1.00  0.00     0.000 C 
HETATM   29  C   UNL     1      39.975 -14.112  -2.574  1.00  0.00     0.002 C 
HETATM   30  C   UNL     1      39.649 -14.455  -1.122  1.00  0.00     0.025 C 
ENDBRANCH  21  25
ENDBRANCH  18  19
ENDBRANCH  17  18
ENDBRANCH  16  17
ENDBRANCH  13  16
ENDBRANCH  10  12
ENDBRANCH   2  10
TORSDOF 7
ENDMDL
MODEL 6
REMARK VINA RESULT:      -7.5      2.894      6.217
REMARK  7 active torsions:
REMARK  status: ('A' for Active; 'I' for Inactive)
REMARK    1  A    between atoms: C_2  and  N_3 
REMARK    2  A    between atoms: N_3  and  N_4 
REMARK       I    between atoms: N_4  and  C_5 
REMARK    3  A    between atoms: C_5  and  C_6 
REMARK    4  A    between atoms: C_6  and  C_7 
REMARK    5  A    between atoms: C_7  and  C_8 
REMARK    6  A    between atoms: C_8  and  N_9 
REMARK       I    between atoms: N_9  and  C_10 
REMARK       I    between atoms: C_10  and  N_11 
REMARK    7  A    between atoms: N_11  and  C_12 
ROOT
HETATM    1  C   UNL     1      42.720 -17.284   2.578  1.00  0.00     0.068 A 
HETATM    2  C   UNL     1      42.652 -16.103   3.309  1.00  0.00     0.124 A 
HETATM    3  N   UNL     1      43.310 -15.950   4.473  1.00  0.00    -0.223 NA
HETATM    4  C   UNL     1      44.024 -16.995   4.933  1.00  0.00     0.129 A 
HETATM    5 CL   UNL     1      44.827 -16.712   6.421  1.00  0.00    -0.062 Cl
HETATM    6  C   UNL     1      44.136 -18.210   4.292  1.00  0.00     0.067 A 
HETATM    7  C   UNL     1      43.466 -18.350   3.084  1.00  0.00     0.051 A 
HETATM    8  C   UNL     1      43.542 -19.581   2.357  1.00  0.00     0.099 C 
HETATM    9  N   UNL     1      43.604 -20.579   1.772  1.00  0.00    -0.191 NA
ENDROOT
BRANCH   2  10
HETATM   10  N   UNL     1      41.957 -14.973   2.826  1.00  0.00    -0.186 NA
HETATM   11  H   UNL     1      42.460 -14.693   1.971  1.00  0.00     0.154 HD
BRANCH  10  12
HETATM   12  N   UNL     1      41.876 -13.912   3.759  1.00  0.00    -0.286 N 
HETATM   13  C   UNL     1      42.691 -12.820   3.505  1.00  0.00     0.232 C 
HETATM   14  O   UNL     1      43.596 -12.831   2.674  1.00  0.00    -0.272 OA
HETATM   15  H   UNL     1      40.945 -13.753   4.138  1.00  0.00     0.184 HD
BRANCH  13  16
HETATM   16  C   UNL     1      42.346 -11.587   4.310  1.00  0.00     0.106 C 
BRANCH  16  17
HETATM   17  C   UNL     1      41.845 -10.444   3.432  1.00  0.00     0.029 C 
BRANCH  17  18
HETATM   18  C   UNL     1      40.322 -10.469   3.325  1.00  0.00     0.125 C 
BRANCH  18  19
HETATM   19  N   UNL     1      39.884 -10.566   1.948  1.00  0.00    -0.343 N 
HETATM   20  C   UNL     1      39.520 -11.772   1.400  1.00  0.00     0.316 C 
HETATM   21  N   UNL     1      39.118 -11.610   0.099  1.00  0.00    -0.339 N 
HETATM   22  O   UNL     1      39.560 -12.833   2.005  1.00  0.00    -0.248 OA
HETATM   23  H   UNL     1      39.502 -10.794  -0.353  1.00  0.00     0.164 HD
HETATM   24  H   UNL     1      39.480  -9.744   1.525  1.00  0.00     0.164 HD
BRANCH  21  25
HETATM   25  C   UNL     1      38.769 -12.712  -0.790  1.00  0.00     0.086 C 
HETATM   26  C   UNL     1      39.985 -13.385  -1.438  1.00  0.00     0.025 C 
HETATM   27  C   UNL     1      39.564 -14.575  -2.299  1.00  0.00     0.002 C 
HETATM   28  C   UNL     1      38.520 -14.178  -3.340  1.00  0.00     0.000 C 
HETATM   29  C   UNL     1      37.313 -13.496  -2.701  1.00  0.00     0.002 C 
HETATM   30  C   UNL     1      37.728 -12.303  -1.841  1.00  0.00     0.025 C 
ENDBRANCH  21  25
ENDBRANCH  18  19
ENDBRANCH  17  18
ENDBRANCH  16  17
ENDBRANCH  13  16
ENDBRANCH  10  12
ENDBRANCH   2  10
TORSDOF 7
ENDMDL
MODEL 7
REMARK VINA RESULT:      -7.4      3.651      9.768
REMARK  7 active torsions:
REMARK  status: ('A' for Active; 'I' for Inactive)
REMARK    1  A    between atoms: C_2  and  N_3 
REMARK    2  A    between atoms: N_3  and  N_4 
REMARK       I    between atoms: N_4  and  C_5 
REMARK    3  A    between atoms: C_5  and  C_6 
REMARK    4  A    between atoms: C_6  and  C_7 
REMARK    5  A    between atoms: C_7  and  C_8 
REMARK    6  A    between atoms: C_8  and  N_9 
REMARK       I    between atoms: N_9  and  C_10 
REMARK       I    between atoms: C_10  and  N_11 
REMARK    7  A    between atoms: N_11  and  C_12 
ROOT
HETATM    1  C   UNL     1      43.659  -8.375   9.982  1.00  0.00     0.068 A 
HETATM    2  C   UNL     1      43.677  -9.720  10.336  1.00  0.00     0.124 A 
HETATM    3  N   UNL     1      42.839 -10.220  11.262  1.00  0.00    -0.223 NA
HETATM    4  C   UNL     1      41.989  -9.369  11.866  1.00  0.00     0.129 A 
HETATM    5 CL   UNL     1      40.960 -10.092  13.030  1.00  0.00    -0.062 Cl
HETATM    6  C   UNL     1      41.909  -8.019  11.597  1.00  0.00     0.067 A 
HETATM    7  C   UNL     1      42.769  -7.517  10.628  1.00  0.00     0.051 A 
HETATM    8  C   UNL     1      42.739  -6.126  10.290  1.00  0.00     0.099 C 
HETATM    9  N   UNL     1      42.714  -5.000  10.021  1.00  0.00    -0.191 NA
ENDROOT
BRANCH   2  10
HETATM   10  N   UNL     1      44.518 -10.646   9.682  1.00  0.00    -0.186 NA
HETATM   11  H   UNL     1      45.361 -10.110   9.427  1.00  0.00     0.154 HD
BRANCH  10  12
HETATM   12  N   UNL     1      43.923 -11.260   8.554  1.00  0.00    -0.286 N 
HETATM   13  C   UNL     1      44.759 -11.467   7.468  1.00  0.00     0.232 C 
HETATM   14  O   UNL     1      45.876 -10.965   7.369  1.00  0.00    -0.272 OA
HETATM   15  H   UNL     1      43.222 -11.962   8.776  1.00  0.00     0.184 HD
BRANCH  13  16
HETATM   16  C   UNL     1      44.199 -12.408   6.425  1.00  0.00     0.106 C 
BRANCH  16  17
HETATM   17  C   UNL     1      42.848 -11.944   5.891  1.00  0.00     0.029 C 
BRANCH  17  18
HETATM   18  C   UNL     1      42.056 -13.118   5.320  1.00  0.00     0.125 C 
BRANCH  18  19
HETATM   19  N   UNL     1      42.927 -14.180   4.862  1.00  0.00    -0.343 N 
HETATM   20  C   UNL     1      42.437 -15.434   4.589  1.00  0.00     0.316 C 
HETATM   21  N   UNL     1      43.440 -16.259   4.147  1.00  0.00    -0.339 N 
HETATM   22  O   UNL     1      41.265 -15.751   4.729  1.00  0.00    -0.248 OA
HETATM   23  H   UNL     1      44.361 -15.987   4.453  1.00  0.00     0.164 HD
HETATM   24  H   UNL     1      43.775 -13.918   4.383  1.00  0.00     0.164 HD
BRANCH  21  25
HETATM   25  C   UNL     1      43.265 -17.680   3.872  1.00  0.00     0.086 C 
HETATM   26  C   UNL     1      44.292 -18.572   4.581  1.00  0.00     0.025 C 
HETATM   27  C   UNL     1      44.016 -20.050   4.313  1.00  0.00     0.002 C 
HETATM   28  C   UNL     1      43.946 -20.352   2.818  1.00  0.00     0.000 C 
HETATM   29  C   UNL     1      42.933 -19.458   2.107  1.00  0.00     0.002 C 
HETATM   30  C   UNL     1      43.207 -17.978   2.367  1.00  0.00     0.025 C 
ENDBRANCH  21  25
ENDBRANCH  18  19
ENDBRANCH  17  18
ENDBRANCH  16  17
ENDBRANCH  13  16
ENDBRANCH  10  12
ENDBRANCH   2  10
TORSDOF 7
ENDMDL
MODEL 8
REMARK VINA RESULT:      -7.4      2.703      6.448
REMARK  7 active torsions:
REMARK  status: ('A' for Active; 'I' for Inactive)
REMARK    1  A    between atoms: C_2  and  N_3 
REMARK    2  A    between atoms: N_3  and  N_4 
REMARK       I    between atoms: N_4  and  C_5 
REMARK    3  A    between atoms: C_5  and  C_6 
REMARK    4  A    between atoms: C_6  and  C_7 
REMARK    5  A    between atoms: C_7  and  C_8 
REMARK    6  A    between atoms: C_8  and  N_9 
REMARK       I    between atoms: N_9  and  C_10 
REMARK       I    between atoms: C_10  and  N_11 
REMARK    7  A    between atoms: N_11  and  C_12 
ROOT
HETATM    1  C   UNL     1      41.107 -11.018   4.043  1.00  0.00     0.068 A 
HETATM    2  C   UNL     1      42.355 -10.853   3.452  1.00  0.00     0.124 A 
HETATM    3  N   UNL     1      43.495 -11.110   4.118  1.00  0.00    -0.223 NA
HETATM    4  C   UNL     1      43.397 -11.511   5.400  1.00  0.00     0.129 A 
HETATM    5 CL   UNL     1      44.898 -11.815   6.170  1.00  0.00    -0.062 Cl
HETATM    6  C   UNL     1      42.210 -11.685   6.077  1.00  0.00     0.067 A 
HETATM    7  C   UNL     1      41.039 -11.431   5.374  1.00  0.00     0.051 A 
HETATM    8  C   UNL     1      39.767 -11.597   6.009  1.00  0.00     0.099 C 
HETATM    9  N   UNL     1      38.739 -11.731   6.528  1.00  0.00    -0.191 NA
ENDROOT
BRANCH   2  10
HETATM   10  N   UNL     1      42.489 -10.487   2.095  1.00  0.00    -0.186 NA
HETATM   11  H   UNL     1      42.627  -9.466   2.104  1.00  0.00     0.154 HD
BRANCH  10  12
HETATM   12  N   UNL     1      41.385 -10.861   1.292  1.00  0.00    -0.286 N 
HETATM   13  C   UNL     1      41.394 -10.383  -0.008  1.00  0.00     0.232 C 
HETATM   14  O   UNL     1      42.166  -9.513  -0.404  1.00  0.00    -0.272 OA
HETATM   15  H   UNL     1      41.031 -11.798   1.469  1.00  0.00     0.184 HD
BRANCH  13  16
HETATM   16  C   UNL     1      40.398 -11.058  -0.925  1.00  0.00     0.106 C 
BRANCH  16  17
HETATM   17  C   UNL     1      39.477 -12.015  -0.176  1.00  0.00     0.029 C 
BRANCH  17  18
HETATM   18  C   UNL     1      39.706 -13.455  -0.627  1.00  0.00     0.125 C 
BRANCH  18  19
HETATM   19  N   UNL     1      41.016 -13.936  -0.241  1.00  0.00    -0.343 N 
HETATM   20  C   UNL     1      41.209 -14.603   0.944  1.00  0.00     0.316 C 
HETATM   21  N   UNL     1      42.520 -14.982   1.079  1.00  0.00    -0.339 N 
HETATM   22  O   UNL     1      40.321 -14.817   1.756  1.00  0.00    -0.248 OA
HETATM   23  H   UNL     1      43.168 -14.416   0.553  1.00  0.00     0.164 HD
HETATM   24  H   UNL     1      41.680 -14.130  -0.975  1.00  0.00     0.164 HD
BRANCH  21  25
HETATM   25  C   UNL     1      43.068 -15.617   2.271  1.00  0.00     0.086 C 
HETATM   26  C   UNL     1      42.799 -17.126   2.339  1.00  0.00     0.025 C 
HETATM   27  C   UNL     1      43.457 -17.749   3.569  1.00  0.00     0.002 C 
HETATM   28  C   UNL     1      43.033 -17.043   4.856  1.00  0.00     0.000 C 
HETATM   29  C   UNL     1      43.288 -15.539   4.787  1.00  0.00     0.002 C 
HETATM   30  C   UNL     1      42.629 -14.911   3.561  1.00  0.00     0.025 C 
ENDBRANCH  21  25
ENDBRANCH  18  19
ENDBRANCH  17  18
ENDBRANCH  16  17
ENDBRANCH  13  16
ENDBRANCH  10  12
ENDBRANCH   2  10
TORSDOF 7
ENDMDL
MODEL 9
REMARK VINA RESULT:      -7.2      3.628      8.893
REMARK  7 active torsions:
REMARK  status: ('A' for Active; 'I' for Inactive)
REMARK    1  A    between atoms: C_2  and  N_3 
REMARK    2  A    between atoms: N_3  and  N_4 
REMARK       I    between atoms: N_4  and  C_5 
REMARK    3  A    between atoms: C_5  and  C_6 
REMARK    4  A    between atoms: C_6  and  C_7 
REMARK    5  A    between atoms: C_7  and  C_8 
REMARK    6  A    between atoms: C_8  and  N_9 
REMARK       I    between atoms: N_9  and  C_10 
REMARK       I    between atoms: C_10  and  N_11 
REMARK    7  A    between atoms: N_11  and  C_12 
ROOT
HETATM    1  C   UNL     1      42.586  -9.415   9.285  1.00  0.00     0.068 A 
HETATM    2  C   UNL     1      41.616  -8.753  10.030  1.00  0.00     0.124 A 
HETATM    3  N   UNL     1      41.869  -8.278  11.263  1.00  0.00    -0.223 NA
HETATM    4  C   UNL     1      43.096  -8.487  11.777  1.00  0.00     0.129 A 
HETATM    5 CL   UNL     1      43.330  -7.849  13.351  1.00  0.00    -0.062 Cl
HETATM    6  C   UNL     1      44.116  -9.147  11.126  1.00  0.00     0.067 A 
HETATM    7  C   UNL     1      43.847  -9.619   9.847  1.00  0.00     0.051 A 
HETATM    8  C   UNL     1      44.860 -10.307   9.106  1.00  0.00     0.099 C 
HETATM    9  N   UNL     1      45.681 -10.866   8.510  1.00  0.00    -0.191 NA
ENDROOT
BRANCH   2  10
HETATM   10  N   UNL     1      40.339  -8.472   9.498  1.00  0.00    -0.186 NA
HETATM   11  H   UNL     1      39.815  -8.036  10.271  1.00  0.00     0.154 HD
BRANCH  10  12
HETATM   12  N   UNL     1      39.671  -9.609   8.985  1.00  0.00    -0.286 N 
HETATM   13  C   UNL     1      39.450  -9.615   7.617  1.00  0.00     0.232 C 
HETATM   14  O   UNL     1      39.604  -8.628   6.903  1.00  0.00    -0.272 OA
HETATM   15  H   UNL     1      39.908 -10.483   9.449  1.00  0.00     0.184 HD
BRANCH  13  16
HETATM   16  C   UNL     1      39.046 -10.962   7.059  1.00  0.00     0.106 C 
BRANCH  16  17
HETATM   17  C   UNL     1      40.163 -11.613   6.250  1.00  0.00     0.029 C 
BRANCH  17  18
HETATM   18  C   UNL     1      39.886 -13.099   6.037  1.00  0.00     0.125 C 
BRANCH  18  19
HETATM   19  N   UNL     1      40.851 -13.701   5.141  1.00  0.00    -0.343 N 
HETATM   20  C   UNL     1      41.031 -15.062   5.099  1.00  0.00     0.316 C 
HETATM   21  N   UNL     1      41.973 -15.397   4.160  1.00  0.00    -0.339 N 
HETATM   22  O   UNL     1      40.427 -15.850   5.812  1.00  0.00    -0.248 OA
HETATM   23  H   UNL     1      42.630 -14.660   3.955  1.00  0.00     0.164 HD
HETATM   24  H   UNL     1      41.095 -13.193   4.304  1.00  0.00     0.164 HD
BRANCH  21  25
HETATM   25  C   UNL     1      42.465 -16.753   3.945  1.00  0.00     0.086 C 
HETATM   26  C   UNL     1      43.794 -17.041   4.654  1.00  0.00     0.025 C 
HETATM   27  C   UNL     1      44.222 -18.494   4.453  1.00  0.00     0.002 C 
HETATM   28  C   UNL     1      44.281 -18.867   2.973  1.00  0.00     0.000 C 
HETATM   29  C   UNL     1      42.964 -18.569   2.261  1.00  0.00     0.002 C 
HETATM   30  C   UNL     1      42.533 -17.117   2.456  1.00  0.00     0.025 C 
ENDBRANCH  21  25
ENDBRANCH  18  19
ENDBRANCH  17  18
ENDBRANCH  16  17
ENDBRANCH  13  16
ENDBRANCH  10  12
ENDBRANCH   2  10
TORSDOF 7
ENDMDL
MODEL 10
REMARK VINA RESULT:      -7.2      3.658      4.922
REMARK  7 active torsions:
REMARK  status: ('A' for Active; 'I' for Inactive)
REMARK    1  A    between atoms: C_2  and  N_3 
REMARK    2  A    between atoms: N_3  and  N_4 
REMARK       I    between atoms: N_4  and  C_5 
REMARK    3  A    between atoms: C_5  and  C_6 
REMARK    4  A    between atoms: C_6  and  C_7 
REMARK    5  A    between atoms: C_7  and  C_8 
REMARK    6  A    between atoms: C_8  and  N_9 
REMARK       I    between atoms: N_9  and  C_10 
REMARK       I    between atoms: C_10  and  N_11 
REMARK    7  A    between atoms: N_11  and  C_12 
ROOT
HETATM    1  C   UNL     1      41.811 -15.979   4.734  1.00  0.00     0.068 A 
HETATM    2  C   UNL     1      40.764 -15.121   4.414  1.00  0.00     0.124 A 
HETATM    3  N   UNL     1      40.228 -15.085   3.181  1.00  0.00    -0.223 NA
HETATM    4  C   UNL     1      40.755 -15.894   2.242  1.00  0.00     0.129 A 
HETATM    5 CL   UNL     1      40.011 -15.783   0.702  1.00  0.00    -0.062 Cl
HETATM    6  C   UNL     1      41.803 -16.764   2.457  1.00  0.00     0.067 A 
HETATM    7  C   UNL     1      42.338 -16.803   3.738  1.00  0.00     0.051 A 
HETATM    8  C   UNL     1      43.423 -17.687   4.039  1.00  0.00     0.099 C 
HETATM    9  N   UNL     1      44.303 -18.402   4.278  1.00  0.00    -0.191 NA
ENDROOT
BRANCH   2  10
HETATM   10  N   UNL     1      40.155 -14.302   5.388  1.00  0.00    -0.186 NA
HETATM   11  H   UNL     1      39.415 -14.885   5.806  1.00  0.00     0.154 HD
BRANCH  10  12
HETATM   12  N   UNL     1      39.640 -13.088   4.873  1.00  0.00    -0.286 N 
HETATM   13  C   UNL     1      39.373 -12.100   5.806  1.00  0.00     0.232 C 
HETATM   14  O   UNL     1      39.357 -12.301   7.018  1.00  0.00    -0.272 OA
HETATM   15  H   UNL     1      40.017 -12.820   3.967  1.00  0.00     0.184 HD
BRANCH  13  16
HETATM   16  C   UNL     1      39.148 -10.727   5.211  1.00  0.00     0.106 C 
BRANCH  16  17
HETATM   17  C   UNL     1      39.276  -9.617   6.249  1.00  0.00     0.029 C 
BRANCH  17  18
HETATM   18  C   UNL     1      40.742  -9.293   6.521  1.00  0.00     0.125 C 
BRANCH  18  19
HETATM   19  N   UNL     1      41.164  -9.770   7.821  1.00  0.00    -0.343 N 
HETATM   20  C   UNL     1      41.021  -8.993   8.945  1.00  0.00     0.316 C 
HETATM   21  N   UNL     1      41.465  -9.663  10.057  1.00  0.00    -0.339 N 
HETATM   22  O   UNL     1      40.562  -7.860   8.934  1.00  0.00    -0.248 OA
HETATM   23  H   UNL     1      42.145 -10.381   9.860  1.00  0.00     0.164 HD
HETATM   24  H   UNL     1      41.192 -10.767   7.969  1.00  0.00     0.164 HD
BRANCH  21  25
HETATM   25  C   UNL     1      41.543  -9.074  11.388  1.00  0.00     0.086 C 
HETATM   26  C   UNL     1      42.976  -8.751  11.831  1.00  0.00     0.025 C 
HETATM   27  C   UNL     1      42.990  -8.071  13.199  1.00  0.00     0.002 C 
HETATM   28  C   UNL     1      42.249  -8.896  14.249  1.00  0.00     0.000 C 
HETATM   29  C   UNL     1      40.826  -9.231  13.806  1.00  0.00     0.002 C 
HETATM   30  C   UNL     1      40.807  -9.914  12.440  1.00  0.00     0.025 C 
ENDBRANCH  21  25
ENDBRANCH  18  19
ENDBRANCH  17  18
ENDBRANCH  16  17
ENDBRANCH  13  16
ENDBRANCH  10  12
ENDBRANCH   2  10
TORSDOF 7
ENDMDL
