MODEL 1
REMARK VINA RESULT:      -9.7      0.000      0.000
REMARK  5 active torsions:
REMARK  status: ('A' for Active; 'I' for Inactive)
REMARK    1  A    between atoms: C_5  and  C_6 
REMARK    2  A    between atoms: C_10  and  C_11 
REMARK       I    between atoms: C_11  and  N_12 
REMARK    3  A    between atoms: N_12  and  N_13 
REMARK       I    between atoms: N_13  and  C_14 
REMARK       I    between atoms: C_14  and  N_15 
REMARK    4  A    between atoms: N_15  and  C_16 
REMARK    5  A    between atoms: C_16  and  C_17 
ROOT
HETATM    1  C   UNL     1      43.899 -11.530   4.863  1.00  0.00     0.288 C 
HETATM    2  N   UNL     1      42.654 -12.043   4.535  1.00  0.00    -0.261 N 
HETATM    3  O   UNL     1      44.776 -11.357   4.018  1.00  0.00    -0.264 OA
HETATM    4  H   UNL     1      41.865 -11.886   5.153  1.00  0.00     0.190 HD
ENDROOT
BRANCH   2   5
HETATM    5  N   UNL     1      42.356 -12.134   3.168  1.00  0.00    -0.249 N 
HETATM    6  C   UNL     1      42.021 -13.298   2.533  1.00  0.00     0.334 C 
HETATM    7  N   UNL     1      42.083 -14.421   3.325  1.00  0.00    -0.341 N 
HETATM    8  O   UNL     1      41.689 -13.304   1.353  1.00  0.00    -0.246 OA
HETATM    9  H   UNL     1      42.821 -14.349   4.011  1.00  0.00     0.164 HD
HETATM   10  H   UNL     1      42.402 -11.280   2.615  1.00  0.00     0.192 HD
BRANCH   7  11
HETATM   11  C   UNL     1      41.896 -15.715   2.696  1.00  0.00     0.129 C 
BRANCH  11  12
HETATM   12  C   UNL     1      42.974 -16.755   3.030  1.00  0.00     0.004 C 
HETATM   13  C   UNL     1      42.727 -18.097   2.323  1.00  0.00     0.010 C 
HETATM   14  C   UNL     1      43.874 -19.082   2.595  1.00  0.00    -0.018 C 
HETATM   15  C   UNL     1      43.615 -20.421   1.907  1.00  0.00     0.010 C 
HETATM   16  C   UNL     1      44.083 -19.277   4.103  1.00  0.00     0.004 C 
HETATM   17  C   UNL     1      44.290 -17.946   4.824  1.00  0.00     0.001 C 
HETATM   18  C   UNL     1      43.156 -16.965   4.539  1.00  0.00     0.006 C 
ENDBRANCH  11  12
ENDBRANCH   7  11
ENDBRANCH   2   5
BRANCH   1  19
HETATM   19  C   UNL     1      44.090 -11.176   6.242  1.00  0.00     0.121 A 
HETATM   20  N   UNL     1      45.190 -11.599   6.934  1.00  0.00    -0.272 N 
HETATM   21  N   UNL     1      45.222 -11.202   8.212  1.00  0.00    -0.174 NA
HETATM   22  H   UNL     1      45.952 -12.170   6.577  1.00  0.00     0.189 HD
HETATM   23  C   UNL     1      44.102 -10.483   8.376  1.00  0.00     0.089 A 
HETATM   24  C   UNL     1      43.362 -10.442   7.157  1.00  0.00     0.071 A 
BRANCH  23  25
HETATM   25  C   UNL     1      43.763  -9.876   9.667  1.00  0.00    -0.006 A 
HETATM   26  C   UNL     1      43.598 -10.658  10.819  1.00  0.00     0.014 A 
HETATM   27  C   UNL     1      43.291 -10.063  12.049  1.00  0.00     0.007 A 
HETATM   28  C   UNL     1      43.132  -8.677  12.149  1.00  0.00    -0.062 A 
HETATM   29  C   UNL     1      42.837  -8.029  13.469  1.00  0.00     0.048 C 
HETATM   30  C   UNL     1      43.298  -7.892  11.004  1.00  0.00     0.007 A 
HETATM   31  C   UNL     1      43.604  -8.487   9.777  1.00  0.00     0.014 A 
ENDBRANCH  23  25
ENDBRANCH   1  19
TORSDOF 5
ENDMDL
MODEL 2
REMARK VINA RESULT:      -9.4      2.046     10.330
REMARK  5 active torsions:
REMARK  status: ('A' for Active; 'I' for Inactive)
REMARK    1  A    between atoms: C_5  and  C_6 
REMARK    2  A    between atoms: C_10  and  C_11 
REMARK       I    between atoms: C_11  and  N_12 
REMARK    3  A    between atoms: N_12  and  N_13 
REMARK       I    between atoms: N_13  and  C_14 
REMARK       I    between atoms: C_14  and  N_15 
REMARK    4  A    between atoms: N_15  and  C_16 
REMARK    5  A    between atoms: C_16  and  C_17 
ROOT
HETATM    1  C   UNL     1      42.435 -11.800   5.989  1.00  0.00     0.288 C 
HETATM    2  N   UNL     1      43.029 -11.254   7.116  1.00  0.00    -0.261 N 
HETATM    3  O   UNL     1      41.805 -11.113   5.186  1.00  0.00    -0.264 OA
HETATM    4  H   UNL     1      43.783 -11.750   7.579  1.00  0.00     0.190 HD
ENDROOT
BRANCH   2   5
HETATM    5  N   UNL     1      43.085  -9.854   7.177  1.00  0.00    -0.249 N 
HETATM    6  C   UNL     1      43.584  -9.153   8.240  1.00  0.00     0.334 C 
HETATM    7  N   UNL     1      43.958  -9.929   9.313  1.00  0.00    -0.341 N 
HETATM    8  O   UNL     1      43.684  -7.932   8.204  1.00  0.00    -0.246 OA
HETATM    9  H   UNL     1      43.365 -10.741   9.406  1.00  0.00     0.164 HD
HETATM   10  H   UNL     1      42.720  -9.331   6.383  1.00  0.00     0.192 HD
BRANCH   7  11
HETATM   11  C   UNL     1      44.350  -9.260  10.538  1.00  0.00     0.129 C 
BRANCH  11  12
HETATM   12  C   UNL     1      43.205  -8.998  11.525  1.00  0.00     0.004 C 
HETATM   13  C   UNL     1      43.641  -8.112  12.703  1.00  0.00     0.010 C 
HETATM   14  C   UNL     1      42.450  -7.783  13.616  1.00  0.00    -0.018 C 
HETATM   15  C   UNL     1      42.892  -6.919  14.795  1.00  0.00     0.010 C 
HETATM   16  C   UNL     1      41.768  -9.067  14.108  1.00  0.00     0.004 C 
HETATM   17  C   UNL     1      41.364  -9.977  12.949  1.00  0.00     0.001 C 
HETATM   18  C   UNL     1      42.547 -10.288  12.034  1.00  0.00     0.006 C 
ENDBRANCH  11  12
ENDBRANCH   7  11
ENDBRANCH   2   5
BRANCH   1  19
HETATM   19  C   UNL     1      42.630 -13.210   5.795  1.00  0.00     0.121 A 
HETATM   20  N   UNL     1      42.667 -14.070   6.856  1.00  0.00    -0.272 N 
HETATM   21  N   UNL     1      42.870 -15.350   6.519  1.00  0.00    -0.174 NA
HETATM   22  H   UNL     1      42.564 -13.831   7.839  1.00  0.00     0.189 HD
HETATM   23  C   UNL     1      42.966 -15.341   5.181  1.00  0.00     0.089 A 
HETATM   24  C   UNL     1      42.819 -14.012   4.687  1.00  0.00     0.071 A 
BRANCH  23  25
HETATM   25  C   UNL     1      43.205 -16.574   4.423  1.00  0.00    -0.006 A 
HETATM   26  C   UNL     1      44.017 -17.597   4.931  1.00  0.00     0.014 A 
HETATM   27  C   UNL     1      44.224 -18.775   4.203  1.00  0.00     0.007 A 
HETATM   28  C   UNL     1      43.631 -18.949   2.948  1.00  0.00    -0.062 A 
HETATM   29  C   UNL     1      43.818 -20.221   2.177  1.00  0.00     0.048 C 
HETATM   30  C   UNL     1      42.817 -17.933   2.437  1.00  0.00     0.007 A 
HETATM   31  C   UNL     1      42.613 -16.757   3.165  1.00  0.00     0.014 A 
ENDBRANCH  23  25
ENDBRANCH   1  19
TORSDOF 5
ENDMDL
MODEL 3
REMARK VINA RESULT:      -9.2      2.969     10.225
REMARK  5 active torsions:
REMARK  status: ('A' for Active; 'I' for Inactive)
REMARK    1  A    between atoms: C_5  and  C_6 
REMARK    2  A    between atoms: C_10  and  C_11 
REMARK       I    between atoms: C_11  and  N_12 
REMARK    3  A    between atoms: N_12  and  N_13 
REMARK       I    between atoms: N_13  and  C_14 
REMARK       I    between atoms: C_14  and  N_15 
REMARK    4  A    between atoms: N_15  and  C_16 
REMARK    5  A    between atoms: C_16  and  C_17 
ROOT
HETATM    1  C   UNL     1      40.128 -12.473   6.147  1.00  0.00     0.288 C 
HETATM    2  N   UNL     1      40.693 -11.270   6.538  1.00  0.00    -0.261 N 
HETATM    3  O   UNL     1      38.910 -12.643   6.118  1.00  0.00    -0.264 OA
HETATM    4  H   UNL     1      41.644 -11.046   6.262  1.00  0.00     0.190 HD
ENDROOT
BRANCH   2   5
HETATM    5  N   UNL     1      39.819 -10.183   6.671  1.00  0.00    -0.249 N 
HETATM    6  C   UNL     1      39.631  -9.488   7.835  1.00  0.00     0.334 C 
HETATM    7  N   UNL     1      40.309  -9.996   8.920  1.00  0.00    -0.341 N 
HETATM    8  O   UNL     1      38.916  -8.494   7.872  1.00  0.00    -0.246 OA
HETATM    9  H   UNL     1      40.381 -11.002   8.873  1.00  0.00     0.164 HD
HETATM   10  H   UNL     1      39.284  -9.901   5.851  1.00  0.00     0.192 HD
BRANCH   7  11
HETATM   11  C   UNL     1      40.046  -9.417  10.223  1.00  0.00     0.129 C 
BRANCH  11  12
HETATM   12  C   UNL     1      41.255  -9.376  11.167  1.00  0.00     0.004 C 
HETATM   13  C   UNL     1      40.874  -8.920  12.584  1.00  0.00     0.010 C 
HETATM   14  C   UNL     1      42.084  -8.987  13.528  1.00  0.00    -0.018 C 
HETATM   15  C   UNL     1      41.706  -8.514  14.930  1.00  0.00     0.010 C 
HETATM   16  C   UNL     1      43.256  -8.166  12.975  1.00  0.00     0.004 C 
HETATM   17  C   UNL     1      43.620  -8.582  11.551  1.00  0.00     0.001 C 
HETATM   18  C   UNL     1      42.412  -8.529  10.619  1.00  0.00     0.006 C 
ENDBRANCH  11  12
ENDBRANCH   7  11
ENDBRANCH   2   5
BRANCH   1  19
HETATM   19  C   UNL     1      41.048 -13.499   5.740  1.00  0.00     0.121 A 
HETATM   20  N   UNL     1      42.354 -13.476   6.143  1.00  0.00    -0.272 N 
HETATM   21  N   UNL     1      43.092 -14.490   5.673  1.00  0.00    -0.174 NA
HETATM   22  H   UNL     1      42.796 -12.782   6.740  1.00  0.00     0.189 HD
HETATM   23  C   UNL     1      42.242 -15.218   4.932  1.00  0.00     0.089 A 
HETATM   24  C   UNL     1      40.945 -14.627   4.950  1.00  0.00     0.071 A 
BRANCH  23  25
HETATM   25  C   UNL     1      42.683 -16.427   4.228  1.00  0.00    -0.006 A 
HETATM   26  C   UNL     1      43.673 -17.262   4.763  1.00  0.00     0.014 A 
HETATM   27  C   UNL     1      44.073 -18.421   4.087  1.00  0.00     0.007 A 
HETATM   28  C   UNL     1      43.498 -18.762   2.858  1.00  0.00    -0.062 A 
HETATM   29  C   UNL     1      43.895 -20.020   2.145  1.00  0.00     0.048 C 
HETATM   30  C   UNL     1      42.507 -17.934   2.321  1.00  0.00     0.007 A 
HETATM   31  C   UNL     1      42.110 -16.776   2.997  1.00  0.00     0.014 A 
ENDBRANCH  23  25
ENDBRANCH   1  19
TORSDOF 5
ENDMDL
MODEL 4
REMARK VINA RESULT:      -9.2      1.359      1.901
REMARK  5 active torsions:
REMARK  status: ('A' for Active; 'I' for Inactive)
REMARK    1  A    between atoms: C_5  and  C_6 
REMARK    2  A    between atoms: C_10  and  C_11 
REMARK       I    between atoms: C_11  and  N_12 
REMARK    3  A    between atoms: N_12  and  N_13 
REMARK       I    between atoms: N_13  and  C_14 
REMARK       I    between atoms: C_14  and  N_15 
REMARK    4  A    between atoms: N_15  and  C_16 
REMARK    5  A    between atoms: C_16  and  C_17 
ROOT
HETATM    1  C   UNL     1      44.583 -11.092   6.777  1.00  0.00     0.288 C 
HETATM    2  N   UNL     1      43.400 -11.046   6.055  1.00  0.00    -0.261 N 
HETATM    3  O   UNL     1      45.650 -11.420   6.260  1.00  0.00    -0.264 OA
HETATM    4  H   UNL     1      42.623 -10.489   6.395  1.00  0.00     0.190 HD
ENDROOT
BRANCH   2   5
HETATM    5  N   UNL     1      43.514 -11.157   4.662  1.00  0.00    -0.249 N 
HETATM    6  C   UNL     1      43.004 -12.196   3.932  1.00  0.00     0.334 C 
HETATM    7  N   UNL     1      42.433 -13.197   4.683  1.00  0.00    -0.341 N 
HETATM    8  O   UNL     1      43.062 -12.199   2.708  1.00  0.00    -0.246 OA
HETATM    9  H   UNL     1      42.908 -13.313   5.567  1.00  0.00     0.164 HD
HETATM   10  H   UNL     1      44.017 -10.423   4.167  1.00  0.00     0.192 HD
BRANCH   7  11
HETATM   11  C   UNL     1      42.008 -14.406   4.004  1.00  0.00     0.129 C 
BRANCH  11  12
HETATM   12  C   UNL     1      43.031 -15.550   4.023  1.00  0.00     0.004 C 
HETATM   13  C   UNL     1      42.575 -16.754   3.185  1.00  0.00     0.010 C 
HETATM   14  C   UNL     1      43.663 -17.838   3.141  1.00  0.00    -0.018 C 
HETATM   15  C   UNL     1      43.198 -19.042   2.323  1.00  0.00     0.010 C 
HETATM   16  C   UNL     1      44.065 -18.267   4.558  1.00  0.00     0.004 C 
HETATM   17  C   UNL     1      44.483 -17.074   5.416  1.00  0.00     0.001 C 
HETATM   18  C   UNL     1      43.406 -15.992   5.444  1.00  0.00     0.006 C 
ENDBRANCH  11  12
ENDBRANCH   7  11
ENDBRANCH   2   5
BRANCH   1  19
HETATM   19  C   UNL     1      44.494 -10.698   8.155  1.00  0.00     0.121 A 
HETATM   20  N   UNL     1      45.579 -10.769   8.982  1.00  0.00    -0.272 N 
HETATM   21  N   UNL     1      45.338 -10.382  10.241  1.00  0.00    -0.174 NA
HETATM   22  H   UNL     1      46.514 -11.082   8.735  1.00  0.00     0.189 HD
HETATM   23  C   UNL     1      44.042 -10.036  10.251  1.00  0.00     0.089 A 
HETATM   24  C   UNL     1      43.475 -10.220   8.956  1.00  0.00     0.071 A 
BRANCH  23  25
HETATM   25  C   UNL     1      43.385  -9.561  11.474  1.00  0.00    -0.006 A 
HETATM   26  C   UNL     1      42.398 -10.323  12.114  1.00  0.00     0.014 A 
HETATM   27  C   UNL     1      41.791  -9.865  13.289  1.00  0.00     0.007 A 
HETATM   28  C   UNL     1      42.151  -8.632  13.842  1.00  0.00    -0.062 A 
HETATM   29  C   UNL     1      41.531  -8.150  15.120  1.00  0.00     0.048 C 
HETATM   30  C   UNL     1      43.138  -7.869  13.210  1.00  0.00     0.007 A 
HETATM   31  C   UNL     1      43.742  -8.327  12.035  1.00  0.00     0.014 A 
ENDBRANCH  23  25
ENDBRANCH   1  19
TORSDOF 5
ENDMDL
MODEL 5
REMARK VINA RESULT:      -9.1      6.751      9.932
REMARK  5 active torsions:
REMARK  status: ('A' for Active; 'I' for Inactive)
REMARK    1  A    between atoms: C_5  and  C_6 
REMARK    2  A    between atoms: C_10  and  C_11 
REMARK       I    between atoms: C_11  and  N_12 
REMARK    3  A    between atoms: N_12  and  N_13 
REMARK       I    between atoms: N_13  and  C_14 
REMARK       I    between atoms: C_14  and  N_15 
REMARK    4  A    between atoms: N_15  and  C_16 
REMARK    5  A    between atoms: C_16  and  C_17 
ROOT
HETATM    1  C   UNL     1      40.005 -13.953   0.623  1.00  0.00     0.288 C 
HETATM    2  N   UNL     1      39.547 -14.332  -0.629  1.00  0.00    -0.261 N 
HETATM    3  O   UNL     1      39.538 -12.985   1.222  1.00  0.00    -0.264 OA
HETATM    4  H   UNL     1      39.706 -15.279  -0.958  1.00  0.00     0.190 HD
ENDROOT
BRANCH   2   5
HETATM    5  N   UNL     1      38.372 -13.713  -1.078  1.00  0.00    -0.249 N 
HETATM    6  C   UNL     1      38.345 -12.677  -1.972  1.00  0.00     0.334 C 
HETATM    7  N   UNL     1      39.585 -12.211  -2.344  1.00  0.00    -0.341 N 
HETATM    8  O   UNL     1      37.285 -12.230  -2.392  1.00  0.00    -0.246 OA
HETATM    9  H   UNL     1      40.249 -12.280  -1.586  1.00  0.00     0.164 HD
HETATM   10  H   UNL     1      37.486 -14.052  -0.707  1.00  0.00     0.192 HD
BRANCH   7  11
HETATM   11  C   UNL     1      39.649 -11.016  -3.164  1.00  0.00     0.129 C 
BRANCH  11  12
HETATM   12  C   UNL     1      40.412  -9.843  -2.536  1.00  0.00     0.004 C 
HETATM   13  C   UNL     1      41.218  -9.048  -3.575  1.00  0.00     0.010 C 
HETATM   14  C   UNL     1      41.887  -7.823  -2.934  1.00  0.00    -0.018 C 
HETATM   15  C   UNL     1      42.704  -7.047  -3.966  1.00  0.00     0.010 C 
HETATM   16  C   UNL     1      42.766  -8.238  -1.746  1.00  0.00     0.004 C 
HETATM   17  C   UNL     1      41.987  -9.063  -0.723  1.00  0.00     0.001 C 
HETATM   18  C   UNL     1      41.310 -10.271  -1.367  1.00  0.00     0.006 C 
ENDBRANCH  11  12
ENDBRANCH   7  11
ENDBRANCH   2   5
BRANCH   1  19
HETATM   19  C   UNL     1      41.031 -14.780   1.195  1.00  0.00     0.121 A 
HETATM   20  N   UNL     1      42.351 -14.445   1.087  1.00  0.00    -0.272 N 
HETATM   21  N   UNL     1      43.189 -15.319   1.657  1.00  0.00    -0.174 NA
HETATM   22  H   UNL     1      42.736 -13.625   0.626  1.00  0.00     0.189 HD
HETATM   23  C   UNL     1      42.394 -16.271   2.169  1.00  0.00     0.089 A 
HETATM   24  C   UNL     1      41.028 -15.968   1.900  1.00  0.00     0.071 A 
BRANCH  23  25
HETATM   25  C   UNL     1      42.947 -17.432   2.876  1.00  0.00    -0.006 A 
HETATM   26  C   UNL     1      43.015 -18.693   2.267  1.00  0.00     0.014 A 
HETATM   27  C   UNL     1      43.560 -19.788   2.947  1.00  0.00     0.007 A 
HETATM   28  C   UNL     1      44.039 -19.647   4.254  1.00  0.00    -0.062 A 
HETATM   29  C   UNL     1      44.656 -20.806   4.978  1.00  0.00     0.048 C 
HETATM   30  C   UNL     1      43.977 -18.391   4.866  1.00  0.00     0.007 A 
HETATM   31  C   UNL     1      43.431 -17.298   4.185  1.00  0.00     0.014 A 
ENDBRANCH  23  25
ENDBRANCH   1  19
TORSDOF 5
ENDMDL
MODEL 6
REMARK VINA RESULT:      -8.8      2.476      4.220
REMARK  5 active torsions:
REMARK  status: ('A' for Active; 'I' for Inactive)
REMARK    1  A    between atoms: C_5  and  C_6 
REMARK    2  A    between atoms: C_10  and  C_11 
REMARK       I    between atoms: C_11  and  N_12 
REMARK    3  A    between atoms: N_12  and  N_13 
REMARK       I    between atoms: N_13  and  C_14 
REMARK       I    between atoms: C_14  and  N_15 
REMARK    4  A    between atoms: N_15  and  C_16 
REMARK    5  A    between atoms: C_16  and  C_17 
ROOT
HETATM    1  C   UNL     1      44.235 -10.164   9.295  1.00  0.00     0.288 C 
HETATM    2  N   UNL     1      43.490 -10.833   8.337  1.00  0.00    -0.261 N 
HETATM    3  O   UNL     1      45.407  -9.842   9.103  1.00  0.00    -0.264 OA
HETATM    4  H   UNL     1      42.476 -10.808   8.378  1.00  0.00     0.190 HD
ENDROOT
BRANCH   2   5
HETATM    5  N   UNL     1      44.052 -10.917   7.055  1.00  0.00    -0.249 N 
HETATM    6  C   UNL     1      43.631 -11.791   6.091  1.00  0.00     0.334 C 
HETATM    7  N   UNL     1      42.652 -12.668   6.499  1.00  0.00    -0.341 N 
HETATM    8  O   UNL     1      44.104 -11.764   4.960  1.00  0.00    -0.246 OA
HETATM    9  H   UNL     1      42.762 -12.917   7.472  1.00  0.00     0.164 HD
HETATM   10  H   UNL     1      44.827 -10.295   6.836  1.00  0.00     0.192 HD
BRANCH   7  11
HETATM   11  C   UNL     1      42.260 -13.728   5.591  1.00  0.00     0.129 C 
BRANCH  11  12
HETATM   12  C   UNL     1      43.060 -15.030   5.736  1.00  0.00     0.004 C 
HETATM   13  C   UNL     1      42.923 -15.937   4.503  1.00  0.00     0.010 C 
HETATM   14  C   UNL     1      43.814 -17.182   4.634  1.00  0.00    -0.018 C 
HETATM   15  C   UNL     1      43.661 -18.091   3.417  1.00  0.00     0.010 C 
HETATM   16  C   UNL     1      43.499 -17.947   5.927  1.00  0.00     0.004 C 
HETATM   17  C   UNL     1      43.592 -17.046   7.157  1.00  0.00     0.001 C 
HETATM   18  C   UNL     1      42.717 -15.803   7.016  1.00  0.00     0.006 C 
ENDBRANCH  11  12
ENDBRANCH   7  11
ENDBRANCH   2   5
BRANCH   1  19
HETATM   19  C   UNL     1      43.545  -9.835  10.512  1.00  0.00     0.121 A 
HETATM   20  N   UNL     1      42.371 -10.448  10.847  1.00  0.00    -0.272 N 
HETATM   21  N   UNL     1      41.840 -10.027  12.001  1.00  0.00    -0.174 NA
HETATM   22  H   UNL     1      41.883 -11.163  10.314  1.00  0.00     0.189 HD
HETATM   23  C   UNL     1      42.698  -9.101  12.455  1.00  0.00     0.089 A 
HETATM   24  C   UNL     1      43.785  -8.951  11.546  1.00  0.00     0.071 A 
BRANCH  23  25
HETATM   25  C   UNL     1      42.457  -8.385  13.713  1.00  0.00    -0.006 A 
HETATM   26  C   UNL     1      43.191  -7.239  14.052  1.00  0.00     0.014 A 
HETATM   27  C   UNL     1      42.939  -6.557  15.248  1.00  0.00     0.007 A 
HETATM   28  C   UNL     1      41.956  -7.011  16.133  1.00  0.00    -0.062 A 
HETATM   29  C   UNL     1      41.656  -6.266  17.400  1.00  0.00     0.048 C 
HETATM   30  C   UNL     1      41.218  -8.151  15.799  1.00  0.00     0.007 A 
HETATM   31  C   UNL     1      41.472  -8.833  14.604  1.00  0.00     0.014 A 
ENDBRANCH  23  25
ENDBRANCH   1  19
TORSDOF 5
ENDMDL
MODEL 7
REMARK VINA RESULT:      -8.8      2.028      9.204
REMARK  5 active torsions:
REMARK  status: ('A' for Active; 'I' for Inactive)
REMARK    1  A    between atoms: C_5  and  C_6 
REMARK    2  A    between atoms: C_10  and  C_11 
REMARK       I    between atoms: C_11  and  N_12 
REMARK    3  A    between atoms: N_12  and  N_13 
REMARK       I    between atoms: N_13  and  C_14 
REMARK       I    between atoms: C_14  and  N_15 
REMARK    4  A    between atoms: N_15  and  C_16 
REMARK    5  A    between atoms: C_16  and  C_17 
ROOT
HETATM    1  C   UNL     1      42.625 -11.539   4.320  1.00  0.00     0.288 C 
HETATM    2  N   UNL     1      41.373 -11.052   4.661  1.00  0.00    -0.261 N 
HETATM    3  O   UNL     1      43.543 -10.796   3.978  1.00  0.00    -0.264 OA
HETATM    4  H   UNL     1      40.748 -11.618   5.226  1.00  0.00     0.190 HD
ENDROOT
BRANCH   2   5
HETATM    5  N   UNL     1      41.267  -9.664   4.829  1.00  0.00    -0.249 N 
HETATM    6  C   UNL     1      41.326  -9.032   6.041  1.00  0.00     0.334 C 
HETATM    7  N   UNL     1      41.409  -9.877   7.123  1.00  0.00    -0.341 N 
HETATM    8  O   UNL     1      41.311  -7.809   6.120  1.00  0.00    -0.246 OA
HETATM    9  H   UNL     1      40.901 -10.735   6.963  1.00  0.00     0.164 HD
HETATM   10  H   UNL     1      41.128  -9.095   3.995  1.00  0.00     0.192 HD
BRANCH   7  11
HETATM   11  C   UNL     1      41.318  -9.301   8.451  1.00  0.00     0.129 C 
BRANCH  11  12
HETATM   12  C   UNL     1      42.668  -9.013   9.123  1.00  0.00     0.004 C 
HETATM   13  C   UNL     1      43.857  -9.383   8.222  1.00  0.00     0.010 C 
HETATM   14  C   UNL     1      45.189  -8.989   8.880  1.00  0.00    -0.018 C 
HETATM   15  C   UNL     1      46.369  -9.376   7.992  1.00  0.00     0.010 C 
HETATM   16  C   UNL     1      45.323  -9.628  10.269  1.00  0.00     0.004 C 
HETATM   17  C   UNL     1      44.127  -9.302  11.162  1.00  0.00     0.001 C 
HETATM   18  C   UNL     1      42.805  -9.680  10.499  1.00  0.00     0.006 C 
ENDBRANCH  11  12
ENDBRANCH   7  11
ENDBRANCH   2   5
BRANCH   1  19
HETATM   19  C   UNL     1      42.797 -12.962   4.425  1.00  0.00     0.121 A 
HETATM   20  N   UNL     1      42.934 -13.569   5.642  1.00  0.00    -0.272 N 
HETATM   21  N   UNL     1      43.100 -14.896   5.578  1.00  0.00    -0.174 NA
HETATM   22  H   UNL     1      42.927 -13.117   6.553  1.00  0.00     0.189 HD
HETATM   23  C   UNL     1      43.066 -15.183   4.269  1.00  0.00     0.089 A 
HETATM   24  C   UNL     1      42.876 -13.992   3.509  1.00  0.00     0.071 A 
BRANCH  23  25
HETATM   25  C   UNL     1      43.228 -16.558   3.782  1.00  0.00    -0.006 A 
HETATM   26  C   UNL     1      42.607 -16.992   2.602  1.00  0.00     0.014 A 
HETATM   27  C   UNL     1      42.783 -18.302   2.142  1.00  0.00     0.007 A 
HETATM   28  C   UNL     1      43.575 -19.207   2.856  1.00  0.00    -0.062 A 
HETATM   29  C   UNL     1      43.797 -20.601   2.351  1.00  0.00     0.048 C 
HETATM   30  C   UNL     1      44.200 -18.779   4.031  1.00  0.00     0.007 A 
HETATM   31  C   UNL     1      44.022 -17.470   4.491  1.00  0.00     0.014 A 
ENDBRANCH  23  25
ENDBRANCH   1  19
TORSDOF 5
ENDMDL
MODEL 8
REMARK VINA RESULT:      -8.5      4.458      8.198
REMARK  5 active torsions:
REMARK  status: ('A' for Active; 'I' for Inactive)
REMARK    1  A    between atoms: C_5  and  C_6 
REMARK    2  A    between atoms: C_10  and  C_11 
REMARK       I    between atoms: C_11  and  N_12 
REMARK    3  A    between atoms: N_12  and  N_13 
REMARK       I    between atoms: N_13  and  C_14 
REMARK       I    between atoms: C_14  and  N_15 
REMARK    4  A    between atoms: N_15  and  C_16 
REMARK    5  A    between atoms: C_16  and  C_17 
ROOT
HETATM    1  C   UNL     1      41.736 -11.769   4.516  1.00  0.00     0.288 C 
HETATM    2  N   UNL     1      42.434 -10.896   3.697  1.00  0.00    -0.261 N 
HETATM    3  O   UNL     1      40.731 -11.420   5.135  1.00  0.00    -0.264 OA
HETATM    4  H   UNL     1      43.043 -11.263   2.973  1.00  0.00     0.190 HD
ENDROOT
BRANCH   2   5
HETATM    5  N   UNL     1      41.814  -9.670   3.416  1.00  0.00    -0.249 N 
HETATM    6  C   UNL     1      41.203  -9.375   2.229  1.00  0.00     0.334 C 
HETATM    7  N   UNL     1      41.315 -10.354   1.268  1.00  0.00    -0.341 N 
HETATM    8  O   UNL     1      40.605  -8.317   2.070  1.00  0.00    -0.246 OA
HETATM    9  H   UNL     1      42.196 -10.841   1.338  1.00  0.00     0.164 HD
HETATM   10  H   UNL     1      41.831  -8.954   4.141  1.00  0.00     0.192 HD
BRANCH   7  11
HETATM   11  C   UNL     1      40.832 -10.060  -0.068  1.00  0.00     0.129 C 
BRANCH  11  12
HETATM   12  C   UNL     1      40.246 -11.263  -0.819  1.00  0.00     0.004 C 
HETATM   13  C   UNL     1      40.401 -12.574  -0.033  1.00  0.00     0.010 C 
HETATM   14  C   UNL     1      39.715 -13.739  -0.763  1.00  0.00    -0.018 C 
HETATM   15  C   UNL     1      39.888 -15.043   0.011  1.00  0.00     0.010 C 
HETATM   16  C   UNL     1      40.253 -13.880  -2.194  1.00  0.00     0.004 C 
HETATM   17  C   UNL     1      40.142 -12.572  -2.975  1.00  0.00     0.001 C 
HETATM   18  C   UNL     1      40.811 -11.414  -2.238  1.00  0.00     0.006 C 
ENDBRANCH  11  12
ENDBRANCH   7  11
ENDBRANCH   2   5
BRANCH   1  19
HETATM   19  C   UNL     1      42.233 -13.115   4.571  1.00  0.00     0.121 A 
HETATM   20  N   UNL     1      42.896 -13.580   5.672  1.00  0.00    -0.272 N 
HETATM   21  N   UNL     1      43.312 -14.848   5.569  1.00  0.00    -0.174 NA
HETATM   22  H   UNL     1      43.097 -13.065   6.525  1.00  0.00     0.189 HD
HETATM   23  C   UNL     1      42.905 -15.245   4.353  1.00  0.00     0.089 A 
HETATM   24  C   UNL     1      42.221 -14.182   3.694  1.00  0.00     0.071 A 
BRANCH  23  25
HETATM   25  C   UNL     1      43.185 -16.596   3.855  1.00  0.00    -0.006 A 
HETATM   26  C   UNL     1      44.006 -17.481   4.569  1.00  0.00     0.014 A 
HETATM   27  C   UNL     1      44.252 -18.773   4.089  1.00  0.00     0.007 A 
HETATM   28  C   UNL     1      43.691 -19.202   2.882  1.00  0.00    -0.062 A 
HETATM   29  C   UNL     1      43.922 -20.595   2.378  1.00  0.00     0.048 C 
HETATM   30  C   UNL     1      42.870 -18.325   2.167  1.00  0.00     0.007 A 
HETATM   31  C   UNL     1      42.626 -17.034   2.647  1.00  0.00     0.014 A 
ENDBRANCH  23  25
ENDBRANCH   1  19
TORSDOF 5
ENDMDL
MODEL 9
REMARK VINA RESULT:      -8.4      3.118      5.403
REMARK  5 active torsions:
REMARK  status: ('A' for Active; 'I' for Inactive)
REMARK    1  A    between atoms: C_5  and  C_6 
REMARK    2  A    between atoms: C_10  and  C_11 
REMARK       I    between atoms: C_11  and  N_12 
REMARK    3  A    between atoms: N_12  and  N_13 
REMARK       I    between atoms: N_13  and  C_14 
REMARK       I    between atoms: C_14  and  N_15 
REMARK    4  A    between atoms: N_15  and  C_16 
REMARK    5  A    between atoms: C_16  and  C_17 
ROOT
HETATM    1  C   UNL     1      43.829 -10.457  10.363  1.00  0.00     0.288 C 
HETATM    2  N   UNL     1      43.428 -10.557   9.040  1.00  0.00    -0.261 N 
HETATM    3  O   UNL     1      44.955 -10.788  10.731  1.00  0.00    -0.264 OA
HETATM    4  H   UNL     1      42.644 -10.005   8.707  1.00  0.00     0.190 HD
ENDROOT
BRANCH   2   5
HETATM    5  N   UNL     1      44.434 -10.826   8.101  1.00  0.00    -0.249 N 
HETATM    6  C   UNL     1      44.446 -11.923   7.284  1.00  0.00     0.334 C 
HETATM    7  N   UNL     1      43.424 -12.816   7.510  1.00  0.00    -0.341 N 
HETATM    8  O   UNL     1      45.308 -12.064   6.424  1.00  0.00    -0.246 OA
HETATM    9  H   UNL     1      43.170 -12.848   8.487  1.00  0.00     0.164 HD
HETATM   10  H   UNL     1      45.207 -10.167   8.034  1.00  0.00     0.192 HD
BRANCH   7  11
HETATM   11  C   UNL     1      43.448 -14.079   6.797  1.00  0.00     0.129 C 
BRANCH  11  12
HETATM   12  C   UNL     1      42.206 -14.361   5.942  1.00  0.00     0.004 C 
HETATM   13  C   UNL     1      42.521 -15.258   4.735  1.00  0.00     0.010 C 
HETATM   14  C   UNL     1      41.242 -15.605   3.957  1.00  0.00    -0.018 C 
HETATM   15  C   UNL     1      41.562 -16.480   2.747  1.00  0.00     0.010 C 
HETATM   16  C   UNL     1      40.502 -14.332   3.526  1.00  0.00     0.004 C 
HETATM   17  C   UNL     1      40.217 -13.411   4.712  1.00  0.00     0.001 C 
HETATM   18  C   UNL     1      41.488 -13.081   5.491  1.00  0.00     0.006 C 
ENDBRANCH  11  12
ENDBRANCH   7  11
ENDBRANCH   2   5
BRANCH   1  19
HETATM   19  C   UNL     1      42.862  -9.909  11.274  1.00  0.00     0.121 A 
HETATM   20  N   UNL     1      41.524 -10.123  11.097  1.00  0.00    -0.272 N 
HETATM   21  N   UNL     1      40.747  -9.537  12.017  1.00  0.00    -0.174 NA
HETATM   22  H   UNL     1      41.085 -10.662  10.355  1.00  0.00     0.189 HD
HETATM   23  C   UNL     1      41.602  -8.913  12.841  1.00  0.00     0.089 A 
HETATM   24  C   UNL     1      42.944  -9.124  12.407  1.00  0.00     0.071 A 
BRANCH  23  25
HETATM   25  C   UNL     1      41.128  -8.134  13.990  1.00  0.00    -0.006 A 
HETATM   26  C   UNL     1      40.125  -7.165  13.850  1.00  0.00     0.014 A 
HETATM   27  C   UNL     1      39.672  -6.440  14.959  1.00  0.00     0.007 A 
HETATM   28  C   UNL     1      40.218  -6.663  16.226  1.00  0.00    -0.062 A 
HETATM   29  C   UNL     1      39.714  -5.916  17.425  1.00  0.00     0.048 C 
HETATM   30  C   UNL     1      41.217  -7.631  16.373  1.00  0.00     0.007 A 
HETATM   31  C   UNL     1      41.670  -8.353  15.264  1.00  0.00     0.014 A 
ENDBRANCH  23  25
ENDBRANCH   1  19
TORSDOF 5
ENDMDL
MODEL 10
REMARK VINA RESULT:      -8.3      4.699      8.645
REMARK  5 active torsions:
REMARK  status: ('A' for Active; 'I' for Inactive)
REMARK    1  A    between atoms: C_5  and  C_6 
REMARK    2  A    between atoms: C_10  and  C_11 
REMARK       I    between atoms: C_11  and  N_12 
REMARK    3  A    between atoms: N_12  and  N_13 
REMARK       I    between atoms: N_13  and  C_14 
REMARK       I    between atoms: C_14  and  N_15 
REMARK    4  A    between atoms: N_15  and  C_16 
REMARK    5  A    between atoms: C_16  and  C_17 
ROOT
HETATM    1  C   UNL     1      40.494 -13.394   4.936  1.00  0.00     0.288 C 
HETATM    2  N   UNL     1      41.695 -14.025   5.220  1.00  0.00    -0.261 N 
HETATM    3  O   UNL     1      39.719 -13.036   5.823  1.00  0.00    -0.264 OA
HETATM    4  H   UNL     1      42.440 -14.025   4.531  1.00  0.00     0.190 HD
ENDROOT
BRANCH   2   5
HETATM    5  N   UNL     1      42.099 -14.024   6.563  1.00  0.00    -0.249 N 
HETATM    6  C   UNL     1      42.745 -15.067   7.168  1.00  0.00     0.334 C 
HETATM    7  N   UNL     1      42.900 -16.182   6.377  1.00  0.00    -0.341 N 
HETATM    8  O   UNL     1      43.149 -14.978   8.322  1.00  0.00    -0.246 OA
HETATM    9  H   UNL     1      42.121 -16.297   5.745  1.00  0.00     0.164 HD
HETATM   10  H   UNL     1      41.887 -13.199   7.121  1.00  0.00     0.192 HD
BRANCH   7  11
HETATM   11  C   UNL     1      43.433 -17.385   6.986  1.00  0.00     0.129 C 
BRANCH  11  12
HETATM   12  C   UNL     1      43.921 -18.448   5.994  1.00  0.00     0.004 C 
HETATM   13  C   UNL     1      43.442 -18.171   4.560  1.00  0.00     0.010 C 
HETATM   14  C   UNL     1      44.030 -19.193   3.575  1.00  0.00    -0.018 C 
HETATM   15  C   UNL     1      43.536 -18.926   2.155  1.00  0.00     0.010 C 
HETATM   16  C   UNL     1      43.693 -20.626   4.007  1.00  0.00     0.004 C 
HETATM   17  C   UNL     1      44.128 -20.904   5.445  1.00  0.00     0.001 C 
HETATM   18  C   UNL     1      43.554 -19.877   6.419  1.00  0.00     0.006 C 
ENDBRANCH  11  12
ENDBRANCH   7  11
ENDBRANCH   2   5
BRANCH   1  19
HETATM   19  C   UNL     1      40.224 -13.149   3.547  1.00  0.00     0.121 A 
HETATM   20  N   UNL     1      40.394 -11.907   3.002  1.00  0.00    -0.272 N 
HETATM   21  N   UNL     1      40.089 -11.832   1.700  1.00  0.00    -0.174 NA
HETATM   22  H   UNL     1      40.713 -11.070   3.481  1.00  0.00     0.189 HD
HETATM   23  C   UNL     1      39.707 -13.074   1.365  1.00  0.00     0.089 A 
HETATM   24  C   UNL     1      39.779 -13.933   2.500  1.00  0.00     0.071 A 
BRANCH  23  25
HETATM   25  C   UNL     1      39.277 -13.401   0.001  1.00  0.00    -0.006 A 
HETATM   26  C   UNL     1      39.674 -14.592  -0.623  1.00  0.00     0.014 A 
HETATM   27  C   UNL     1      39.243 -14.898  -1.919  1.00  0.00     0.007 A 
HETATM   28  C   UNL     1      38.415 -14.016  -2.621  1.00  0.00    -0.062 A 
HETATM   29  C   UNL     1      37.921 -14.352  -3.996  1.00  0.00     0.048 C 
HETATM   30  C   UNL     1      38.014 -12.827  -2.003  1.00  0.00     0.007 A 
HETATM   31  C   UNL     1      38.446 -12.522  -0.708  1.00  0.00     0.014 A 
ENDBRANCH  23  25
ENDBRANCH   1  19
TORSDOF 5
ENDMDL
