MODEL 1
REMARK VINA RESULT:      -8.6      0.000      0.000
REMARK  8 active torsions:
REMARK  status: ('A' for Active; 'I' for Inactive)
REMARK    1  A    between atoms: C_2  and  C_3 
REMARK    2  A    between atoms: C_3  and  C_4 
REMARK       I    between atoms: C_4  and  N_5 
REMARK    3  A    between atoms: N_8  and  C_9 
REMARK    4  A    between atoms: C_13  and  N_14 
REMARK    5  A    between atoms: N_14  and  C_15 
REMARK    6  A    between atoms: C_15  and  N_16 
REMARK       I    between atoms: N_16  and  C_17 
REMARK    7  A    between atoms: C_17  and  C_18 
REMARK    8  A    between atoms: C_20  and  O_21 
ROOT
HETATM    1  C   UNL     1      43.582 -10.129   7.499  1.00  0.00     0.052 A 
HETATM    2  C   UNL     1      44.772 -10.735   7.028  1.00  0.00     0.062 A 
HETATM    3 CL   UNL     1      46.276 -10.585   7.881  1.00  0.00    -0.082 Cl
HETATM    4  C   UNL     1      44.819 -11.408   5.792  1.00  0.00     0.055 A 
HETATM    5  C   UNL     1      43.697 -11.440   4.965  1.00  0.00     0.036 A 
HETATM    6  C   UNL     1      42.501 -10.919   5.447  1.00  0.00     0.032 A 
HETATM    7  C   UNL     1      42.445 -10.281   6.690  1.00  0.00     0.033 A 
ENDROOT
BRANCH   5   8
HETATM    8  N   UNL     1      43.807 -12.026   3.686  1.00  0.00    -0.333 N 
HETATM    9  H   UNL     1      44.581 -11.707   3.102  1.00  0.00     0.168 HD
BRANCH   8  10
HETATM   10  C   UNL     1      42.896 -12.819   3.027  1.00  0.00     0.179 C 
HETATM   11  S   UNL     1      41.515 -12.365   2.194  1.00  0.00    -0.040 SA
BRANCH  10  12
HETATM   12  N   UNL     1      43.162 -14.173   3.031  1.00  0.00    -0.299 N 
HETATM   13  C   UNL     1      43.098 -15.089   4.070  1.00  0.00     0.257 C 
HETATM   14  O   UNL     1      42.932 -14.786   5.247  1.00  0.00    -0.267 OA
HETATM   15  H   UNL     1      43.309 -14.524   2.095  1.00  0.00     0.171 HD
BRANCH  13  16
HETATM   16  C   UNL     1      43.222 -16.515   3.658  1.00  0.00     0.035 A 
HETATM   17  C   UNL     1      43.858 -17.463   4.472  1.00  0.00     0.053 A 
HETATM   18  C   UNL     1      44.052 -18.771   4.018  1.00  0.00     0.069 A 
HETATM   19  C   UNL     1      43.577 -19.140   2.760  1.00  0.00     0.037 A 
HETATM   20  C   UNL     1      42.908 -18.206   1.961  1.00  0.00     0.004 A 
HETATM   21  C   UNL     1      42.730 -16.896   2.409  1.00  0.00     0.017 A 
BRANCH  18  22
HETATM   22  O   UNL     1      44.718 -19.580   4.897  1.00  0.00    -0.356 OA
HETATM   23  C   UNL     1      43.996 -20.685   5.430  1.00  0.00     0.210 C 
ENDBRANCH  18  22
ENDBRANCH  13  16
ENDBRANCH  10  12
ENDBRANCH   8  10
ENDBRANCH   5   8
BRANCH   1  24
HETATM   24  N   UNL     1      43.538  -9.354   8.674  1.00  0.00    -0.376 N 
HETATM   25  C   UNL     1      43.463 -10.114   9.941  1.00  0.00     0.143 C 
HETATM   26  C   UNL     1      43.813  -9.190  11.131  1.00  0.00     0.145 C 
HETATM   27  N   UNL     1      43.029  -7.941  11.137  1.00  0.00    -0.349 N 
HETATM   28  C   UNL     1      42.747  -7.185  12.269  1.00  0.00     0.219 C 
HETATM   29  C   UNL     1      42.956  -7.251   9.843  1.00  0.00     0.145 C 
HETATM   30  O   UNL     1      42.172  -6.100  12.194  1.00  0.00    -0.273 OA
HETATM   31  C   UNL     1      42.623  -8.190   8.679  1.00  0.00     0.143 C 
BRANCH  28  32
HETATM   32  C   UNL     1      43.168  -7.767  13.611  1.00  0.00     0.103 C 
BRANCH  32  33
HETATM   33  C   UNL     1      41.988  -8.118  14.522  1.00  0.00     0.005 C 
HETATM   34  C   UNL     1      41.053  -9.156  13.916  1.00  0.00     0.005 C 
ENDBRANCH  32  33
ENDBRANCH  28  32
ENDBRANCH   1  24
TORSDOF 8
ENDMDL
MODEL 2
REMARK VINA RESULT:      -8.5      2.296      3.316
REMARK  8 active torsions:
REMARK  status: ('A' for Active; 'I' for Inactive)
REMARK    1  A    between atoms: C_2  and  C_3 
REMARK    2  A    between atoms: C_3  and  C_4 
REMARK       I    between atoms: C_4  and  N_5 
REMARK    3  A    between atoms: N_8  and  C_9 
REMARK    4  A    between atoms: C_13  and  N_14 
REMARK    5  A    between atoms: N_14  and  C_15 
REMARK    6  A    between atoms: C_15  and  N_16 
REMARK       I    between atoms: N_16  and  C_17 
REMARK    7  A    between atoms: C_17  and  C_18 
REMARK    8  A    between atoms: C_20  and  O_21 
ROOT
HETATM    1  C   UNL     1      42.547 -11.441   5.258  1.00  0.00     0.052 A 
HETATM    2  C   UNL     1      41.266 -11.932   4.907  1.00  0.00     0.062 A 
HETATM    3 CL   UNL     1      39.972 -12.022   6.060  1.00  0.00    -0.082 Cl
HETATM    4  C   UNL     1      41.003 -12.466   3.631  1.00  0.00     0.055 A 
HETATM    5  C   UNL     1      42.027 -12.579   2.692  1.00  0.00     0.036 A 
HETATM    6  C   UNL     1      43.269 -12.031   2.992  1.00  0.00     0.032 A 
HETATM    7  C   UNL     1      43.521 -11.470   4.248  1.00  0.00     0.033 A 
ENDROOT
BRANCH   5   8
HETATM    8  N   UNL     1      41.758 -13.219   1.462  1.00  0.00    -0.333 N 
HETATM    9  H   UNL     1      41.843 -12.647   0.621  1.00  0.00     0.168 HD
BRANCH   8  10
HETATM   10  C   UNL     1      41.192 -14.454   1.247  1.00  0.00     0.179 C 
HETATM   11  S   UNL     1      39.932 -14.870   0.223  1.00  0.00    -0.040 SA
BRANCH  10  12
HETATM   12  N   UNL     1      41.748 -15.502   1.951  1.00  0.00    -0.299 N 
HETATM   13  C   UNL     1      43.076 -15.876   2.089  1.00  0.00     0.257 C 
HETATM   14  O   UNL     1      43.999 -15.390   1.443  1.00  0.00    -0.267 OA
HETATM   15  H   UNL     1      41.060 -15.969   2.526  1.00  0.00     0.171 HD
BRANCH  13  16
HETATM   16  C   UNL     1      43.331 -16.920   3.120  1.00  0.00     0.035 A 
HETATM   17  C   UNL     1      43.310 -16.622   4.490  1.00  0.00     0.053 A 
HETATM   18  C   UNL     1      43.653 -17.595   5.433  1.00  0.00     0.069 A 
HETATM   19  C   UNL     1      43.984 -18.881   5.005  1.00  0.00     0.037 A 
HETATM   20  C   UNL     1      43.969 -19.192   3.641  1.00  0.00     0.004 A 
HETATM   21  C   UNL     1      43.642 -18.215   2.700  1.00  0.00     0.017 A 
BRANCH  18  22
HETATM   22  O   UNL     1      43.626 -17.159   6.729  1.00  0.00    -0.356 OA
HETATM   23  C   UNL     1      42.542 -16.315   7.103  1.00  0.00     0.210 C 
ENDBRANCH  18  22
ENDBRANCH  13  16
ENDBRANCH  10  12
ENDBRANCH   8  10
ENDBRANCH   5   8
BRANCH   1  24
HETATM   24  N   UNL     1      42.864 -11.009   6.560  1.00  0.00    -0.376 N 
HETATM   25  C   UNL     1      42.329  -9.686   6.946  1.00  0.00     0.143 C 
HETATM   26  C   UNL     1      42.409  -9.513   8.481  1.00  0.00     0.145 C 
HETATM   27  N   UNL     1      43.751  -9.794   9.021  1.00  0.00    -0.349 N 
HETATM   28  C   UNL     1      44.258  -9.268  10.204  1.00  0.00     0.219 C 
HETATM   29  C   UNL     1      44.372 -11.028   8.524  1.00  0.00     0.145 C 
HETATM   30  O   UNL     1      45.349  -9.619  10.651  1.00  0.00    -0.273 OA
HETATM   31  C   UNL     1      44.267 -11.183   7.003  1.00  0.00     0.143 C 
BRANCH  28  32
HETATM   32  C   UNL     1      43.409  -8.224  10.916  1.00  0.00     0.103 C 
BRANCH  32  33
HETATM   33  C   UNL     1      42.941  -8.662  12.307  1.00  0.00     0.005 C 
HETATM   34  C   UNL     1      43.286  -7.656  13.398  1.00  0.00     0.005 C 
ENDBRANCH  32  33
ENDBRANCH  28  32
ENDBRANCH   1  24
TORSDOF 8
ENDMDL
MODEL 3
REMARK VINA RESULT:      -8.1      2.870      9.551
REMARK  8 active torsions:
REMARK  status: ('A' for Active; 'I' for Inactive)
REMARK    1  A    between atoms: C_2  and  C_3 
REMARK    2  A    between atoms: C_3  and  C_4 
REMARK       I    between atoms: C_4  and  N_5 
REMARK    3  A    between atoms: N_8  and  C_9 
REMARK    4  A    between atoms: C_13  and  N_14 
REMARK    5  A    between atoms: N_14  and  C_15 
REMARK    6  A    between atoms: C_15  and  N_16 
REMARK       I    between atoms: N_16  and  C_17 
REMARK    7  A    between atoms: C_17  and  C_18 
REMARK    8  A    between atoms: C_20  and  O_21 
ROOT
HETATM    1  C   UNL     1      41.250 -12.509   5.150  1.00  0.00     0.052 A 
HETATM    2  C   UNL     1      41.609 -11.247   4.618  1.00  0.00     0.062 A 
HETATM    3 CL   UNL     1      42.988 -11.048   3.581  1.00  0.00    -0.082 Cl
HETATM    4  C   UNL     1      40.927 -10.070   4.980  1.00  0.00     0.055 A 
HETATM    5  C   UNL     1      39.907 -10.112   5.929  1.00  0.00     0.036 A 
HETATM    6  C   UNL     1      39.490 -11.352   6.403  1.00  0.00     0.032 A 
HETATM    7  C   UNL     1      40.146 -12.525   6.017  1.00  0.00     0.033 A 
ENDROOT
BRANCH   5   8
HETATM    8  N   UNL     1      39.317  -8.902   6.352  1.00  0.00    -0.333 N 
HETATM    9  H   UNL     1      38.371  -8.713   6.019  1.00  0.00     0.168 HD
BRANCH   8  10
HETATM   10  C   UNL     1      39.913  -7.835   6.985  1.00  0.00     0.179 C 
HETATM   11  S   UNL     1      39.492  -6.214   6.935  1.00  0.00    -0.040 SA
BRANCH  10  12
HETATM   12  N   UNL     1      40.993  -8.137   7.788  1.00  0.00    -0.299 N 
HETATM   13  C   UNL     1      41.054  -8.888   8.952  1.00  0.00     0.257 C 
HETATM   14  O   UNL     1      40.069  -9.295   9.561  1.00  0.00    -0.267 OA
HETATM   15  H   UNL     1      41.863  -7.844   7.365  1.00  0.00     0.171 HD
BRANCH  13  16
HETATM   16  C   UNL     1      42.430  -9.206   9.424  1.00  0.00     0.035 A 
HETATM   17  C   UNL     1      43.302 -10.002   8.668  1.00  0.00     0.053 A 
HETATM   18  C   UNL     1      44.549 -10.370   9.179  1.00  0.00     0.069 A 
HETATM   19  C   UNL     1      44.940  -9.910  10.436  1.00  0.00     0.037 A 
HETATM   20  C   UNL     1      44.088  -9.084  11.177  1.00  0.00     0.004 A 
HETATM   21  C   UNL     1      42.836  -8.731  10.673  1.00  0.00     0.017 A 
BRANCH  18  22
HETATM   22  O   UNL     1      45.281 -11.177   8.353  1.00  0.00    -0.356 OA
HETATM   23  C   UNL     1      44.610 -11.719   7.221  1.00  0.00     0.210 C 
ENDBRANCH  18  22
ENDBRANCH  13  16
ENDBRANCH  10  12
ENDBRANCH   8  10
ENDBRANCH   5   8
BRANCH   1  24
HETATM   24  N   UNL     1      41.988 -13.680   4.893  1.00  0.00    -0.376 N 
HETATM   25  C   UNL     1      41.534 -14.484   3.738  1.00  0.00     0.143 C 
HETATM   26  C   UNL     1      42.634 -15.494   3.335  1.00  0.00     0.145 C 
HETATM   27  N   UNL     1      43.116 -16.301   4.470  1.00  0.00    -0.349 N 
HETATM   28  C   UNL     1      43.686 -17.565   4.363  1.00  0.00     0.219 C 
HETATM   29  C   UNL     1      43.420 -15.537   5.686  1.00  0.00     0.145 C 
HETATM   30  O   UNL     1      44.159 -18.145   5.340  1.00  0.00    -0.273 OA
HETATM   31  C   UNL     1      42.323 -14.533   6.056  1.00  0.00     0.143 C 
BRANCH  28  32
HETATM   32  C   UNL     1      43.687 -18.207   2.983  1.00  0.00     0.103 C 
BRANCH  32  33
HETATM   33  C   UNL     1      43.804 -19.733   3.019  1.00  0.00     0.005 C 
HETATM   34  C   UNL     1      43.462 -20.391   1.688  1.00  0.00     0.005 C 
ENDBRANCH  32  33
ENDBRANCH  28  32
ENDBRANCH   1  24
TORSDOF 8
ENDMDL
MODEL 4
REMARK VINA RESULT:      -8.1      2.872     10.361
REMARK  8 active torsions:
REMARK  status: ('A' for Active; 'I' for Inactive)
REMARK    1  A    between atoms: C_2  and  C_3 
REMARK    2  A    between atoms: C_3  and  C_4 
REMARK       I    between atoms: C_4  and  N_5 
REMARK    3  A    between atoms: N_8  and  C_9 
REMARK    4  A    between atoms: C_13  and  N_14 
REMARK    5  A    between atoms: N_14  and  C_15 
REMARK    6  A    between atoms: C_15  and  N_16 
REMARK       I    between atoms: N_16  and  C_17 
REMARK    7  A    between atoms: C_17  and  C_18 
REMARK    8  A    between atoms: C_20  and  O_21 
ROOT
HETATM    1  C   UNL     1      41.797 -13.574   5.929  1.00  0.00     0.052 A 
HETATM    2  C   UNL     1      42.531 -12.367   6.033  1.00  0.00     0.062 A 
HETATM    3 CL   UNL     1      44.266 -12.352   6.102  1.00  0.00    -0.082 Cl
HETATM    4  C   UNL     1      41.891 -11.122   6.186  1.00  0.00     0.055 A 
HETATM    5  C   UNL     1      40.503 -11.056   6.300  1.00  0.00     0.036 A 
HETATM    6  C   UNL     1      39.764 -12.220   6.122  1.00  0.00     0.032 A 
HETATM    7  C   UNL     1      40.399 -13.452   5.936  1.00  0.00     0.033 A 
ENDROOT
BRANCH   5   8
HETATM    8  N   UNL     1      39.899  -9.807   6.563  1.00  0.00    -0.333 N 
HETATM    9  H   UNL     1      38.996  -9.634   6.120  1.00  0.00     0.168 HD
BRANCH   8  10
HETATM   10  C   UNL     1      40.450  -8.700   7.166  1.00  0.00     0.179 C 
HETATM   11  S   UNL     1      41.007  -7.286   6.461  1.00  0.00    -0.040 SA
BRANCH  10  12
HETATM   12  N   UNL     1      40.540  -8.746   8.542  1.00  0.00    -0.299 N 
HETATM   13  C   UNL     1      39.748  -9.415   9.463  1.00  0.00     0.257 C 
HETATM   14  O   UNL     1      38.694  -9.978   9.185  1.00  0.00    -0.267 OA
HETATM   15  H   UNL     1      41.388  -8.307   8.873  1.00  0.00     0.171 HD
BRANCH  13  16
HETATM   16  C   UNL     1      40.281  -9.432  10.854  1.00  0.00     0.035 A 
HETATM   17  C   UNL     1      41.478  -8.784  11.191  1.00  0.00     0.053 A 
HETATM   18  C   UNL     1      42.009  -8.902  12.478  1.00  0.00     0.069 A 
HETATM   19  C   UNL     1      41.322  -9.642  13.441  1.00  0.00     0.037 A 
HETATM   20  C   UNL     1      40.109 -10.257  13.118  1.00  0.00     0.004 A 
HETATM   21  C   UNL     1      39.588 -10.153  11.828  1.00  0.00     0.017 A 
BRANCH  18  22
HETATM   22  O   UNL     1      43.198  -8.251  12.659  1.00  0.00    -0.356 OA
HETATM   23  C   UNL     1      43.288  -7.371  13.775  1.00  0.00     0.210 C 
ENDBRANCH  18  22
ENDBRANCH  13  16
ENDBRANCH  10  12
ENDBRANCH   8  10
ENDBRANCH   5   8
BRANCH   1  24
HETATM   24  N   UNL     1      42.416 -14.838   5.892  1.00  0.00    -0.376 N 
HETATM   25  C   UNL     1      42.685 -15.380   4.543  1.00  0.00     0.143 C 
HETATM   26  C   UNL     1      43.692 -16.550   4.637  1.00  0.00     0.145 C 
HETATM   27  N   UNL     1      43.295 -17.572   5.622  1.00  0.00    -0.349 N 
HETATM   28  C   UNL     1      43.681 -18.907   5.583  1.00  0.00     0.219 C 
HETATM   29  C   UNL     1      42.867 -17.043   6.923  1.00  0.00     0.145 C 
HETATM   30  O   UNL     1      43.395 -19.688   6.491  1.00  0.00    -0.273 OA
HETATM   31  C   UNL     1      41.881 -15.876   6.803  1.00  0.00     0.143 C 
BRANCH  28  32
HETATM   32  C   UNL     1      44.460 -19.366   4.359  1.00  0.00     0.103 C 
BRANCH  32  33
HETATM   33  C   UNL     1      43.819 -20.553   3.635  1.00  0.00     0.005 C 
HETATM   34  C   UNL     1      43.336 -20.207   2.232  1.00  0.00     0.005 C 
ENDBRANCH  32  33
ENDBRANCH  28  32
ENDBRANCH   1  24
TORSDOF 8
ENDMDL
MODEL 5
REMARK VINA RESULT:      -8.0      2.671      3.545
REMARK  8 active torsions:
REMARK  status: ('A' for Active; 'I' for Inactive)
REMARK    1  A    between atoms: C_2  and  C_3 
REMARK    2  A    between atoms: C_3  and  C_4 
REMARK       I    between atoms: C_4  and  N_5 
REMARK    3  A    between atoms: N_8  and  C_9 
REMARK    4  A    between atoms: C_13  and  N_14 
REMARK    5  A    between atoms: N_14  and  C_15 
REMARK    6  A    between atoms: C_15  and  N_16 
REMARK       I    between atoms: N_16  and  C_17 
REMARK    7  A    between atoms: C_17  and  C_18 
REMARK    8  A    between atoms: C_20  and  O_21 
ROOT
HETATM    1  C   UNL     1      40.666 -11.240   5.412  1.00  0.00     0.052 A 
HETATM    2  C   UNL     1      40.279 -10.832   4.112  1.00  0.00     0.062 A 
HETATM    3 CL   UNL     1      40.144  -9.156   3.679  1.00  0.00    -0.082 Cl
HETATM    4  C   UNL     1      39.888 -11.763   3.131  1.00  0.00     0.055 A 
HETATM    5  C   UNL     1      39.814 -13.121   3.440  1.00  0.00     0.036 A 
HETATM    6  C   UNL     1      40.265 -13.545   4.685  1.00  0.00     0.032 A 
HETATM    7  C   UNL     1      40.686 -12.623   5.648  1.00  0.00     0.033 A 
ENDROOT
BRANCH   5   8
HETATM    8  N   UNL     1      39.314 -14.015   2.470  1.00  0.00    -0.333 N 
HETATM    9  H   UNL     1      38.344 -14.314   2.579  1.00  0.00     0.168 HD
BRANCH   8  10
HETATM   10  C   UNL     1      40.010 -14.711   1.508  1.00  0.00     0.179 C 
HETATM   11  S   UNL     1      39.912 -14.583  -0.160  1.00  0.00    -0.040 SA
BRANCH  10  12
HETATM   12  N   UNL     1      40.933 -15.624   1.974  1.00  0.00    -0.299 N 
HETATM   13  C   UNL     1      42.302 -15.494   2.153  1.00  0.00     0.257 C 
HETATM   14  O   UNL     1      42.960 -14.538   1.757  1.00  0.00    -0.267 OA
HETATM   15  H   UNL     1      40.483 -16.456   2.333  1.00  0.00     0.171 HD
BRANCH  13  16
HETATM   16  C   UNL     1      42.946 -16.608   2.903  1.00  0.00     0.035 A 
HETATM   17  C   UNL     1      43.360 -16.456   4.234  1.00  0.00     0.053 A 
HETATM   18  C   UNL     1      44.054 -17.482   4.881  1.00  0.00     0.069 A 
HETATM   19  C   UNL     1      44.303 -18.676   4.206  1.00  0.00     0.037 A 
HETATM   20  C   UNL     1      43.858 -18.845   2.891  1.00  0.00     0.004 A 
HETATM   21  C   UNL     1      43.180 -17.814   2.240  1.00  0.00     0.017 A 
BRANCH  18  22
HETATM   22  O   UNL     1      44.430 -17.187   6.163  1.00  0.00    -0.356 OA
HETATM   23  C   UNL     1      43.392 -16.864   7.081  1.00  0.00     0.210 C 
ENDBRANCH  18  22
ENDBRANCH  13  16
ENDBRANCH  10  12
ENDBRANCH   8  10
ENDBRANCH   5   8
BRANCH   1  24
HETATM   24  N   UNL     1      40.950 -10.323   6.442  1.00  0.00    -0.376 N 
HETATM   25  C   UNL     1      42.258 -10.493   7.110  1.00  0.00     0.143 C 
HETATM   26  C   UNL     1      42.605  -9.223   7.921  1.00  0.00     0.145 C 
HETATM   27  N   UNL     1      41.521  -8.808   8.829  1.00  0.00    -0.349 N 
HETATM   28  C   UNL     1      41.698  -8.065   9.991  1.00  0.00     0.219 C 
HETATM   29  C   UNL     1      40.183  -8.787   8.226  1.00  0.00     0.145 C 
HETATM   30  O   UNL     1      40.741  -7.667  10.655  1.00  0.00    -0.273 OA
HETATM   31  C   UNL     1      39.869 -10.050   7.416  1.00  0.00     0.143 C 
BRANCH  28  32
HETATM   32  C   UNL     1      43.131  -7.779  10.417  1.00  0.00     0.103 C 
BRANCH  32  33
HETATM   33  C   UNL     1      43.543  -8.502  11.702  1.00  0.00     0.005 C 
HETATM   34  C   UNL     1      43.546 -10.019  11.560  1.00  0.00     0.005 C 
ENDBRANCH  32  33
ENDBRANCH  28  32
ENDBRANCH   1  24
TORSDOF 8
ENDMDL
MODEL 6
REMARK VINA RESULT:      -8.0      2.641     10.345
REMARK  8 active torsions:
REMARK  status: ('A' for Active; 'I' for Inactive)
REMARK    1  A    between atoms: C_2  and  C_3 
REMARK    2  A    between atoms: C_3  and  C_4 
REMARK       I    between atoms: C_4  and  N_5 
REMARK    3  A    between atoms: N_8  and  C_9 
REMARK    4  A    between atoms: C_13  and  N_14 
REMARK    5  A    between atoms: N_14  and  C_15 
REMARK    6  A    between atoms: C_15  and  N_16 
REMARK       I    between atoms: N_16  and  C_17 
REMARK    7  A    between atoms: C_17  and  C_18 
REMARK    8  A    between atoms: C_20  and  O_21 
ROOT
HETATM    1  C   UNL     1      41.820 -12.975   5.582  1.00  0.00     0.052 A 
HETATM    2  C   UNL     1      42.498 -11.732   5.618  1.00  0.00     0.062 A 
HETATM    3 CL   UNL     1      44.201 -11.608   5.306  1.00  0.00    -0.082 Cl
HETATM    4  C   UNL     1      41.847 -10.546   6.007  1.00  0.00     0.055 A 
HETATM    5  C   UNL     1      40.519 -10.578   6.429  1.00  0.00     0.036 A 
HETATM    6  C   UNL     1      39.817 -11.774   6.324  1.00  0.00     0.032 A 
HETATM    7  C   UNL     1      40.454 -12.946   5.906  1.00  0.00     0.033 A 
ENDROOT
BRANCH   5   8
HETATM    8  N   UNL     1      39.928  -9.393   6.916  1.00  0.00    -0.333 N 
HETATM    9  H   UNL     1      38.986  -9.181   6.585  1.00  0.00     0.168 HD
BRANCH   8  10
HETATM   10  C   UNL     1      40.521  -8.367   7.616  1.00  0.00     0.179 C 
HETATM   11  S   UNL     1      40.840  -6.800   7.116  1.00  0.00    -0.040 SA
BRANCH  10  12
HETATM   12  N   UNL     1      40.885  -8.655   8.915  1.00  0.00    -0.299 N 
HETATM   13  C   UNL     1      42.141  -8.884   9.457  1.00  0.00     0.257 C 
HETATM   14  O   UNL     1      43.163  -9.022   8.792  1.00  0.00    -0.267 OA
HETATM   15  H   UNL     1      40.103  -8.563   9.548  1.00  0.00     0.171 HD
BRANCH  13  16
HETATM   16  C   UNL     1      42.184  -8.930  10.945  1.00  0.00     0.035 A 
HETATM   17  C   UNL     1      41.251  -9.670  11.685  1.00  0.00     0.053 A 
HETATM   18  C   UNL     1      41.251  -9.614  13.082  1.00  0.00     0.069 A 
HETATM   19  C   UNL     1      42.208  -8.843  13.740  1.00  0.00     0.037 A 
HETATM   20  C   UNL     1      43.164  -8.133  13.005  1.00  0.00     0.004 A 
HETATM   21  C   UNL     1      43.153  -8.177  11.610  1.00  0.00     0.017 A 
BRANCH  18  22
HETATM   22  O   UNL     1      40.265 -10.354  13.675  1.00  0.00    -0.356 OA
HETATM   23  C   UNL     1      39.254 -10.881  12.824  1.00  0.00     0.210 C 
ENDBRANCH  18  22
ENDBRANCH  13  16
ENDBRANCH  10  12
ENDBRANCH   8  10
ENDBRANCH   5   8
BRANCH   1  24
HETATM   24  N   UNL     1      42.476 -14.190   5.309  1.00  0.00    -0.376 N 
HETATM   25  C   UNL     1      42.339 -14.696   3.926  1.00  0.00     0.143 C 
HETATM   26  C   UNL     1      43.399 -15.791   3.659  1.00  0.00     0.145 C 
HETATM   27  N   UNL     1      43.401 -16.850   4.684  1.00  0.00    -0.349 N 
HETATM   28  C   UNL     1      43.840 -18.153   4.480  1.00  0.00     0.219 C 
HETATM   29  C   UNL     1      43.373 -16.369   6.071  1.00  0.00     0.145 C 
HETATM   30  O   UNL     1      43.909 -18.964   5.404  1.00  0.00    -0.273 OA
HETATM   31  C   UNL     1      42.325 -15.275   6.306  1.00  0.00     0.143 C 
BRANCH  28  32
HETATM   32  C   UNL     1      44.221 -18.540   3.058  1.00  0.00     0.103 C 
BRANCH  32  33
HETATM   33  C   UNL     1      43.088 -19.222   2.285  1.00  0.00     0.005 C 
HETATM   34  C   UNL     1      43.517 -20.524   1.621  1.00  0.00     0.005 C 
ENDBRANCH  32  33
ENDBRANCH  28  32
ENDBRANCH   1  24
TORSDOF 8
ENDMDL
MODEL 7
REMARK VINA RESULT:      -7.5      2.349     11.165
REMARK  8 active torsions:
REMARK  status: ('A' for Active; 'I' for Inactive)
REMARK    1  A    between atoms: C_2  and  C_3 
REMARK    2  A    between atoms: C_3  and  C_4 
REMARK       I    between atoms: C_4  and  N_5 
REMARK    3  A    between atoms: N_8  and  C_9 
REMARK    4  A    between atoms: C_13  and  N_14 
REMARK    5  A    between atoms: N_14  and  C_15 
REMARK    6  A    between atoms: C_15  and  N_16 
REMARK       I    between atoms: N_16  and  C_17 
REMARK    7  A    between atoms: C_17  and  C_18 
REMARK    8  A    between atoms: C_20  and  O_21 
ROOT
HETATM    1  C   UNL     1      42.221 -12.280   5.894  1.00  0.00     0.052 A 
HETATM    2  C   UNL     1      43.022 -11.329   6.572  1.00  0.00     0.062 A 
HETATM    3 CL   UNL     1      44.692 -11.633   6.939  1.00  0.00    -0.082 Cl
HETATM    4  C   UNL     1      42.482 -10.128   7.071  1.00  0.00     0.055 A 
HETATM    5  C   UNL     1      41.116  -9.872   6.961  1.00  0.00     0.036 A 
HETATM    6  C   UNL     1      40.330 -10.757   6.231  1.00  0.00     0.032 A 
HETATM    7  C   UNL     1      40.874 -11.934   5.706  1.00  0.00     0.033 A 
ENDROOT
BRANCH   5   8
HETATM    8  N   UNL     1      40.588  -8.712   7.567  1.00  0.00    -0.333 N 
HETATM    9  H   UNL     1      39.572  -8.616   7.563  1.00  0.00     0.168 HD
BRANCH   8  10
HETATM   10  C   UNL     1      41.257  -7.584   7.982  1.00  0.00     0.179 C 
HETATM   11  S   UNL     1      41.790  -6.282   7.071  1.00  0.00    -0.040 SA
BRANCH  10  12
HETATM   12  N   UNL     1      41.508  -7.496   9.336  1.00  0.00    -0.299 N 
HETATM   13  C   UNL     1      42.697  -7.651  10.032  1.00  0.00     0.257 C 
HETATM   14  O   UNL     1      43.739  -8.065   9.533  1.00  0.00    -0.267 OA
HETATM   15  H   UNL     1      40.702  -7.154   9.841  1.00  0.00     0.171 HD
BRANCH  13  16
HETATM   16  C   UNL     1      42.643  -7.249  11.465  1.00  0.00     0.035 A 
HETATM   17  C   UNL     1      42.124  -6.009  11.862  1.00  0.00     0.053 A 
HETATM   18  C   UNL     1      42.178  -5.614  13.202  1.00  0.00     0.069 A 
HETATM   19  C   UNL     1      42.721  -6.478  14.152  1.00  0.00     0.037 A 
HETATM   20  C   UNL     1      43.205  -7.732  13.765  1.00  0.00     0.004 A 
HETATM   21  C   UNL     1      43.165  -8.119  12.425  1.00  0.00     0.017 A 
BRANCH  18  22
HETATM   22  O   UNL     1      41.670  -4.367  13.443  1.00  0.00    -0.356 OA
HETATM   23  C   UNL     1      41.181  -4.113  14.754  1.00  0.00     0.210 C 
ENDBRANCH  18  22
ENDBRANCH  13  16
ENDBRANCH  10  12
ENDBRANCH   8  10
ENDBRANCH   5   8
BRANCH   1  24
HETATM   24  N   UNL     1      42.711 -13.535   5.489  1.00  0.00    -0.376 N 
HETATM   25  C   UNL     1      42.195 -14.040   4.199  1.00  0.00     0.143 C 
HETATM   26  C   UNL     1      43.084 -15.201   3.693  1.00  0.00     0.145 C 
HETATM   27  N   UNL     1      43.286 -16.252   4.706  1.00  0.00    -0.349 N 
HETATM   28  C   UNL     1      43.581 -17.581   4.425  1.00  0.00     0.219 C 
HETATM   29  C   UNL     1      43.644 -15.761   6.043  1.00  0.00     0.145 C 
HETATM   30  O   UNL     1      43.836 -18.389   5.318  1.00  0.00    -0.273 OA
HETATM   31  C   UNL     1      42.758 -14.602   6.515  1.00  0.00     0.143 C 
BRANCH  28  32
HETATM   32  C   UNL     1      43.560 -17.999   2.962  1.00  0.00     0.103 C 
BRANCH  32  33
HETATM   33  C   UNL     1      44.042 -19.434   2.729  1.00  0.00     0.005 C 
HETATM   34  C   UNL     1      43.060 -20.270   1.918  1.00  0.00     0.005 C 
ENDBRANCH  32  33
ENDBRANCH  28  32
ENDBRANCH   1  24
TORSDOF 8
ENDMDL
MODEL 8
REMARK VINA RESULT:      -7.5      4.051     11.070
REMARK  8 active torsions:
REMARK  status: ('A' for Active; 'I' for Inactive)
REMARK    1  A    between atoms: C_2  and  C_3 
REMARK    2  A    between atoms: C_3  and  C_4 
REMARK       I    between atoms: C_4  and  N_5 
REMARK    3  A    between atoms: N_8  and  C_9 
REMARK    4  A    between atoms: C_13  and  N_14 
REMARK    5  A    between atoms: N_14  and  C_15 
REMARK    6  A    between atoms: C_15  and  N_16 
REMARK       I    between atoms: N_16  and  C_17 
REMARK    7  A    between atoms: C_17  and  C_18 
REMARK    8  A    between atoms: C_20  and  O_21 
ROOT
HETATM    1  C   UNL     1      41.801 -12.455   4.102  1.00  0.00     0.052 A 
HETATM    2  C   UNL     1      41.443 -11.427   5.007  1.00  0.00     0.062 A 
HETATM    3 CL   UNL     1      40.344 -10.158   4.565  1.00  0.00    -0.082 Cl
HETATM    4  C   UNL     1      42.035 -11.323   6.280  1.00  0.00     0.055 A 
HETATM    5  C   UNL     1      43.044 -12.207   6.660  1.00  0.00     0.036 A 
HETATM    6  C   UNL     1      43.352 -13.268   5.816  1.00  0.00     0.032 A 
HETATM    7  C   UNL     1      42.739 -13.391   4.565  1.00  0.00     0.033 A 
ENDROOT
BRANCH   5   8
HETATM    8  N   UNL     1      43.695 -12.010   7.897  1.00  0.00    -0.333 N 
HETATM    9  H   UNL     1      43.629 -12.770   8.575  1.00  0.00     0.168 HD
BRANCH   8  10
HETATM   10  C   UNL     1      44.233 -10.850   8.405  1.00  0.00     0.179 C 
HETATM   11  S   UNL     1      45.637 -10.056   7.950  1.00  0.00    -0.040 SA
BRANCH  10  12
HETATM   12  N   UNL     1      43.512 -10.240   9.410  1.00  0.00    -0.299 N 
HETATM   13  C   UNL     1      43.485 -10.505  10.771  1.00  0.00     0.257 C 
HETATM   14  O   UNL     1      44.016 -11.479  11.294  1.00  0.00    -0.267 OA
HETATM   15  H   UNL     1      43.037  -9.413   9.077  1.00  0.00     0.171 HD
BRANCH  13  16
HETATM   16  C   UNL     1      42.770  -9.490  11.594  1.00  0.00     0.035 A 
HETATM   17  C   UNL     1      41.370  -9.457  11.669  1.00  0.00     0.053 A 
HETATM   18  C   UNL     1      40.722  -8.433  12.365  1.00  0.00     0.069 A 
HETATM   19  C   UNL     1      41.478  -7.459  13.017  1.00  0.00     0.037 A 
HETATM   20  C   UNL     1      42.875  -7.511  12.977  1.00  0.00     0.004 A 
HETATM   21  C   UNL     1      43.521  -8.525  12.268  1.00  0.00     0.017 A 
BRANCH  18  22
HETATM   22  O   UNL     1      39.356  -8.502  12.326  1.00  0.00    -0.356 OA
HETATM   23  C   UNL     1      38.640  -7.495  13.032  1.00  0.00     0.210 C 
ENDBRANCH  18  22
ENDBRANCH  13  16
ENDBRANCH  10  12
ENDBRANCH   8  10
ENDBRANCH   5   8
BRANCH   1  24
HETATM   24  N   UNL     1      41.308 -12.512   2.784  1.00  0.00    -0.376 N 
HETATM   25  C   UNL     1      41.149 -13.868   2.217  1.00  0.00     0.143 C 
HETATM   26  C   UNL     1      40.255 -13.810   0.956  1.00  0.00     0.145 C 
HETATM   27  N   UNL     1      40.707 -12.804  -0.022  1.00  0.00    -0.349 N 
HETATM   28  C   UNL     1      40.453 -12.852  -1.388  1.00  0.00     0.219 C 
HETATM   29  C   UNL     1      41.028 -11.489   0.547  1.00  0.00     0.145 C 
HETATM   30  O   UNL     1      40.774 -11.930  -2.137  1.00  0.00    -0.273 OA
HETATM   31  C   UNL     1      41.902 -11.575   1.803  1.00  0.00     0.143 C 
BRANCH  28  32
HETATM   32  C   UNL     1      39.773 -14.105  -1.921  1.00  0.00     0.103 C 
BRANCH  32  33
HETATM   33  C   UNL     1      38.695 -13.817  -2.969  1.00  0.00     0.005 C 
HETATM   34  C   UNL     1      37.508 -13.043  -2.409  1.00  0.00     0.005 C 
ENDBRANCH  32  33
ENDBRANCH  28  32
ENDBRANCH   1  24
TORSDOF 8
ENDMDL
MODEL 9
REMARK VINA RESULT:      -7.4     18.841     20.725
REMARK  8 active torsions:
REMARK  status: ('A' for Active; 'I' for Inactive)
REMARK    1  A    between atoms: C_2  and  C_3 
REMARK    2  A    between atoms: C_3  and  C_4 
REMARK       I    between atoms: C_4  and  N_5 
REMARK    3  A    between atoms: N_8  and  C_9 
REMARK    4  A    between atoms: C_13  and  N_14 
REMARK    5  A    between atoms: N_14  and  C_15 
REMARK    6  A    between atoms: C_15  and  N_16 
REMARK       I    between atoms: N_16  and  C_17 
REMARK    7  A    between atoms: C_17  and  C_18 
REMARK    8  A    between atoms: C_20  and  O_21 
ROOT
HETATM    1  C   UNL     1      42.487 -30.822   2.527  1.00  0.00     0.052 A 
HETATM    2  C   UNL     1      43.889 -30.952   2.683  1.00  0.00     0.062 A 
HETATM    3 CL   UNL     1      44.585 -31.971   3.905  1.00  0.00    -0.082 Cl
HETATM    4  C   UNL     1      44.792 -30.186   1.921  1.00  0.00     0.055 A 
HETATM    5  C   UNL     1      44.320 -29.226   1.028  1.00  0.00     0.036 A 
HETATM    6  C   UNL     1      42.950 -29.141   0.805  1.00  0.00     0.032 A 
HETATM    7  C   UNL     1      42.054 -29.926   1.537  1.00  0.00     0.033 A 
ENDROOT
BRANCH   5   8
HETATM    8  N   UNL     1      45.249 -28.398   0.361  1.00  0.00    -0.333 N 
HETATM    9  H   UNL     1      45.247 -27.410   0.616  1.00  0.00     0.168 HD
BRANCH   8  10
HETATM   10  C   UNL     1      46.020 -28.692  -0.740  1.00  0.00     0.179 C 
HETATM   11  S   UNL     1      47.610 -28.267  -1.054  1.00  0.00    -0.040 SA
BRANCH  10  12
HETATM   12  N   UNL     1      45.414 -29.461  -1.712  1.00  0.00    -0.299 N 
HETATM   13  C   UNL     1      44.943 -29.102  -2.965  1.00  0.00     0.257 C 
HETATM   14  O   UNL     1      44.852 -27.944  -3.361  1.00  0.00    -0.267 OA
HETATM   15  H   UNL     1      45.443 -30.445  -1.479  1.00  0.00     0.171 HD
BRANCH  13  16
HETATM   16  C   UNL     1      44.563 -30.242  -3.845  1.00  0.00     0.035 A 
HETATM   17  C   UNL     1      44.502 -31.556  -3.360  1.00  0.00     0.053 A 
HETATM   18  C   UNL     1      44.244 -32.621  -4.228  1.00  0.00     0.069 A 
HETATM   19  C   UNL     1      44.012 -32.365  -5.579  1.00  0.00     0.037 A 
HETATM   20  C   UNL     1      44.035 -31.052  -6.059  1.00  0.00     0.004 A 
HETATM   21  C   UNL     1      44.309 -29.991  -5.194  1.00  0.00     0.017 A 
BRANCH  18  22
HETATM   22  O   UNL     1      44.249 -33.851  -3.629  1.00  0.00    -0.356 OA
HETATM   23  C   UNL     1      43.176 -34.140  -2.741  1.00  0.00     0.210 C 
ENDBRANCH  18  22
ENDBRANCH  13  16
ENDBRANCH  10  12
ENDBRANCH   8  10
ENDBRANCH   5   8
BRANCH   1  24
HETATM   24  N   UNL     1      41.566 -31.492   3.354  1.00  0.00    -0.376 N 
HETATM   25  C   UNL     1      40.379 -32.051   2.672  1.00  0.00     0.143 C 
HETATM   26  C   UNL     1      39.672 -33.070   3.596  1.00  0.00     0.145 C 
HETATM   27  N   UNL     1      39.388 -32.528   4.937  1.00  0.00    -0.349 N 
HETATM   28  C   UNL     1      38.373 -32.973   5.776  1.00  0.00     0.219 C 
HETATM   29  C   UNL     1      40.511 -31.824   5.569  1.00  0.00     0.145 C 
HETATM   30  O   UNL     1      38.251 -32.546   6.924  1.00  0.00    -0.273 OA
HETATM   31  C   UNL     1      41.204 -30.831   4.629  1.00  0.00     0.143 C 
BRANCH  28  32
HETATM   32  C   UNL     1      37.408 -34.003   5.207  1.00  0.00     0.103 C 
BRANCH  32  33
HETATM   33  C   UNL     1      36.088 -33.399   4.719  1.00  0.00     0.005 C 
HETATM   34  C   UNL     1      35.781 -33.731   3.264  1.00  0.00     0.005 C 
ENDBRANCH  32  33
ENDBRANCH  28  32
ENDBRANCH   1  24
TORSDOF 8
ENDMDL
MODEL 10
REMARK VINA RESULT:      -7.3     18.752     20.456
REMARK  8 active torsions:
REMARK  status: ('A' for Active; 'I' for Inactive)
REMARK    1  A    between atoms: C_2  and  C_3 
REMARK    2  A    between atoms: C_3  and  C_4 
REMARK       I    between atoms: C_4  and  N_5 
REMARK    3  A    between atoms: N_8  and  C_9 
REMARK    4  A    between atoms: C_13  and  N_14 
REMARK    5  A    between atoms: N_14  and  C_15 
REMARK    6  A    between atoms: C_15  and  N_16 
REMARK       I    between atoms: N_16  and  C_17 
REMARK    7  A    between atoms: C_17  and  C_18 
REMARK    8  A    between atoms: C_20  and  O_21 
ROOT
HETATM    1  C   UNL     1      42.415 -30.838   2.549  1.00  0.00     0.052 A 
HETATM    2  C   UNL     1      43.820 -30.912   2.712  1.00  0.00     0.062 A 
HETATM    3 CL   UNL     1      44.547 -31.851   3.979  1.00  0.00    -0.082 Cl
HETATM    4  C   UNL     1      44.698 -30.149   1.918  1.00  0.00     0.055 A 
HETATM    5  C   UNL     1      44.194 -29.247   0.982  1.00  0.00     0.036 A 
HETATM    6  C   UNL     1      42.823 -29.220   0.754  1.00  0.00     0.032 A 
HETATM    7  C   UNL     1      41.953 -30.003   1.520  1.00  0.00     0.033 A 
ENDROOT
BRANCH   5   8
HETATM    8  N   UNL     1      45.095 -28.418   0.280  1.00  0.00    -0.333 N 
HETATM    9  H   UNL     1      45.192 -27.459   0.616  1.00  0.00     0.168 HD
BRANCH   8  10
HETATM   10  C   UNL     1      45.712 -28.655  -0.927  1.00  0.00     0.179 C 
HETATM   11  S   UNL     1      45.138 -28.370  -2.476  1.00  0.00    -0.040 SA
BRANCH  10  12
HETATM   12  N   UNL     1      46.986 -29.179  -0.860  1.00  0.00    -0.299 N 
HETATM   13  C   UNL     1      47.924 -29.110   0.159  1.00  0.00     0.257 C 
HETATM   14  O   UNL     1      47.809 -28.401   1.154  1.00  0.00    -0.267 OA
HETATM   15  H   UNL     1      47.178 -29.790  -1.643  1.00  0.00     0.171 HD
BRANCH  13  16
HETATM   16  C   UNL     1      49.109 -29.995  -0.016  1.00  0.00     0.035 A 
HETATM   17  C   UNL     1      49.560 -30.833   1.013  1.00  0.00     0.053 A 
HETATM   18  C   UNL     1      50.733 -31.577   0.859  1.00  0.00     0.069 A 
HETATM   19  C   UNL     1      51.437 -31.509  -0.342  1.00  0.00     0.037 A 
HETATM   20  C   UNL     1      50.969 -30.703  -1.385  1.00  0.00     0.004 A 
HETATM   21  C   UNL     1      49.807 -29.948  -1.224  1.00  0.00     0.017 A 
BRANCH  18  22
HETATM   22  O   UNL     1      51.076 -32.322   1.954  1.00  0.00    -0.356 OA
HETATM   23  C   UNL     1      50.484 -31.954   3.195  1.00  0.00     0.210 C 
ENDBRANCH  18  22
ENDBRANCH  13  16
ENDBRANCH  10  12
ENDBRANCH   8  10
ENDBRANCH   5   8
BRANCH   1  24
HETATM   24  N   UNL     1      41.515 -31.502   3.405  1.00  0.00    -0.376 N 
HETATM   25  C   UNL     1      40.294 -32.035   2.763  1.00  0.00     0.143 C 
HETATM   26  C   UNL     1      39.606 -33.052   3.703  1.00  0.00     0.145 C 
HETATM   27  N   UNL     1      39.384 -32.521   5.060  1.00  0.00    -0.349 N 
HETATM   28  C   UNL     1      38.394 -32.959   5.933  1.00  0.00     0.219 C 
HETATM   29  C   UNL     1      40.541 -31.842   5.655  1.00  0.00     0.145 C 
HETATM   30  O   UNL     1      38.324 -32.543   7.089  1.00  0.00    -0.273 OA
HETATM   31  C   UNL     1      41.214 -30.850   4.700  1.00  0.00     0.143 C 
BRANCH  28  32
HETATM   32  C   UNL     1      37.391 -33.967   5.391  1.00  0.00     0.103 C 
BRANCH  32  33
HETATM   33  C   UNL     1      36.084 -33.330   4.910  1.00  0.00     0.005 C 
HETATM   34  C   UNL     1      35.943 -33.330   3.393  1.00  0.00     0.005 C 
ENDBRANCH  32  33
ENDBRANCH  28  32
ENDBRANCH   1  24
TORSDOF 8
ENDMDL
