MODEL 1
REMARK VINA RESULT:      -8.2      0.000      0.000
REMARK  5 active torsions:
REMARK  status: ('A' for Active; 'I' for Inactive)
REMARK    1  A    between atoms: C_4  and  C_5 
REMARK       I    between atoms: C_5  and  N_6 
REMARK    2  A    between atoms: N_6  and  C_7 
REMARK    3  A    between atoms: C_10  and  N_11 
REMARK       I    between atoms: N_11  and  C_12 
REMARK       I    between atoms: C_12  and  N_13 
REMARK    4  A    between atoms: N_13  and  C_14 
REMARK    5  A    between atoms: C_14  and  C_15 
ROOT
HETATM    1  C   UNL     1      43.423 -10.521   7.737  1.00  0.00     0.035 A 
HETATM    2  C   UNL     1      44.356 -11.522   7.465  1.00  0.00     0.032 A 
HETATM    3  C   UNL     1      44.412 -12.131   6.196  1.00  0.00     0.032 A 
HETATM    4  C   UNL     1      43.520 -11.758   5.192  1.00  0.00     0.036 A 
HETATM    5  C   UNL     1      42.583 -10.756   5.474  1.00  0.00     0.032 A 
HETATM    6  C   UNL     1      42.533 -10.144   6.729  1.00  0.00     0.032 A 
ENDROOT
BRANCH   4   7
HETATM    7  N   UNL     1      43.503 -12.255   3.879  1.00  0.00    -0.309 N 
HETATM    8  C   UNL     1      43.136 -13.421   3.299  1.00  0.00     0.321 C 
HETATM    9  N   UNL     1      42.416 -14.323   4.005  1.00  0.00    -0.337 N 
HETATM   10  O   UNL     1      43.454 -13.611   2.124  1.00  0.00    -0.247 OA
HETATM   11  H   UNL     1      41.772 -13.957   4.692  1.00  0.00     0.164 HD
HETATM   12  H   UNL     1      43.919 -11.654   3.178  1.00  0.00     0.170 HD
BRANCH   9  13
HETATM   13  C   UNL     1      41.957 -15.518   3.328  1.00  0.00     0.183 C 
BRANCH  13  14
HETATM   14  C   UNL     1      42.839 -16.723   3.557  1.00  0.00     0.053 A 
HETATM   15  N   UNL     1      43.598 -16.771   4.685  1.00  0.00    -0.264 NA
HETATM   16  C   UNL     1      44.358 -17.873   4.880  1.00  0.00     0.118 A 
HETATM   17  C   UNL     1      44.390 -18.949   4.016  1.00  0.00     0.043 A 
HETATM   18  C   UNL     1      43.592 -18.885   2.883  1.00  0.00     0.037 A 
HETATM   19 CL   UNL     1      43.572 -20.201   1.773  1.00  0.00    -0.084 Cl
HETATM   20  C   UNL     1      42.805 -17.768   2.639  1.00  0.00     0.052 A 
ENDBRANCH  13  14
ENDBRANCH   9  13
ENDBRANCH   4   7
BRANCH   1  21
HETATM   21  N   UNL     1      43.325  -9.827   8.955  1.00  0.00    -0.321 N 
HETATM   22  C   UNL     1      43.766  -8.555   9.269  1.00  0.00     0.279 C 
HETATM   23  O   UNL     1      44.398  -7.814   8.523  1.00  0.00    -0.265 OA
HETATM   24  H   UNL     1      42.849 -10.300   9.716  1.00  0.00     0.169 HD
BRANCH  22  25
HETATM   25  C   UNL     1      43.395  -8.165  10.621  1.00  0.00     0.142 A 
HETATM   26  O   UNL     1      42.630  -7.039  10.809  1.00  0.00    -0.317 OA
HETATM   27  C   UNL     1      42.450  -6.896  12.148  1.00  0.00     0.143 A 
HETATM   28  C   UNL     1      43.077  -7.911  12.830  1.00  0.00     0.027 A 
HETATM   29  C   UNL     1      43.686  -8.730  11.848  1.00  0.00     0.045 A 
ENDBRANCH  22  25
ENDBRANCH   1  21
TORSDOF 5
ENDMDL
MODEL 2
REMARK VINA RESULT:      -8.0      3.968      9.978
REMARK  5 active torsions:
REMARK  status: ('A' for Active; 'I' for Inactive)
REMARK    1  A    between atoms: C_4  and  C_5 
REMARK       I    between atoms: C_5  and  N_6 
REMARK    2  A    between atoms: N_6  and  C_7 
REMARK    3  A    between atoms: C_10  and  N_11 
REMARK       I    between atoms: N_11  and  C_12 
REMARK       I    between atoms: C_12  and  N_13 
REMARK    4  A    between atoms: N_13  and  C_14 
REMARK    5  A    between atoms: C_14  and  C_15 
ROOT
HETATM    1  C   UNL     1      42.168 -15.266   4.560  1.00  0.00     0.035 A 
HETATM    2  C   UNL     1      41.235 -15.090   5.583  1.00  0.00     0.032 A 
HETATM    3  C   UNL     1      40.905 -13.802   6.045  1.00  0.00     0.032 A 
HETATM    4  C   UNL     1      41.520 -12.675   5.502  1.00  0.00     0.036 A 
HETATM    5  C   UNL     1      42.459 -12.860   4.479  1.00  0.00     0.032 A 
HETATM    6  C   UNL     1      42.780 -14.136   4.013  1.00  0.00     0.032 A 
ENDROOT
BRANCH   4   7
HETATM    7  N   UNL     1      41.245 -11.341   5.843  1.00  0.00    -0.309 N 
HETATM    8  C   UNL     1      41.744 -10.458   6.738  1.00  0.00     0.321 C 
HETATM    9  N   UNL     1      42.909 -10.729   7.369  1.00  0.00    -0.337 N 
HETATM   10  O   UNL     1      41.122  -9.411   6.929  1.00  0.00    -0.247 OA
HETATM   11  H   UNL     1      43.596 -11.261   6.853  1.00  0.00     0.164 HD
HETATM   12  H   UNL     1      40.447 -10.926   5.378  1.00  0.00     0.170 HD
BRANCH   9  13
HETATM   13  C   UNL     1      43.465  -9.722   8.249  1.00  0.00     0.183 C 
BRANCH  13  14
HETATM   14  C   UNL     1      43.177  -9.967   9.712  1.00  0.00     0.053 A 
HETATM   15  N   UNL     1      43.996 -10.802  10.407  1.00  0.00    -0.264 NA
HETATM   16  C   UNL     1      43.732 -10.984  11.721  1.00  0.00     0.118 A 
HETATM   17  C   UNL     1      42.701 -10.358  12.393  1.00  0.00     0.043 A 
HETATM   18  C   UNL     1      41.893  -9.496  11.667  1.00  0.00     0.037 A 
HETATM   19 CL   UNL     1      40.600  -8.670  12.449  1.00  0.00    -0.084 Cl
HETATM   20  C   UNL     1      42.122  -9.290  10.314  1.00  0.00     0.052 A 
ENDBRANCH  13  14
ENDBRANCH   9  13
ENDBRANCH   4   7
BRANCH   1  21
HETATM   21  N   UNL     1      42.524 -16.507   4.006  1.00  0.00    -0.321 N 
HETATM   22  C   UNL     1      43.596 -17.323   4.317  1.00  0.00     0.279 C 
HETATM   23  O   UNL     1      44.486 -17.057   5.117  1.00  0.00    -0.265 OA
HETATM   24  H   UNL     1      41.911 -16.884   3.291  1.00  0.00     0.169 HD
BRANCH  22  25
HETATM   25  C   UNL     1      43.567 -18.572   3.572  1.00  0.00     0.142 A 
HETATM   26  O   UNL     1      43.982 -19.730   4.187  1.00  0.00    -0.317 OA
HETATM   27  C   UNL     1      43.873 -20.730   3.274  1.00  0.00     0.143 A 
HETATM   28  C   UNL     1      43.389 -20.245   2.083  1.00  0.00     0.027 A 
HETATM   29  C   UNL     1      43.190 -18.856   2.273  1.00  0.00     0.045 A 
ENDBRANCH  22  25
ENDBRANCH   1  21
TORSDOF 5
ENDMDL
MODEL 3
REMARK VINA RESULT:      -7.9      4.118      9.884
REMARK  5 active torsions:
REMARK  status: ('A' for Active; 'I' for Inactive)
REMARK    1  A    between atoms: C_4  and  C_5 
REMARK       I    between atoms: C_5  and  N_6 
REMARK    2  A    between atoms: N_6  and  C_7 
REMARK    3  A    between atoms: C_10  and  N_11 
REMARK       I    between atoms: N_11  and  C_12 
REMARK       I    between atoms: C_12  and  N_13 
REMARK    4  A    between atoms: N_13  and  C_14 
REMARK    5  A    between atoms: C_14  and  C_15 
ROOT
HETATM    1  C   UNL     1      41.397 -15.583   4.621  1.00  0.00     0.035 A 
HETATM    2  C   UNL     1      40.823 -15.537   5.892  1.00  0.00     0.032 A 
HETATM    3  C   UNL     1      40.241 -14.350   6.378  1.00  0.00     0.032 A 
HETATM    4  C   UNL     1      40.246 -13.191   5.604  1.00  0.00     0.036 A 
HETATM    5  C   UNL     1      40.829 -13.244   4.332  1.00  0.00     0.032 A 
HETATM    6  C   UNL     1      41.398 -14.423   3.845  1.00  0.00     0.032 A 
ENDROOT
BRANCH   4   7
HETATM    7  N   UNL     1      39.662 -11.963   5.955  1.00  0.00    -0.309 N 
HETATM    8  C   UNL     1      40.079 -10.854   6.608  1.00  0.00     0.321 C 
HETATM    9  N   UNL     1      41.397 -10.676   6.851  1.00  0.00    -0.337 N 
HETATM   10  O   UNL     1      39.232 -10.022   6.939  1.00  0.00    -0.247 OA
HETATM   11  H   UNL     1      42.043 -11.048   6.168  1.00  0.00     0.164 HD
HETATM   12  H   UNL     1      38.674 -11.873   5.748  1.00  0.00     0.170 HD
BRANCH   9  13
HETATM   13  C   UNL     1      41.822  -9.435   7.466  1.00  0.00     0.183 C 
BRANCH  13  14
HETATM   14  C   UNL     1      42.925  -9.607   8.484  1.00  0.00     0.053 A 
HETATM   15  N   UNL     1      44.053 -10.274   8.117  1.00  0.00    -0.264 NA
HETATM   16  C   UNL     1      45.037 -10.390   9.038  1.00  0.00     0.118 A 
HETATM   17  C   UNL     1      44.967  -9.858  10.310  1.00  0.00     0.043 A 
HETATM   18  C   UNL     1      43.815  -9.166  10.654  1.00  0.00     0.037 A 
HETATM   19 CL   UNL     1      43.672  -8.463  12.218  1.00  0.00    -0.084 Cl
HETATM   20  C   UNL     1      42.777  -9.032   9.741  1.00  0.00     0.052 A 
ENDBRANCH  13  14
ENDBRANCH   9  13
ENDBRANCH   4   7
BRANCH   1  21
HETATM   21  N   UNL     1      41.958 -16.732   4.038  1.00  0.00    -0.321 N 
HETATM   22  C   UNL     1      43.231 -17.250   4.186  1.00  0.00     0.279 C 
HETATM   23  O   UNL     1      44.140 -16.737   4.829  1.00  0.00    -0.265 OA
HETATM   24  H   UNL     1      41.354 -17.284   3.437  1.00  0.00     0.169 HD
BRANCH  22  25
HETATM   25  C   UNL     1      43.395 -18.510   3.477  1.00  0.00     0.142 A 
HETATM   26  O   UNL     1      43.881 -19.604   4.155  1.00  0.00    -0.317 OA
HETATM   27  C   UNL     1      43.953 -20.627   3.265  1.00  0.00     0.143 A 
HETATM   28  C   UNL     1      43.518 -20.221   2.026  1.00  0.00     0.027 A 
HETATM   29  C   UNL     1      43.157 -18.858   2.161  1.00  0.00     0.045 A 
ENDBRANCH  22  25
ENDBRANCH   1  21
TORSDOF 5
ENDMDL
MODEL 4
REMARK VINA RESULT:      -7.7      4.155      9.934
REMARK  5 active torsions:
REMARK  status: ('A' for Active; 'I' for Inactive)
REMARK    1  A    between atoms: C_4  and  C_5 
REMARK       I    between atoms: C_5  and  N_6 
REMARK    2  A    between atoms: N_6  and  C_7 
REMARK    3  A    between atoms: C_10  and  N_11 
REMARK       I    between atoms: N_11  and  C_12 
REMARK       I    between atoms: C_12  and  N_13 
REMARK    4  A    between atoms: N_13  and  C_14 
REMARK    5  A    between atoms: C_14  and  C_15 
ROOT
HETATM    1  C   UNL     1      41.544 -14.192   5.235  1.00  0.00     0.035 A 
HETATM    2  C   UNL     1      40.216 -14.088   5.649  1.00  0.00     0.032 A 
HETATM    3  C   UNL     1      39.674 -12.844   6.026  1.00  0.00     0.032 A 
HETATM    4  C   UNL     1      40.461 -11.694   6.010  1.00  0.00     0.036 A 
HETATM    5  C   UNL     1      41.795 -11.808   5.598  1.00  0.00     0.032 A 
HETATM    6  C   UNL     1      42.331 -13.039   5.215  1.00  0.00     0.032 A 
ENDROOT
BRANCH   4   7
HETATM    7  N   UNL     1      40.028 -10.394   6.318  1.00  0.00    -0.309 N 
HETATM    8  C   UNL     1      39.503  -9.791   7.409  1.00  0.00     0.321 C 
HETATM    9  N   UNL     1      39.539 -10.420   8.605  1.00  0.00    -0.337 N 
HETATM   10  O   UNL     1      39.026  -8.663   7.276  1.00  0.00    -0.247 OA
HETATM   11  H   UNL     1      40.331 -11.025   8.781  1.00  0.00     0.164 HD
HETATM   12  H   UNL     1      40.031  -9.738   5.547  1.00  0.00     0.170 HD
BRANCH   9  13
HETATM   13  C   UNL     1      39.056  -9.711   9.771  1.00  0.00     0.183 C 
BRANCH  13  14
HETATM   14  C   UNL     1      40.035  -9.693  10.922  1.00  0.00     0.053 A 
HETATM   15  N   UNL     1      39.603 -10.083  12.152  1.00  0.00    -0.264 NA
HETATM   16  C   UNL     1      40.506 -10.084  13.159  1.00  0.00     0.118 A 
HETATM   17  C   UNL     1      41.833  -9.733  13.004  1.00  0.00     0.043 A 
HETATM   18  C   UNL     1      42.253  -9.358  11.737  1.00  0.00     0.037 A 
HETATM   19 CL   UNL     1      43.898  -8.925  11.472  1.00  0.00    -0.084 Cl
HETATM   20  C   UNL     1      41.356  -9.333  10.678  1.00  0.00     0.052 A 
ENDBRANCH  13  14
ENDBRANCH   9  13
ENDBRANCH   4   7
BRANCH   1  21
HETATM   21  N   UNL     1      42.155 -15.380   4.798  1.00  0.00    -0.321 N 
HETATM   22  C   UNL     1      42.032 -16.025   3.581  1.00  0.00     0.279 C 
HETATM   23  O   UNL     1      41.289 -15.687   2.667  1.00  0.00    -0.265 OA
HETATM   24  H   UNL     1      42.796 -15.831   5.443  1.00  0.00     0.169 HD
BRANCH  22  25
HETATM   25  C   UNL     1      42.900 -17.189   3.489  1.00  0.00     0.142 A 
HETATM   26  O   UNL     1      43.719 -17.502   4.548  1.00  0.00    -0.317 OA
HETATM   27  C   UNL     1      44.428 -18.605   4.194  1.00  0.00     0.143 A 
HETATM   28  C   UNL     1      44.080 -19.017   2.930  1.00  0.00     0.027 A 
HETATM   29  C   UNL     1      43.096 -18.106   2.474  1.00  0.00     0.045 A 
ENDBRANCH  22  25
ENDBRANCH   1  21
TORSDOF 5
ENDMDL
MODEL 5
REMARK VINA RESULT:      -7.6      3.714      9.441
REMARK  5 active torsions:
REMARK  status: ('A' for Active; 'I' for Inactive)
REMARK    1  A    between atoms: C_4  and  C_5 
REMARK       I    between atoms: C_5  and  N_6 
REMARK    2  A    between atoms: N_6  and  C_7 
REMARK    3  A    between atoms: C_10  and  N_11 
REMARK       I    between atoms: N_11  and  C_12 
REMARK       I    between atoms: C_12  and  N_13 
REMARK    4  A    between atoms: N_13  and  C_14 
REMARK    5  A    between atoms: C_14  and  C_15 
ROOT
HETATM    1  C   UNL     1      41.084 -14.712   4.607  1.00  0.00     0.035 A 
HETATM    2  C   UNL     1      40.798 -13.655   3.742  1.00  0.00     0.032 A 
HETATM    3  C   UNL     1      40.179 -12.482   4.216  1.00  0.00     0.032 A 
HETATM    4  C   UNL     1      39.821 -12.363   5.557  1.00  0.00     0.036 A 
HETATM    5  C   UNL     1      40.106 -13.430   6.418  1.00  0.00     0.032 A 
HETATM    6  C   UNL     1      40.729 -14.590   5.952  1.00  0.00     0.032 A 
ENDROOT
BRANCH   4   7
HETATM    7  N   UNL     1      39.242 -11.233   6.159  1.00  0.00    -0.309 N 
HETATM    8  C   UNL     1      39.636 -10.334   7.089  1.00  0.00     0.321 C 
HETATM    9  N   UNL     1      40.937 -10.276   7.455  1.00  0.00    -0.337 N 
HETATM   10  O   UNL     1      38.788  -9.573   7.557  1.00  0.00    -0.247 OA
HETATM   11  H   UNL     1      41.622 -10.498   6.747  1.00  0.00     0.164 HD
HETATM   12  H   UNL     1      38.275 -11.054   5.915  1.00  0.00     0.170 HD
BRANCH   9  13
HETATM   13  C   UNL     1      41.345  -9.240   8.382  1.00  0.00     0.183 C 
BRANCH  13  14
HETATM   14  C   UNL     1      42.699  -9.482   9.007  1.00  0.00     0.053 A 
HETATM   15  N   UNL     1      42.753  -9.988  10.269  1.00  0.00    -0.264 NA
HETATM   16  C   UNL     1      43.977 -10.221  10.796  1.00  0.00     0.118 A 
HETATM   17  C   UNL     1      45.161  -9.995  10.122  1.00  0.00     0.043 A 
HETATM   18  C   UNL     1      45.079  -9.498   8.830  1.00  0.00     0.037 A 
HETATM   19 CL   UNL     1      46.517  -9.211   7.928  1.00  0.00    -0.084 Cl
HETATM   20  C   UNL     1      43.843  -9.235   8.256  1.00  0.00     0.052 A 
ENDBRANCH  13  14
ENDBRANCH   9  13
ENDBRANCH   4   7
BRANCH   1  21
HETATM   21  N   UNL     1      41.739 -15.897   4.233  1.00  0.00    -0.321 N 
HETATM   22  C   UNL     1      42.835 -16.061   3.405  1.00  0.00     0.279 C 
HETATM   23  O   UNL     1      43.400 -15.167   2.784  1.00  0.00    -0.265 OA
HETATM   24  H   UNL     1      41.389 -16.762   4.632  1.00  0.00     0.169 HD
BRANCH  22  25
HETATM   25  C   UNL     1      43.267 -17.449   3.338  1.00  0.00     0.142 A 
HETATM   26  O   UNL     1      43.825 -18.032   4.451  1.00  0.00    -0.317 OA
HETATM   27  C   UNL     1      44.154 -19.306   4.112  1.00  0.00     0.143 A 
HETATM   28  C   UNL     1      43.813 -19.562   2.806  1.00  0.00     0.027 A 
HETATM   29  C   UNL     1      43.241 -18.367   2.306  1.00  0.00     0.045 A 
ENDBRANCH  22  25
ENDBRANCH   1  21
TORSDOF 5
ENDMDL
MODEL 6
REMARK VINA RESULT:      -7.5      3.657      4.951
REMARK  5 active torsions:
REMARK  status: ('A' for Active; 'I' for Inactive)
REMARK    1  A    between atoms: C_4  and  C_5 
REMARK       I    between atoms: C_5  and  N_6 
REMARK    2  A    between atoms: N_6  and  C_7 
REMARK    3  A    between atoms: C_10  and  N_11 
REMARK       I    between atoms: N_11  and  C_12 
REMARK       I    between atoms: C_12  and  N_13 
REMARK    4  A    between atoms: N_13  and  C_14 
REMARK    5  A    between atoms: C_14  and  C_15 
ROOT
HETATM    1  C   UNL     1      43.288 -12.981   6.621  1.00  0.00     0.035 A 
HETATM    2  C   UNL     1      43.058 -12.620   5.292  1.00  0.00     0.032 A 
HETATM    3  C   UNL     1      42.895 -13.601   4.296  1.00  0.00     0.032 A 
HETATM    4  C   UNL     1      42.979 -14.955   4.614  1.00  0.00     0.036 A 
HETATM    5  C   UNL     1      43.215 -15.310   5.948  1.00  0.00     0.032 A 
HETATM    6  C   UNL     1      43.368 -14.338   6.940  1.00  0.00     0.032 A 
ENDROOT
BRANCH   4   7
HETATM    7  N   UNL     1      42.791 -16.024   3.724  1.00  0.00    -0.309 N 
HETATM    8  C   UNL     1      41.874 -16.336   2.779  1.00  0.00     0.321 C 
HETATM    9  N   UNL     1      41.002 -15.393   2.354  1.00  0.00    -0.337 N 
HETATM   10  O   UNL     1      41.883 -17.477   2.315  1.00  0.00    -0.247 OA
HETATM   11  H   UNL     1      41.332 -14.437   2.343  1.00  0.00     0.164 HD
HETATM   12  H   UNL     1      43.435 -16.799   3.828  1.00  0.00     0.170 HD
BRANCH   9  13
HETATM   13  C   UNL     1      40.097 -15.729   1.275  1.00  0.00     0.183 C 
BRANCH  13  14
HETATM   14  C   UNL     1      40.064 -14.702   0.167  1.00  0.00     0.053 A 
HETATM   15  N   UNL     1      39.447 -15.024  -1.002  1.00  0.00    -0.264 NA
HETATM   16  C   UNL     1      39.408 -14.079  -1.968  1.00  0.00     0.118 A 
HETATM   17  C   UNL     1      39.938 -12.811  -1.827  1.00  0.00     0.043 A 
HETATM   18  C   UNL     1      40.544 -12.501  -0.619  1.00  0.00     0.037 A 
HETATM   19 CL   UNL     1      41.210 -10.933  -0.372  1.00  0.00    -0.084 Cl
HETATM   20  C   UNL     1      40.615 -13.446   0.395  1.00  0.00     0.052 A 
ENDBRANCH  13  14
ENDBRANCH   9  13
ENDBRANCH   4   7
BRANCH   1  21
HETATM   21  N   UNL     1      43.417 -12.075   7.686  1.00  0.00    -0.321 N 
HETATM   22  C   UNL     1      44.465 -11.222   7.981  1.00  0.00     0.279 C 
HETATM   23  O   UNL     1      45.527 -11.160   7.371  1.00  0.00    -0.265 OA
HETATM   24  H   UNL     1      42.634 -12.006   8.328  1.00  0.00     0.169 HD
BRANCH  22  25
HETATM   25  C   UNL     1      44.176 -10.377   9.129  1.00  0.00     0.142 A 
HETATM   26  O   UNL     1      42.959  -9.741   9.205  1.00  0.00    -0.317 OA
HETATM   27  C   UNL     1      42.960  -9.011  10.351  1.00  0.00     0.143 A 
HETATM   28  C   UNL     1      44.149  -9.166  11.021  1.00  0.00     0.027 A 
HETATM   29  C   UNL     1      44.933 -10.046  10.237  1.00  0.00     0.045 A 
ENDBRANCH  22  25
ENDBRANCH   1  21
TORSDOF 5
ENDMDL
MODEL 7
REMARK VINA RESULT:      -7.4      2.836      4.153
REMARK  5 active torsions:
REMARK  status: ('A' for Active; 'I' for Inactive)
REMARK    1  A    between atoms: C_4  and  C_5 
REMARK       I    between atoms: C_5  and  N_6 
REMARK    2  A    between atoms: N_6  and  C_7 
REMARK    3  A    between atoms: C_10  and  N_11 
REMARK       I    between atoms: N_11  and  C_12 
REMARK       I    between atoms: C_12  and  N_13 
REMARK    4  A    between atoms: N_13  and  C_14 
REMARK    5  A    between atoms: C_14  and  C_15 
ROOT
HETATM    1  C   UNL     1      43.581  -8.982  11.346  1.00  0.00     0.035 A 
HETATM    2  C   UNL     1      44.161 -10.241  11.185  1.00  0.00     0.032 A 
HETATM    3  C   UNL     1      44.627 -10.665   9.926  1.00  0.00     0.032 A 
HETATM    4  C   UNL     1      44.499  -9.841   8.809  1.00  0.00     0.036 A 
HETATM    5  C   UNL     1      43.912  -8.580   8.977  1.00  0.00     0.032 A 
HETATM    6  C   UNL     1      43.458  -8.154  10.228  1.00  0.00     0.032 A 
ENDROOT
BRANCH   4   7
HETATM    7  N   UNL     1      44.962 -10.129   7.515  1.00  0.00    -0.309 N 
HETATM    8  C   UNL     1      44.671 -11.059   6.576  1.00  0.00     0.321 C 
HETATM    9  N   UNL     1      43.559 -11.818   6.708  1.00  0.00    -0.337 N 
HETATM   10  O   UNL     1      45.427 -11.165   5.609  1.00  0.00    -0.247 OA
HETATM   11  H   UNL     1      42.762 -11.388   7.157  1.00  0.00     0.164 HD
HETATM   12  H   UNL     1      45.747  -9.573   7.197  1.00  0.00     0.170 HD
BRANCH   9  13
HETATM   13  C   UNL     1      43.224 -12.737   5.640  1.00  0.00     0.183 C 
BRANCH  13  14
HETATM   14  C   UNL     1      43.199 -14.186   6.071  1.00  0.00     0.053 A 
HETATM   15  N   UNL     1      42.999 -14.472   7.385  1.00  0.00    -0.264 NA
HETATM   16  C   UNL     1      42.954 -15.776   7.740  1.00  0.00     0.118 A 
HETATM   17  C   UNL     1      43.078 -16.822   6.847  1.00  0.00     0.043 A 
HETATM   18  C   UNL     1      43.261 -16.504   5.509  1.00  0.00     0.037 A 
HETATM   19 CL   UNL     1      43.405 -17.760   4.342  1.00  0.00    -0.084 Cl
HETATM   20  C   UNL     1      43.324 -15.178   5.104  1.00  0.00     0.052 A 
ENDBRANCH  13  14
ENDBRANCH   9  13
ENDBRANCH   4   7
BRANCH   1  21
HETATM   21  N   UNL     1      43.132  -8.457  12.570  1.00  0.00    -0.321 N 
HETATM   22  C   UNL     1      42.114  -8.911  13.388  1.00  0.00     0.279 C 
HETATM   23  O   UNL     1      41.362  -9.846  13.140  1.00  0.00    -0.265 OA
HETATM   24  H   UNL     1      43.624  -7.646  12.931  1.00  0.00     0.169 HD
BRANCH  22  25
HETATM   25  C   UNL     1      42.016  -8.139  14.618  1.00  0.00     0.142 A 
HETATM   26  O   UNL     1      41.066  -8.479  15.551  1.00  0.00    -0.317 OA
HETATM   27  C   UNL     1      41.178  -7.597  16.578  1.00  0.00     0.143 A 
HETATM   28  C   UNL     1      42.185  -6.696  16.332  1.00  0.00     0.027 A 
HETATM   29  C   UNL     1      42.727  -7.044  15.070  1.00  0.00     0.045 A 
ENDBRANCH  22  25
ENDBRANCH   1  21
TORSDOF 5
ENDMDL
MODEL 8
REMARK VINA RESULT:      -7.3      4.035      9.466
REMARK  5 active torsions:
REMARK  status: ('A' for Active; 'I' for Inactive)
REMARK    1  A    between atoms: C_4  and  C_5 
REMARK       I    between atoms: C_5  and  N_6 
REMARK    2  A    between atoms: N_6  and  C_7 
REMARK    3  A    between atoms: C_10  and  N_11 
REMARK       I    between atoms: N_11  and  C_12 
REMARK       I    between atoms: C_12  and  N_13 
REMARK    4  A    between atoms: N_13  and  C_14 
REMARK    5  A    between atoms: C_14  and  C_15 
ROOT
HETATM    1  C   UNL     1      41.513 -15.271   5.172  1.00  0.00     0.035 A 
HETATM    2  C   UNL     1      41.723 -14.176   4.333  1.00  0.00     0.032 A 
HETATM    3  C   UNL     1      41.025 -12.969   4.534  1.00  0.00     0.032 A 
HETATM    4  C   UNL     1      40.094 -12.852   5.564  1.00  0.00     0.036 A 
HETATM    5  C   UNL     1      39.884 -13.958   6.398  1.00  0.00     0.032 A 
HETATM    6  C   UNL     1      40.583 -15.152   6.207  1.00  0.00     0.032 A 
ENDROOT
BRANCH   4   7
HETATM    7  N   UNL     1      39.370 -11.695   5.893  1.00  0.00    -0.309 N 
HETATM    8  C   UNL     1      39.597 -10.610   6.669  1.00  0.00     0.321 C 
HETATM    9  N   UNL     1      40.845 -10.362   7.126  1.00  0.00    -0.337 N 
HETATM   10  O   UNL     1      38.648  -9.863   6.915  1.00  0.00    -0.247 OA
HETATM   11  H   UNL     1      41.614 -10.640   6.531  1.00  0.00     0.164 HD
HETATM   12  H   UNL     1      38.422 -11.657   5.540  1.00  0.00     0.170 HD
BRANCH   9  13
HETATM   13  C   UNL     1      41.075  -9.144   7.874  1.00  0.00     0.183 C 
BRANCH  13  14
HETATM   14  C   UNL     1      41.803  -9.360   9.181  1.00  0.00     0.053 A 
HETATM   15  N   UNL     1      41.074  -9.465  10.324  1.00  0.00    -0.264 NA
HETATM   16  C   UNL     1      41.748  -9.685  11.476  1.00  0.00     0.118 A 
HETATM   17  C   UNL     1      43.119  -9.828  11.550  1.00  0.00     0.043 A 
HETATM   18  C   UNL     1      43.839  -9.737  10.368  1.00  0.00     0.037 A 
HETATM   19 CL   UNL     1      45.550  -9.923  10.389  1.00  0.00    -0.084 Cl
HETATM   20  C   UNL     1      43.187  -9.501   9.165  1.00  0.00     0.052 A 
ENDBRANCH  13  14
ENDBRANCH   9  13
ENDBRANCH   4   7
BRANCH   1  21
HETATM   21  N   UNL     1      42.196 -16.495   5.076  1.00  0.00    -0.321 N 
HETATM   22  C   UNL     1      43.408 -16.860   5.632  1.00  0.00     0.279 C 
HETATM   23  O   UNL     1      44.149 -16.125   6.275  1.00  0.00    -0.265 OA
HETATM   24  H   UNL     1      41.743 -17.234   4.548  1.00  0.00     0.169 HD
BRANCH  22  25
HETATM   25  C   UNL     1      43.733 -18.254   5.368  1.00  0.00     0.142 A 
HETATM   26  O   UNL     1      43.409 -19.208   6.304  1.00  0.00    -0.317 OA
HETATM   27  C   UNL     1      43.837 -20.403   5.822  1.00  0.00     0.143 A 
HETATM   28  C   UNL     1      44.425 -20.245   4.591  1.00  0.00     0.027 A 
HETATM   29  C   UNL     1      44.358 -18.861   4.296  1.00  0.00     0.045 A 
ENDBRANCH  22  25
ENDBRANCH   1  21
TORSDOF 5
ENDMDL
MODEL 9
REMARK VINA RESULT:      -7.1      7.852     13.917
REMARK  5 active torsions:
REMARK  status: ('A' for Active; 'I' for Inactive)
REMARK    1  A    between atoms: C_4  and  C_5 
REMARK       I    between atoms: C_5  and  N_6 
REMARK    2  A    between atoms: N_6  and  C_7 
REMARK    3  A    between atoms: C_10  and  N_11 
REMARK       I    between atoms: N_11  and  C_12 
REMARK       I    between atoms: C_12  and  N_13 
REMARK    4  A    between atoms: N_13  and  C_14 
REMARK    5  A    between atoms: C_14  and  C_15 
ROOT
HETATM    1  C   UNL     1      42.910  -8.725  12.733  1.00  0.00     0.035 A 
HETATM    2  C   UNL     1      41.822  -9.473  13.185  1.00  0.00     0.032 A 
HETATM    3  C   UNL     1      41.066  -9.047  14.295  1.00  0.00     0.032 A 
HETATM    4  C   UNL     1      41.404  -7.880  14.976  1.00  0.00     0.036 A 
HETATM    5  C   UNL     1      42.500  -7.137  14.519  1.00  0.00     0.032 A 
HETATM    6  C   UNL     1      43.244  -7.552  13.413  1.00  0.00     0.032 A 
ENDROOT
BRANCH   4   7
HETATM    7  N   UNL     1      40.706  -7.329  16.063  1.00  0.00    -0.309 N 
HETATM    8  C   UNL     1      40.719  -7.511  17.404  1.00  0.00     0.321 C 
HETATM    9  N   UNL     1      41.729  -8.206  17.975  1.00  0.00    -0.337 N 
HETATM   10  O   UNL     1      39.811  -7.008  18.067  1.00  0.00    -0.247 OA
HETATM   11  H   UNL     1      42.637  -8.139  17.536  1.00  0.00     0.164 HD
HETATM   12  H   UNL     1      39.960  -6.687  15.824  1.00  0.00     0.170 HD
BRANCH   9  13
HETATM   13  C   UNL     1      41.766  -8.303  19.420  1.00  0.00     0.183 C 
BRANCH  13  14
HETATM   14  C   UNL     1      42.652  -7.269  20.076  1.00  0.00     0.053 A 
HETATM   15  N   UNL     1      44.001  -7.422  19.996  1.00  0.00    -0.264 NA
HETATM   16  C   UNL     1      44.772  -6.470  20.568  1.00  0.00     0.118 A 
HETATM   17  C   UNL     1      44.270  -5.352  21.204  1.00  0.00     0.043 A 
HETATM   18  C   UNL     1      42.891  -5.209  21.255  1.00  0.00     0.037 A 
HETATM   19 CL   UNL     1      42.200  -3.829  22.018  1.00  0.00    -0.084 Cl
HETATM   20  C   UNL     1      42.063  -6.169  20.690  1.00  0.00     0.052 A 
ENDBRANCH  13  14
ENDBRANCH   9  13
ENDBRANCH   4   7
BRANCH   1  21
HETATM   21  N   UNL     1      43.690  -9.046  11.609  1.00  0.00    -0.321 N 
HETATM   22  C   UNL     1      43.280  -9.347  10.323  1.00  0.00     0.279 C 
HETATM   23  O   UNL     1      42.117  -9.449   9.951  1.00  0.00    -0.265 OA
HETATM   24  H   UNL     1      44.697  -9.042  11.733  1.00  0.00     0.169 HD
BRANCH  22  25
HETATM   25  C   UNL     1      44.406  -9.540   9.422  1.00  0.00     0.142 A 
HETATM   26  O   UNL     1      44.731 -10.813   9.016  1.00  0.00    -0.317 OA
HETATM   27  C   UNL     1      45.817 -10.711   8.207  1.00  0.00     0.143 A 
HETATM   28  C   UNL     1      46.199  -9.398   8.076  1.00  0.00     0.027 A 
HETATM   29  C   UNL     1      45.291  -8.642   8.856  1.00  0.00     0.045 A 
ENDBRANCH  22  25
ENDBRANCH   1  21
TORSDOF 5
ENDMDL
MODEL 10
REMARK VINA RESULT:      -7.0      3.338      5.473
REMARK  5 active torsions:
REMARK  status: ('A' for Active; 'I' for Inactive)
REMARK    1  A    between atoms: C_4  and  C_5 
REMARK       I    between atoms: C_5  and  N_6 
REMARK    2  A    between atoms: N_6  and  C_7 
REMARK    3  A    between atoms: C_10  and  N_11 
REMARK       I    between atoms: N_11  and  C_12 
REMARK       I    between atoms: C_12  and  N_13 
REMARK    4  A    between atoms: N_13  and  C_14 
REMARK    5  A    between atoms: C_14  and  C_15 
ROOT
HETATM    1  C   UNL     1      42.270  -8.753  12.439  1.00  0.00     0.035 A 
HETATM    2  C   UNL     1      42.733 -10.068  12.495  1.00  0.00     0.032 A 
HETATM    3  C   UNL     1      43.568 -10.583  11.485  1.00  0.00     0.032 A 
HETATM    4  C   UNL     1      43.933  -9.793  10.397  1.00  0.00     0.036 A 
HETATM    5  C   UNL     1      43.461  -8.475  10.344  1.00  0.00     0.032 A 
HETATM    6  C   UNL     1      42.640  -7.960  11.351  1.00  0.00     0.032 A 
ENDROOT
BRANCH   4   7
HETATM    7  N   UNL     1      44.792 -10.173   9.353  1.00  0.00    -0.309 N 
HETATM    8  C   UNL     1      44.641 -10.812   8.170  1.00  0.00     0.321 C 
HETATM    9  N   UNL     1      43.400 -11.000   7.664  1.00  0.00    -0.337 N 
HETATM   10  O   UNL     1      45.654 -11.182   7.576  1.00  0.00    -0.247 OA
HETATM   11  H   UNL     1      42.711 -10.289   7.867  1.00  0.00     0.164 HD
HETATM   12  H   UNL     1      45.778 -10.008   9.516  1.00  0.00     0.170 HD
BRANCH   9  13
HETATM   13  C   UNL     1      43.276 -11.601   6.353  1.00  0.00     0.183 C 
BRANCH  13  14
HETATM   14  C   UNL     1      42.831 -13.045   6.385  1.00  0.00     0.053 A 
HETATM   15  N   UNL     1      41.513 -13.325   6.196  1.00  0.00    -0.264 NA
HETATM   16  C   UNL     1      41.144 -14.626   6.202  1.00  0.00     0.118 A 
HETATM   17  C   UNL     1      42.026 -15.675   6.368  1.00  0.00     0.043 A 
HETATM   18  C   UNL     1      43.367 -15.365   6.539  1.00  0.00     0.037 A 
HETATM   19 CL   UNL     1      44.521 -16.627   6.734  1.00  0.00    -0.084 Cl
HETATM   20  C   UNL     1      43.786 -14.042   6.550  1.00  0.00     0.052 A 
ENDBRANCH  13  14
ENDBRANCH   9  13
ENDBRANCH   4   7
BRANCH   1  21
HETATM   21  N   UNL     1      41.474  -8.142  13.422  1.00  0.00    -0.321 N 
HETATM   22  C   UNL     1      41.863  -7.362  14.495  1.00  0.00     0.279 C 
HETATM   23  O   UNL     1      43.020  -7.117  14.817  1.00  0.00    -0.265 OA
HETATM   24  H   UNL     1      40.469  -8.259  13.338  1.00  0.00     0.169 HD
BRANCH  22  25
HETATM   25  C   UNL     1      40.723  -6.842  15.236  1.00  0.00     0.142 A 
HETATM   26  O   UNL     1      40.767  -6.824  16.610  1.00  0.00    -0.317 OA
HETATM   27  C   UNL     1      39.583  -6.316  17.041  1.00  0.00     0.143 A 
HETATM   28  C   UNL     1      38.776  -5.999  15.975  1.00  0.00     0.027 A 
HETATM   29  C   UNL     1      39.509  -6.337  14.811  1.00  0.00     0.045 A 
ENDBRANCH  22  25
ENDBRANCH   1  21
TORSDOF 5
ENDMDL
