MODEL 1
REMARK VINA RESULT:      -8.7      0.000      0.000
REMARK  9 active torsions:
REMARK  status: ('A' for Active; 'I' for Inactive)
REMARK    1  A    between atoms: C_2  and  O_3 
REMARK    2  A    between atoms: O_3  and  C_4 
REMARK    3  A    between atoms: C_7  and  N_8 
REMARK       I    between atoms: N_8  and  C_9 
REMARK    4  A    between atoms: C_9  and  C_10 
REMARK    5  A    between atoms: C_11  and  N_12 
REMARK       I    between atoms: N_12  and  C_13 
REMARK    6  A    between atoms: C_13  and  C_14 
REMARK    7  A    between atoms: C_14  and  N_15 
REMARK    8  A    between atoms: N_15  and  C_18 
REMARK    9  A    between atoms: C_18  and  C_19 
ROOT
HETATM    1  C   UNL     1      43.420 -10.882   7.638  1.00  0.00     0.073 A 
HETATM    2  C   UNL     1      42.644 -10.109   6.778  1.00  0.00     0.093 A 
HETATM    3  S   UNL     1      42.214  -8.613   7.451  1.00  0.00    -0.075 SA
HETATM    4  C   UNL     1      42.915  -9.002   8.942  1.00  0.00    -0.008 A 
HETATM    5  C   UNL     1      43.503 -10.254   8.945  1.00  0.00    -0.026 A 
HETATM    6  C   UNL     1      44.104 -10.814  10.207  1.00  0.00     0.041 C 
HETATM    7  C   UNL     1      43.596 -10.084  11.461  1.00  0.00     0.009 C 
HETATM    8  C   UNL     1      43.692  -8.556  11.286  1.00  0.00    -0.014 C 
HETATM    9  C   UNL     1      43.314  -7.837  12.580  1.00  0.00     0.010 C 
HETATM   10  C   UNL     1      42.801  -8.078  10.120  1.00  0.00     0.051 C 
ENDROOT
BRANCH   2  11
HETATM   11  N   UNL     1      42.240 -10.474   5.499  1.00  0.00    -0.319 N 
HETATM   12  C   UNL     1      41.299 -11.424   5.170  1.00  0.00     0.248 C 
HETATM   13  O   UNL     1      40.583 -12.090   5.916  1.00  0.00    -0.271 OA
HETATM   14  H   UNL     1      42.790 -10.021   4.764  1.00  0.00     0.169 HD
BRANCH  12  15
HETATM   15  C   UNL     1      41.152 -11.655   3.664  1.00  0.00     0.335 C 
BRANCH  15  16
HETATM   16  N   UNL     1      40.199 -12.796   3.406  1.00  0.00    -0.063 N 
HETATM   17  H   UNL     1      40.267 -13.528   4.121  1.00  0.00     0.278 HD
HETATM   18  H   UNL     1      39.248 -12.397   3.481  1.00  0.00     0.278 HD
BRANCH  16  19
HETATM   19  C   UNL     1      40.289 -13.397   2.047  1.00  0.00     0.271 C 
BRANCH  19  20
HETATM   20  C   UNL     1      41.262 -14.539   2.033  1.00  0.00    -0.033 A 
HETATM   21  C   UNL     1      42.608 -14.318   1.699  1.00  0.00     0.009 A 
HETATM   22  C   UNL     1      43.507 -15.383   1.654  1.00  0.00     0.001 A 
HETATM   23  C   UNL     1      43.072 -16.677   1.930  1.00  0.00     0.000 A 
HETATM   24  C   UNL     1      41.737 -16.910   2.252  1.00  0.00     0.001 A 
HETATM   25  C   UNL     1      40.833 -15.848   2.301  1.00  0.00     0.009 A 
ENDBRANCH  19  20
ENDBRANCH  16  19
ENDBRANCH  15  16
ENDBRANCH  12  15
ENDBRANCH   2  11
BRANCH   1  26
HETATM   26  C   UNL     1      43.975 -12.178   7.205  1.00  0.00     0.259 C 
HETATM   27  N   UNL     1      43.147 -13.249   7.457  1.00  0.00    -0.323 N 
HETATM   28  H   UNL     1      42.356 -13.070   8.060  1.00  0.00     0.169 HD
HETATM   29  O   UNL     1      45.117 -12.236   6.753  1.00  0.00    -0.267 OA
BRANCH  27  30
HETATM   30  C   UNL     1      43.275 -14.579   7.017  1.00  0.00     0.035 A 
HETATM   31  C   UNL     1      43.277 -14.967   5.680  1.00  0.00     0.032 A 
HETATM   32  C   UNL     1      43.342 -16.326   5.344  1.00  0.00     0.039 A 
HETATM   33  C   UNL     1      43.401 -17.311   6.333  1.00  0.00     0.068 A 
HETATM   34  C   UNL     1      43.419 -16.923   7.670  1.00  0.00     0.039 A 
HETATM   35  C   UNL     1      43.353 -15.567   8.008  1.00  0.00     0.032 A 
BRANCH  33  36
HETATM   36  O   UNL     1      43.431 -18.596   5.869  1.00  0.00    -0.352 OA
BRANCH  36  37
HETATM   37  C   UNL     1      44.191 -18.838   4.683  1.00  0.00     0.171 C 
HETATM   38  C   UNL     1      44.200 -20.333   4.422  1.00  0.00     0.034 C 
ENDBRANCH  36  37
ENDBRANCH  33  36
ENDBRANCH  27  30
ENDBRANCH   1  26
TORSDOF 9
ENDMDL
MODEL 2
REMARK VINA RESULT:      -8.4      1.552      2.077
REMARK  9 active torsions:
REMARK  status: ('A' for Active; 'I' for Inactive)
REMARK    1  A    between atoms: C_2  and  O_3 
REMARK    2  A    between atoms: O_3  and  C_4 
REMARK    3  A    between atoms: C_7  and  N_8 
REMARK       I    between atoms: N_8  and  C_9 
REMARK    4  A    between atoms: C_9  and  C_10 
REMARK    5  A    between atoms: C_11  and  N_12 
REMARK       I    between atoms: N_12  and  C_13 
REMARK    6  A    between atoms: C_13  and  C_14 
REMARK    7  A    between atoms: C_14  and  N_15 
REMARK    8  A    between atoms: N_15  and  C_18 
REMARK    9  A    between atoms: C_18  and  C_19 
ROOT
HETATM    1  C   UNL     1      42.085 -10.791   5.754  1.00  0.00     0.073 A 
HETATM    2  C   UNL     1      41.001 -10.251   5.067  1.00  0.00     0.093 A 
HETATM    3  S   UNL     1      40.669  -8.651   5.520  1.00  0.00    -0.075 SA
HETATM    4  C   UNL     1      41.850  -8.675   6.733  1.00  0.00    -0.008 A 
HETATM    5  C   UNL     1      42.526  -9.880   6.796  1.00  0.00    -0.026 A 
HETATM    6  C   UNL     1      43.554 -10.124   7.869  1.00  0.00     0.041 C 
HETATM    7  C   UNL     1      43.412  -9.139   9.040  1.00  0.00     0.009 C 
HETATM    8  C   UNL     1      43.297  -7.689   8.530  1.00  0.00    -0.014 C 
HETATM    9  C   UNL     1      43.291  -6.703   9.696  1.00  0.00     0.010 C 
HETATM   10  C   UNL     1      42.034  -7.509   7.661  1.00  0.00     0.051 C 
ENDROOT
BRANCH   2  11
HETATM   11  N   UNL     1      40.241 -10.907   4.104  1.00  0.00    -0.319 N 
HETATM   12  C   UNL     1      39.407 -11.984   4.305  1.00  0.00     0.248 C 
HETATM   13  O   UNL     1      39.108 -12.542   5.359  1.00  0.00    -0.271 OA
HETATM   14  H   UNL     1      40.424 -10.570   3.156  1.00  0.00     0.169 HD
BRANCH  12  15
HETATM   15  C   UNL     1      38.785 -12.533   3.019  1.00  0.00     0.335 C 
BRANCH  15  16
HETATM   16  N   UNL     1      39.224 -13.961   2.800  1.00  0.00    -0.063 N 
HETATM   17  H   UNL     1      39.733 -14.339   3.606  1.00  0.00     0.278 HD
HETATM   18  H   UNL     1      38.355 -14.516   2.711  1.00  0.00     0.278 HD
BRANCH  16  19
HETATM   19  C   UNL     1      39.995 -14.199   1.549  1.00  0.00     0.271 C 
BRANCH  19  20
HETATM   20  C   UNL     1      41.170 -15.094   1.811  1.00  0.00    -0.033 A 
HETATM   21  C   UNL     1      40.987 -16.338   2.438  1.00  0.00     0.009 A 
HETATM   22  C   UNL     1      42.082 -17.158   2.712  1.00  0.00     0.001 A 
HETATM   23  C   UNL     1      43.367 -16.743   2.374  1.00  0.00     0.000 A 
HETATM   24  C   UNL     1      43.562 -15.507   1.761  1.00  0.00     0.001 A 
HETATM   25  C   UNL     1      42.471 -14.683   1.482  1.00  0.00     0.009 A 
ENDBRANCH  19  20
ENDBRANCH  16  19
ENDBRANCH  15  16
ENDBRANCH  12  15
ENDBRANCH   2  11
BRANCH   1  26
HETATM   26  C   UNL     1      42.593 -12.139   5.439  1.00  0.00     0.259 C 
HETATM   27  N   UNL     1      42.506 -13.025   6.489  1.00  0.00    -0.323 N 
HETATM   28  H   UNL     1      42.287 -12.628   7.392  1.00  0.00     0.169 HD
HETATM   29  O   UNL     1      43.117 -12.357   4.348  1.00  0.00    -0.267 OA
BRANCH  27  30
HETATM   30  C   UNL     1      42.721 -14.416   6.484  1.00  0.00     0.035 A 
HETATM   31  C   UNL     1      43.976 -15.016   6.453  1.00  0.00     0.032 A 
HETATM   32  C   UNL     1      44.086 -16.411   6.383  1.00  0.00     0.039 A 
HETATM   33  C   UNL     1      42.949 -17.221   6.338  1.00  0.00     0.068 A 
HETATM   34  C   UNL     1      41.693 -16.624   6.388  1.00  0.00     0.039 A 
HETATM   35  C   UNL     1      41.581 -15.231   6.458  1.00  0.00     0.032 A 
BRANCH  33  36
HETATM   36  O   UNL     1      43.198 -18.562   6.241  1.00  0.00    -0.352 OA
BRANCH  36  37
HETATM   37  C   UNL     1      44.089 -18.982   5.206  1.00  0.00     0.171 C 
HETATM   38  C   UNL     1      44.073 -20.498   5.152  1.00  0.00     0.034 C 
ENDBRANCH  36  37
ENDBRANCH  33  36
ENDBRANCH  27  30
ENDBRANCH   1  26
TORSDOF 9
ENDMDL
MODEL 3
REMARK VINA RESULT:      -8.4      3.076      8.449
REMARK  9 active torsions:
REMARK  status: ('A' for Active; 'I' for Inactive)
REMARK    1  A    between atoms: C_2  and  O_3 
REMARK    2  A    between atoms: O_3  and  C_4 
REMARK    3  A    between atoms: C_7  and  N_8 
REMARK       I    between atoms: N_8  and  C_9 
REMARK    4  A    between atoms: C_9  and  C_10 
REMARK    5  A    between atoms: C_11  and  N_12 
REMARK       I    between atoms: N_12  and  C_13 
REMARK    6  A    between atoms: C_13  and  C_14 
REMARK    7  A    between atoms: C_14  and  N_15 
REMARK    8  A    between atoms: N_15  and  C_18 
REMARK    9  A    between atoms: C_18  and  C_19 
ROOT
HETATM    1  C   UNL     1      42.761 -15.549   3.767  1.00  0.00     0.073 A 
HETATM    2  C   UNL     1      42.372 -15.022   4.996  1.00  0.00     0.093 A 
HETATM    3  S   UNL     1      42.731 -16.053   6.294  1.00  0.00    -0.075 SA
HETATM    4  C   UNL     1      43.276 -17.280   5.261  1.00  0.00    -0.008 A 
HETATM    5  C   UNL     1      43.217 -16.919   3.927  1.00  0.00    -0.026 A 
HETATM    6  C   UNL     1      43.578 -17.909   2.851  1.00  0.00     0.041 C 
HETATM    7  C   UNL     1      43.555 -19.356   3.367  1.00  0.00     0.009 C 
HETATM    8  C   UNL     1      44.334 -19.482   4.691  1.00  0.00    -0.014 C 
HETATM    9  C   UNL     1      44.424 -20.942   5.131  1.00  0.00     0.010 C 
HETATM   10  C   UNL     1      43.686 -18.622   5.795  1.00  0.00     0.051 C 
ENDROOT
BRANCH   2  11
HETATM   11  N   UNL     1      41.756 -13.792   5.194  1.00  0.00    -0.319 N 
HETATM   12  C   UNL     1      40.582 -13.556   5.873  1.00  0.00     0.248 C 
HETATM   13  O   UNL     1      39.877 -14.351   6.493  1.00  0.00    -0.271 OA
HETATM   14  H   UNL     1      42.219 -13.030   4.691  1.00  0.00     0.169 HD
BRANCH  12  15
HETATM   15  C   UNL     1      40.123 -12.097   5.830  1.00  0.00     0.335 C 
BRANCH  15  16
HETATM   16  N   UNL     1      40.887 -11.283   6.844  1.00  0.00    -0.063 N 
HETATM   17  H   UNL     1      40.269 -10.840   7.533  1.00  0.00     0.278 HD
HETATM   18  H   UNL     1      41.477 -11.955   7.365  1.00  0.00     0.278 HD
BRANCH  16  19
HETATM   19  C   UNL     1      41.821 -10.275   6.270  1.00  0.00     0.271 C 
BRANCH  19  20
HETATM   20  C   UNL     1      43.227 -10.531   6.727  1.00  0.00    -0.033 A 
HETATM   21  C   UNL     1      43.674 -10.024   7.959  1.00  0.00     0.009 A 
HETATM   22  C   UNL     1      44.991 -10.233   8.371  1.00  0.00     0.001 A 
HETATM   23  C   UNL     1      45.873 -10.939   7.557  1.00  0.00     0.000 A 
HETATM   24  C   UNL     1      45.444 -11.437   6.330  1.00  0.00     0.001 A 
HETATM   25  C   UNL     1      44.128 -11.233   5.912  1.00  0.00     0.009 A 
ENDBRANCH  19  20
ENDBRANCH  16  19
ENDBRANCH  15  16
ENDBRANCH  12  15
ENDBRANCH   2  11
BRANCH   1  26
HETATM   26  C   UNL     1      42.621 -14.768   2.524  1.00  0.00     0.259 C 
HETATM   27  N   UNL     1      41.392 -14.902   1.919  1.00  0.00    -0.323 N 
HETATM   28  H   UNL     1      40.799 -15.640   2.270  1.00  0.00     0.169 HD
HETATM   29  O   UNL     1      43.585 -14.147   2.078  1.00  0.00    -0.267 OA
BRANCH  27  30
HETATM   30  C   UNL     1      40.860 -14.170   0.842  1.00  0.00     0.035 A 
HETATM   31  C   UNL     1      41.048 -12.803   0.652  1.00  0.00     0.032 A 
HETATM   32  C   UNL     1      40.420 -12.150  -0.417  1.00  0.00     0.039 A 
HETATM   33  C   UNL     1      39.597 -12.848  -1.304  1.00  0.00     0.068 A 
HETATM   34  C   UNL     1      39.424 -14.218  -1.128  1.00  0.00     0.039 A 
HETATM   35  C   UNL     1      40.049 -14.872  -0.060  1.00  0.00     0.032 A 
BRANCH  33  36
HETATM   36  O   UNL     1      39.025 -12.086  -2.284  1.00  0.00    -0.352 OA
BRANCH  36  37
HETATM   37  C   UNL     1      37.598 -12.097  -2.362  1.00  0.00     0.171 C 
HETATM   38  C   UNL     1      37.079 -10.808  -1.751  1.00  0.00     0.034 C 
ENDBRANCH  36  37
ENDBRANCH  33  36
ENDBRANCH  27  30
ENDBRANCH   1  26
TORSDOF 9
ENDMDL
MODEL 4
REMARK VINA RESULT:      -8.2      2.846      7.549
REMARK  9 active torsions:
REMARK  status: ('A' for Active; 'I' for Inactive)
REMARK    1  A    between atoms: C_2  and  O_3 
REMARK    2  A    between atoms: O_3  and  C_4 
REMARK    3  A    between atoms: C_7  and  N_8 
REMARK       I    between atoms: N_8  and  C_9 
REMARK    4  A    between atoms: C_9  and  C_10 
REMARK    5  A    between atoms: C_11  and  N_12 
REMARK       I    between atoms: N_12  and  C_13 
REMARK    6  A    between atoms: C_13  and  C_14 
REMARK    7  A    between atoms: C_14  and  N_15 
REMARK    8  A    between atoms: N_15  and  C_18 
REMARK    9  A    between atoms: C_18  and  C_19 
ROOT
HETATM    1  C   UNL     1      41.958 -15.235   4.260  1.00  0.00     0.073 A 
HETATM    2  C   UNL     1      41.115 -14.834   3.226  1.00  0.00     0.093 A 
HETATM    3  S   UNL     1      40.934 -16.022   2.031  1.00  0.00    -0.075 SA
HETATM    4  C   UNL     1      42.071 -17.038   2.768  1.00  0.00    -0.008 A 
HETATM    5  C   UNL     1      42.583 -16.506   3.937  1.00  0.00    -0.026 A 
HETATM    6  C   UNL     1      43.671 -17.223   4.691  1.00  0.00     0.041 C 
HETATM    7  C   UNL     1      44.387 -18.266   3.819  1.00  0.00     0.009 C 
HETATM    8  C   UNL     1      43.371 -19.161   3.083  1.00  0.00    -0.014 C 
HETATM    9  C   UNL     1      44.082 -20.279   2.324  1.00  0.00     0.010 C 
HETATM   10  C   UNL     1      42.495 -18.327   2.125  1.00  0.00     0.051 C 
ENDROOT
BRANCH   2  11
HETATM   11  N   UNL     1      40.467 -13.607   3.137  1.00  0.00    -0.319 N 
HETATM   12  C   UNL     1      41.038 -12.393   2.829  1.00  0.00     0.248 C 
HETATM   13  O   UNL     1      42.200 -12.145   2.509  1.00  0.00    -0.271 OA
HETATM   14  H   UNL     1      39.485 -13.654   3.421  1.00  0.00     0.169 HD
BRANCH  12  15
HETATM   15  C   UNL     1      40.066 -11.214   2.904  1.00  0.00     0.335 C 
BRANCH  15  16
HETATM   16  N   UNL     1      38.971 -11.378   1.879  1.00  0.00    -0.063 N 
HETATM   17  H   UNL     1      38.549 -12.313   1.907  1.00  0.00     0.278 HD
HETATM   18  H   UNL     1      38.227 -10.710   2.144  1.00  0.00     0.278 HD
BRANCH  16  19
HETATM   19  C   UNL     1      39.357 -11.032   0.483  1.00  0.00     0.271 C 
BRANCH  19  20
HETATM   20  C   UNL     1      39.056 -12.168  -0.449  1.00  0.00    -0.033 A 
HETATM   21  C   UNL     1      39.909 -13.283  -0.505  1.00  0.00     0.009 A 
HETATM   22  C   UNL     1      39.650 -14.326  -1.395  1.00  0.00     0.001 A 
HETATM   23  C   UNL     1      38.546 -14.263  -2.242  1.00  0.00     0.000 A 
HETATM   24  C   UNL     1      37.699 -13.158  -2.202  1.00  0.00     0.001 A 
HETATM   25  C   UNL     1      37.952 -12.112  -1.314  1.00  0.00     0.009 A 
ENDBRANCH  19  20
ENDBRANCH  16  19
ENDBRANCH  15  16
ENDBRANCH  12  15
ENDBRANCH   2  11
BRANCH   1  26
HETATM   26  C   UNL     1      42.172 -14.381   5.444  1.00  0.00     0.259 C 
HETATM   27  N   UNL     1      43.157 -13.434   5.274  1.00  0.00    -0.323 N 
HETATM   28  H   UNL     1      43.741 -13.538   4.457  1.00  0.00     0.169 HD
HETATM   29  O   UNL     1      41.557 -14.609   6.484  1.00  0.00    -0.267 OA
BRANCH  27  30
HETATM   30  C   UNL     1      43.489 -12.354   6.113  1.00  0.00     0.035 A 
HETATM   31  C   UNL     1      42.639 -11.288   6.394  1.00  0.00     0.032 A 
HETATM   32  C   UNL     1      43.087 -10.225   7.190  1.00  0.00     0.039 A 
HETATM   33  C   UNL     1      44.384 -10.209   7.708  1.00  0.00     0.068 A 
HETATM   34  C   UNL     1      45.228 -11.284   7.444  1.00  0.00     0.039 A 
HETATM   35  C   UNL     1      44.784 -12.346   6.649  1.00  0.00     0.032 A 
BRANCH  33  36
HETATM   36  O   UNL     1      44.700  -9.100   8.442  1.00  0.00    -0.352 OA
BRANCH  36  37
HETATM   37  C   UNL     1      45.451  -9.309   9.639  1.00  0.00     0.171 C 
HETATM   38  C   UNL     1      44.488  -9.721  10.738  1.00  0.00     0.034 C 
ENDBRANCH  36  37
ENDBRANCH  33  36
ENDBRANCH  27  30
ENDBRANCH   1  26
TORSDOF 9
ENDMDL
MODEL 5
REMARK VINA RESULT:      -8.1      1.356      1.774
REMARK  9 active torsions:
REMARK  status: ('A' for Active; 'I' for Inactive)
REMARK    1  A    between atoms: C_2  and  O_3 
REMARK    2  A    between atoms: O_3  and  C_4 
REMARK    3  A    between atoms: C_7  and  N_8 
REMARK       I    between atoms: N_8  and  C_9 
REMARK    4  A    between atoms: C_9  and  C_10 
REMARK    5  A    between atoms: C_11  and  N_12 
REMARK       I    between atoms: N_12  and  C_13 
REMARK    6  A    between atoms: C_13  and  C_14 
REMARK    7  A    between atoms: C_14  and  N_15 
REMARK    8  A    between atoms: N_15  and  C_18 
REMARK    9  A    between atoms: C_18  and  C_19 
ROOT
HETATM    1  C   UNL     1      43.349 -10.378   7.778  1.00  0.00     0.073 A 
HETATM    2  C   UNL     1      42.581  -9.495   7.024  1.00  0.00     0.093 A 
HETATM    3  S   UNL     1      42.135  -8.110   7.892  1.00  0.00    -0.075 SA
HETATM    4  C   UNL     1      42.817  -8.701   9.325  1.00  0.00    -0.008 A 
HETATM    5  C   UNL     1      43.412  -9.939   9.161  1.00  0.00    -0.026 A 
HETATM    6  C   UNL     1      43.998 -10.668  10.342  1.00  0.00     0.041 C 
HETATM    7  C   UNL     1      43.469 -10.122  11.677  1.00  0.00     0.009 C 
HETATM    8  C   UNL     1      43.560  -8.584  11.719  1.00  0.00    -0.014 C 
HETATM    9  C   UNL     1      43.161  -8.054  13.095  1.00  0.00     0.010 C 
HETATM   10  C   UNL     1      42.682  -7.951  10.619  1.00  0.00     0.051 C 
ENDROOT
BRANCH   2  11
HETATM   11  N   UNL     1      42.197  -9.680   5.700  1.00  0.00    -0.319 N 
HETATM   12  C   UNL     1      40.931  -9.968   5.241  1.00  0.00     0.248 C 
HETATM   13  O   UNL     1      39.882 -10.055   5.876  1.00  0.00    -0.271 OA
HETATM   14  H   UNL     1      42.989  -9.675   5.052  1.00  0.00     0.169 HD
BRANCH  12  15
HETATM   15  C   UNL     1      40.859 -10.203   3.731  1.00  0.00     0.335 C 
BRANCH  15  16
HETATM   16  N   UNL     1      40.076 -11.459   3.439  1.00  0.00    -0.063 N 
HETATM   17  H   UNL     1      40.508 -12.292   3.854  1.00  0.00     0.278 HD
HETATM   18  H   UNL     1      39.159 -11.339   3.904  1.00  0.00     0.278 HD
BRANCH  16  19
HETATM   19  C   UNL     1      39.780 -11.699   2.000  1.00  0.00     0.271 C 
BRANCH  19  20
HETATM   20  C   UNL     1      39.808 -13.166   1.688  1.00  0.00    -0.033 A 
HETATM   21  C   UNL     1      39.790 -14.111   2.727  1.00  0.00     0.009 A 
HETATM   22  C   UNL     1      39.849 -15.475   2.440  1.00  0.00     0.001 A 
HETATM   23  C   UNL     1      39.937 -15.908   1.120  1.00  0.00     0.000 A 
HETATM   24  C   UNL     1      39.966 -14.981   0.082  1.00  0.00     0.001 A 
HETATM   25  C   UNL     1      39.906 -13.614   0.361  1.00  0.00     0.009 A 
ENDBRANCH  19  20
ENDBRANCH  16  19
ENDBRANCH  15  16
ENDBRANCH  12  15
ENDBRANCH   2  11
BRANCH   1  26
HETATM   26  C   UNL     1      43.917 -11.601   7.177  1.00  0.00     0.259 C 
HETATM   27  N   UNL     1      42.992 -12.599   6.971  1.00  0.00    -0.323 N 
HETATM   28  H   UNL     1      42.091 -12.471   7.409  1.00  0.00     0.169 HD
HETATM   29  O   UNL     1      45.129 -11.685   6.988  1.00  0.00    -0.267 OA
BRANCH  27  30
HETATM   30  C   UNL     1      43.145 -13.804   6.261  1.00  0.00     0.035 A 
HETATM   31  C   UNL     1      42.830 -13.967   4.914  1.00  0.00     0.032 A 
HETATM   32  C   UNL     1      42.954 -15.225   4.312  1.00  0.00     0.039 A 
HETATM   33  C   UNL     1      43.389 -16.334   5.042  1.00  0.00     0.068 A 
HETATM   34  C   UNL     1      43.724 -16.169   6.383  1.00  0.00     0.039 A 
HETATM   35  C   UNL     1      43.600 -14.912   6.987  1.00  0.00     0.032 A 
BRANCH  33  36
HETATM   36  O   UNL     1      43.438 -17.506   4.341  1.00  0.00    -0.352 OA
BRANCH  36  37
HETATM   37  C   UNL     1      43.006 -17.465   2.979  1.00  0.00     0.171 C 
HETATM   38  C   UNL     1      43.285 -18.818   2.351  1.00  0.00     0.034 C 
ENDBRANCH  36  37
ENDBRANCH  33  36
ENDBRANCH  27  30
ENDBRANCH   1  26
TORSDOF 9
ENDMDL
MODEL 6
REMARK VINA RESULT:      -8.0      3.078      7.720
REMARK  9 active torsions:
REMARK  status: ('A' for Active; 'I' for Inactive)
REMARK    1  A    between atoms: C_2  and  O_3 
REMARK    2  A    between atoms: O_3  and  C_4 
REMARK    3  A    between atoms: C_7  and  N_8 
REMARK       I    between atoms: N_8  and  C_9 
REMARK    4  A    between atoms: C_9  and  C_10 
REMARK    5  A    between atoms: C_11  and  N_12 
REMARK       I    between atoms: N_12  and  C_13 
REMARK    6  A    between atoms: C_13  and  C_14 
REMARK    7  A    between atoms: C_14  and  N_15 
REMARK    8  A    between atoms: N_15  and  C_18 
REMARK    9  A    between atoms: C_18  and  C_19 
ROOT
HETATM    1  C   UNL     1      40.384 -12.760   1.921  1.00  0.00     0.073 A 
HETATM    2  C   UNL     1      41.019 -13.484   0.915  1.00  0.00     0.093 A 
HETATM    3  S   UNL     1      40.465 -13.076  -0.634  1.00  0.00    -0.075 SA
HETATM    4  C   UNL     1      39.275 -12.043  -0.014  1.00  0.00    -0.008 A 
HETATM    5  C   UNL     1      39.296 -11.973   1.367  1.00  0.00    -0.026 A 
HETATM    6  C   UNL     1      38.258 -11.173   2.108  1.00  0.00     0.041 C 
HETATM    7  C   UNL     1      37.027 -10.877   1.237  1.00  0.00     0.009 C 
HETATM    8  C   UNL     1      37.446 -10.330  -0.142  1.00  0.00    -0.014 C 
HETATM    9  C   UNL     1      36.222  -9.911  -0.954  1.00  0.00     0.010 C 
HETATM   10  C   UNL     1      38.281 -11.371  -0.917  1.00  0.00     0.051 C 
ENDROOT
BRANCH   2  11
HETATM   11  N   UNL     1      42.007 -14.444   1.105  1.00  0.00    -0.319 N 
HETATM   12  C   UNL     1      41.831 -15.727   1.571  1.00  0.00     0.248 C 
HETATM   13  O   UNL     1      40.785 -16.310   1.850  1.00  0.00    -0.271 OA
HETATM   14  H   UNL     1      42.951 -14.080   0.948  1.00  0.00     0.169 HD
BRANCH  12  15
HETATM   15  C   UNL     1      43.137 -16.504   1.755  1.00  0.00     0.335 C 
BRANCH  15  16
HETATM   16  N   UNL     1      42.929 -17.647   2.718  1.00  0.00    -0.063 N 
HETATM   17  H   UNL     1      41.976 -17.668   3.096  1.00  0.00     0.278 HD
HETATM   18  H   UNL     1      43.047 -18.512   2.164  1.00  0.00     0.278 HD
BRANCH  16  19
HETATM   19  C   UNL     1      43.922 -17.728   3.824  1.00  0.00     0.271 C 
BRANCH  19  20
HETATM   20  C   UNL     1      43.364 -17.134   5.085  1.00  0.00    -0.033 A 
HETATM   21  C   UNL     1      42.035 -16.681   5.125  1.00  0.00     0.009 A 
HETATM   22  C   UNL     1      41.524 -16.099   6.285  1.00  0.00     0.001 A 
HETATM   23  C   UNL     1      42.333 -15.955   7.410  1.00  0.00     0.000 A 
HETATM   24  C   UNL     1      43.655 -16.392   7.378  1.00  0.00     0.001 A 
HETATM   25  C   UNL     1      44.173 -16.976   6.221  1.00  0.00     0.009 A 
ENDBRANCH  19  20
ENDBRANCH  16  19
ENDBRANCH  15  16
ENDBRANCH  12  15
ENDBRANCH   2  11
BRANCH   1  26
HETATM   26  C   UNL     1      40.789 -12.900   3.333  1.00  0.00     0.259 C 
HETATM   27  N   UNL     1      41.956 -12.240   3.644  1.00  0.00    -0.323 N 
HETATM   28  H   UNL     1      42.497 -11.897   2.863  1.00  0.00     0.169 HD
HETATM   29  O   UNL     1      40.146 -13.629   4.086  1.00  0.00    -0.267 OA
BRANCH  27  30
HETATM   30  C   UNL     1      42.523 -12.009   4.910  1.00  0.00     0.035 A 
HETATM   31  C   UNL     1      42.286 -10.875   5.682  1.00  0.00     0.032 A 
HETATM   32  C   UNL     1      42.951 -10.706   6.904  1.00  0.00     0.039 A 
HETATM   33  C   UNL     1      43.861 -11.660   7.367  1.00  0.00     0.068 A 
HETATM   34  C   UNL     1      44.084 -12.803   6.606  1.00  0.00     0.039 A 
HETATM   35  C   UNL     1      43.422 -12.974   5.385  1.00  0.00     0.032 A 
BRANCH  33  36
HETATM   36  O   UNL     1      44.461 -11.357   8.557  1.00  0.00    -0.352 OA
BRANCH  36  37
HETATM   37  C   UNL     1      45.566 -10.453   8.514  1.00  0.00     0.171 C 
HETATM   38  C   UNL     1      45.443  -9.496   9.686  1.00  0.00     0.034 C 
ENDBRANCH  36  37
ENDBRANCH  33  36
ENDBRANCH  27  30
ENDBRANCH   1  26
TORSDOF 9
ENDMDL
MODEL 7
REMARK VINA RESULT:      -8.0      2.767      9.385
REMARK  9 active torsions:
REMARK  status: ('A' for Active; 'I' for Inactive)
REMARK    1  A    between atoms: C_2  and  O_3 
REMARK    2  A    between atoms: O_3  and  C_4 
REMARK    3  A    between atoms: C_7  and  N_8 
REMARK       I    between atoms: N_8  and  C_9 
REMARK    4  A    between atoms: C_9  and  C_10 
REMARK    5  A    between atoms: C_11  and  N_12 
REMARK       I    between atoms: N_12  and  C_13 
REMARK    6  A    between atoms: C_13  and  C_14 
REMARK    7  A    between atoms: C_14  and  N_15 
REMARK    8  A    between atoms: N_15  and  C_18 
REMARK    9  A    between atoms: C_18  and  C_19 
ROOT
HETATM    1  C   UNL     1      42.947 -14.739   3.930  1.00  0.00     0.073 A 
HETATM    2  C   UNL     1      43.132 -14.525   5.293  1.00  0.00     0.093 A 
HETATM    3  S   UNL     1      43.735 -15.892   6.095  1.00  0.00    -0.075 SA
HETATM    4  C   UNL     1      43.632 -16.844   4.699  1.00  0.00    -0.008 A 
HETATM    5  C   UNL     1      43.166 -16.138   3.604  1.00  0.00    -0.026 A 
HETATM    6  C   UNL     1      42.924 -16.835   2.292  1.00  0.00     0.041 C 
HETATM    7  C   UNL     1      42.818 -18.359   2.458  1.00  0.00     0.009 C 
HETATM    8  C   UNL     1      43.983 -18.903   3.308  1.00  0.00    -0.014 C 
HETATM    9  C   UNL     1      43.951 -20.429   3.359  1.00  0.00     0.010 C 
HETATM   10  C   UNL     1      43.948 -18.312   4.733  1.00  0.00     0.051 C 
ENDROOT
BRANCH   2  11
HETATM   11  N   UNL     1      42.869 -13.340   5.971  1.00  0.00    -0.319 N 
HETATM   12  C   UNL     1      43.795 -12.465   6.493  1.00  0.00     0.248 C 
HETATM   13  O   UNL     1      45.023 -12.505   6.418  1.00  0.00    -0.271 OA
HETATM   14  H   UNL     1      41.871 -13.195   6.146  1.00  0.00     0.169 HD
BRANCH  12  15
HETATM   15  C   UNL     1      43.178 -11.297   7.265  1.00  0.00     0.335 C 
BRANCH  15  16
HETATM   16  N   UNL     1      43.750 -11.237   8.660  1.00  0.00    -0.063 N 
HETATM   17  H   UNL     1      43.123 -11.655   9.356  1.00  0.00     0.278 HD
HETATM   18  H   UNL     1      44.605 -11.820   8.644  1.00  0.00     0.278 HD
BRANCH  16  19
HETATM   19  C   UNL     1      44.183  -9.884   9.106  1.00  0.00     0.271 C 
BRANCH  19  20
HETATM   20  C   UNL     1      43.643  -9.577  10.472  1.00  0.00    -0.033 A 
HETATM   21  C   UNL     1      43.537  -8.246  10.908  1.00  0.00     0.009 A 
HETATM   22  C   UNL     1      43.066  -7.959  12.190  1.00  0.00     0.001 A 
HETATM   23  C   UNL     1      42.708  -8.994  13.050  1.00  0.00     0.000 A 
HETATM   24  C   UNL     1      42.818 -10.318  12.633  1.00  0.00     0.001 A 
HETATM   25  C   UNL     1      43.287 -10.612  11.351  1.00  0.00     0.009 A 
ENDBRANCH  19  20
ENDBRANCH  16  19
ENDBRANCH  15  16
ENDBRANCH  12  15
ENDBRANCH   2  11
BRANCH   1  26
HETATM   26  C   UNL     1      42.518 -13.646   3.037  1.00  0.00     0.259 C 
HETATM   27  N   UNL     1      41.396 -13.941   2.297  1.00  0.00    -0.323 N 
HETATM   28  H   UNL     1      41.101 -14.907   2.299  1.00  0.00     0.169 HD
HETATM   29  O   UNL     1      43.200 -12.627   2.945  1.00  0.00    -0.267 OA
BRANCH  27  30
HETATM   30  C   UNL     1      40.619 -13.081   1.499  1.00  0.00     0.035 A 
HETATM   31  C   UNL     1      39.448 -12.459   1.925  1.00  0.00     0.032 A 
HETATM   32  C   UNL     1      38.708 -11.671   1.034  1.00  0.00     0.039 A 
HETATM   33  C   UNL     1      39.122 -11.498  -0.290  1.00  0.00     0.068 A 
HETATM   34  C   UNL     1      40.303 -12.103  -0.711  1.00  0.00     0.039 A 
HETATM   35  C   UNL     1      41.043 -12.891   0.177  1.00  0.00     0.032 A 
BRANCH  33  36
HETATM   36  O   UNL     1      38.293 -10.731  -1.059  1.00  0.00    -0.352 OA
BRANCH  36  37
HETATM   37  C   UNL     1      38.184 -11.080  -2.441  1.00  0.00     0.171 C 
HETATM   38  C   UNL     1      37.180 -12.211  -2.566  1.00  0.00     0.034 C 
ENDBRANCH  36  37
ENDBRANCH  33  36
ENDBRANCH  27  30
ENDBRANCH   1  26
TORSDOF 9
ENDMDL
MODEL 8
REMARK VINA RESULT:      -7.9      3.883      8.169
REMARK  9 active torsions:
REMARK  status: ('A' for Active; 'I' for Inactive)
REMARK    1  A    between atoms: C_2  and  O_3 
REMARK    2  A    between atoms: O_3  and  C_4 
REMARK    3  A    between atoms: C_7  and  N_8 
REMARK       I    between atoms: N_8  and  C_9 
REMARK    4  A    between atoms: C_9  and  C_10 
REMARK    5  A    between atoms: C_11  and  N_12 
REMARK       I    between atoms: N_12  and  C_13 
REMARK    6  A    between atoms: C_13  and  C_14 
REMARK    7  A    between atoms: C_14  and  N_15 
REMARK    8  A    between atoms: N_15  and  C_18 
REMARK    9  A    between atoms: C_18  and  C_19 
ROOT
HETATM    1  C   UNL     1      42.750 -15.417   3.944  1.00  0.00     0.073 A 
HETATM    2  C   UNL     1      42.390 -14.938   5.201  1.00  0.00     0.093 A 
HETATM    3  S   UNL     1      42.770 -16.021   6.448  1.00  0.00    -0.075 SA
HETATM    4  C   UNL     1      43.287 -17.208   5.357  1.00  0.00    -0.008 A 
HETATM    5  C   UNL     1      43.202 -16.794   4.039  1.00  0.00    -0.026 A 
HETATM    6  C   UNL     1      43.535 -17.743   2.918  1.00  0.00     0.041 C 
HETATM    7  C   UNL     1      43.515 -19.209   3.377  1.00  0.00     0.009 C 
HETATM    8  C   UNL     1      44.321 -19.391   4.678  1.00  0.00    -0.014 C 
HETATM    9  C   UNL     1      44.412 -20.867   5.058  1.00  0.00     0.010 C 
HETATM   10  C   UNL     1      43.700 -18.572   5.829  1.00  0.00     0.051 C 
ENDROOT
BRANCH   2  11
HETATM   11  N   UNL     1      41.785 -13.713   5.459  1.00  0.00    -0.319 N 
HETATM   12  C   UNL     1      40.540 -13.508   6.011  1.00  0.00     0.248 C 
HETATM   13  O   UNL     1      39.742 -14.337   6.444  1.00  0.00    -0.271 OA
HETATM   14  H   UNL     1      42.327 -12.919   5.108  1.00  0.00     0.169 HD
BRANCH  12  15
HETATM   15  C   UNL     1      40.127 -12.036   6.078  1.00  0.00     0.335 C 
BRANCH  15  16
HETATM   16  N   UNL     1      39.304 -11.673   4.866  1.00  0.00    -0.063 N 
HETATM   17  H   UNL     1      38.809 -12.482   4.476  1.00  0.00     0.278 HD
HETATM   18  H   UNL     1      38.578 -11.015   5.200  1.00  0.00     0.278 HD
BRANCH  16  19
HETATM   19  C   UNL     1      40.045 -10.957   3.791  1.00  0.00     0.271 C 
BRANCH  19  20
HETATM   20  C   UNL     1      39.145 -10.669   2.626  1.00  0.00    -0.033 A 
HETATM   21  C   UNL     1      39.236  -9.442   1.949  1.00  0.00     0.009 A 
HETATM   22  C   UNL     1      38.378  -9.158   0.885  1.00  0.00     0.001 A 
HETATM   23  C   UNL     1      37.418 -10.088   0.495  1.00  0.00     0.000 A 
HETATM   24  C   UNL     1      37.312 -11.304   1.166  1.00  0.00     0.001 A 
HETATM   25  C   UNL     1      38.168 -11.595   2.229  1.00  0.00     0.009 A 
ENDBRANCH  19  20
ENDBRANCH  16  19
ENDBRANCH  15  16
ENDBRANCH  12  15
ENDBRANCH   2  11
BRANCH   1  26
HETATM   26  C   UNL     1      42.589 -14.586   2.736  1.00  0.00     0.259 C 
HETATM   27  N   UNL     1      41.417 -14.821   2.053  1.00  0.00    -0.323 N 
HETATM   28  H   UNL     1      40.894 -15.639   2.331  1.00  0.00     0.169 HD
HETATM   29  O   UNL     1      43.499 -13.839   2.380  1.00  0.00    -0.267 OA
BRANCH  27  30
HETATM   30  C   UNL     1      40.863 -14.092   0.984  1.00  0.00     0.035 A 
HETATM   31  C   UNL     1      39.908 -14.592   0.104  1.00  0.00     0.032 A 
HETATM   32  C   UNL     1      39.466 -13.810  -0.971  1.00  0.00     0.039 A 
HETATM   33  C   UNL     1      39.973 -12.526  -1.184  1.00  0.00     0.068 A 
HETATM   34  C   UNL     1      40.913 -12.016  -0.293  1.00  0.00     0.039 A 
HETATM   35  C   UNL     1      41.356 -12.796   0.781  1.00  0.00     0.032 A 
BRANCH  33  36
HETATM   36  O   UNL     1      39.479 -11.883  -2.285  1.00  0.00    -0.352 OA
BRANCH  36  37
HETATM   37  C   UNL     1      38.345 -12.473  -2.924  1.00  0.00     0.171 C 
HETATM   38  C   UNL     1      37.145 -11.575  -2.685  1.00  0.00     0.034 C 
ENDBRANCH  36  37
ENDBRANCH  33  36
ENDBRANCH  27  30
ENDBRANCH   1  26
TORSDOF 9
ENDMDL
MODEL 9
REMARK VINA RESULT:      -7.5      7.845     12.173
REMARK  9 active torsions:
REMARK  status: ('A' for Active; 'I' for Inactive)
REMARK    1  A    between atoms: C_2  and  O_3 
REMARK    2  A    between atoms: O_3  and  C_4 
REMARK    3  A    between atoms: C_7  and  N_8 
REMARK       I    between atoms: N_8  and  C_9 
REMARK    4  A    between atoms: C_9  and  C_10 
REMARK    5  A    between atoms: C_11  and  N_12 
REMARK       I    between atoms: N_12  and  C_13 
REMARK    6  A    between atoms: C_13  and  C_14 
REMARK    7  A    between atoms: C_14  and  N_15 
REMARK    8  A    between atoms: N_15  and  C_18 
REMARK    9  A    between atoms: C_18  and  C_19 
ROOT
HETATM    1  C   UNL     1      40.974  -6.256  17.636  1.00  0.00     0.073 A 
HETATM    2  C   UNL     1      41.491  -5.000  17.946  1.00  0.00     0.093 A 
HETATM    3  S   UNL     1      41.630  -4.744  19.616  1.00  0.00    -0.075 SA
HETATM    4  C   UNL     1      40.881  -6.220  19.977  1.00  0.00    -0.008 A 
HETATM    5  C   UNL     1      40.539  -6.935  18.843  1.00  0.00    -0.026 A 
HETATM    6  C   UNL     1      39.785  -8.234  18.958  1.00  0.00     0.041 C 
HETATM    7  C   UNL     1      39.104  -8.387  20.327  1.00  0.00     0.009 C 
HETATM    8  C   UNL     1      40.089  -8.074  21.470  1.00  0.00    -0.014 C 
HETATM    9  C   UNL     1      39.451  -8.357  22.829  1.00  0.00     0.010 C 
HETATM   10  C   UNL     1      40.574  -6.611  21.393  1.00  0.00     0.051 C 
ENDROOT
BRANCH   2  11
HETATM   11  N   UNL     1      41.869  -4.028  17.027  1.00  0.00    -0.319 N 
HETATM   12  C   UNL     1      41.090  -2.999  16.546  1.00  0.00     0.248 C 
HETATM   13  O   UNL     1      39.944  -2.685  16.865  1.00  0.00    -0.271 OA
HETATM   14  H   UNL     1      42.802  -4.190  16.638  1.00  0.00     0.169 HD
BRANCH  12  15
HETATM   15  C   UNL     1      41.776  -2.154  15.471  1.00  0.00     0.335 C 
BRANCH  15  16
HETATM   16  N   UNL     1      42.072  -3.000  14.257  1.00  0.00    -0.063 N 
HETATM   17  H   UNL     1      42.547  -2.468  13.519  1.00  0.00     0.278 HD
HETATM   18  H   UNL     1      42.737  -3.728  14.571  1.00  0.00     0.278 HD
BRANCH  16  19
HETATM   19  C   UNL     1      40.901  -3.726  13.693  1.00  0.00     0.271 C 
BRANCH  19  20
HETATM   20  C   UNL     1      41.299  -4.516  12.481  1.00  0.00    -0.033 A 
HETATM   21  C   UNL     1      42.414  -4.130  11.719  1.00  0.00     0.009 A 
HETATM   22  C   UNL     1      42.766  -4.844  10.573  1.00  0.00     0.001 A 
HETATM   23  C   UNL     1      42.006  -5.940  10.172  1.00  0.00     0.000 A 
HETATM   24  C   UNL     1      40.892  -6.325  10.914  1.00  0.00     0.001 A 
HETATM   25  C   UNL     1      40.535  -5.616  12.062  1.00  0.00     0.009 A 
ENDBRANCH  19  20
ENDBRANCH  16  19
ENDBRANCH  15  16
ENDBRANCH  12  15
ENDBRANCH   2  11
BRANCH   1  26
HETATM   26  C   UNL     1      40.862  -6.709  16.236  1.00  0.00     0.259 C 
HETATM   27  N   UNL     1      42.016  -7.271  15.741  1.00  0.00    -0.323 N 
HETATM   28  H   UNL     1      42.849  -7.149  16.300  1.00  0.00     0.169 HD
HETATM   29  O   UNL     1      39.831  -6.491  15.602  1.00  0.00    -0.267 OA
BRANCH  27  30
HETATM   30  C   UNL     1      42.205  -7.965  14.531  1.00  0.00     0.035 A 
HETATM   31  C   UNL     1      41.455  -9.068  14.133  1.00  0.00     0.032 A 
HETATM   32  C   UNL     1      41.764  -9.733  12.939  1.00  0.00     0.039 A 
HETATM   33  C   UNL     1      42.824  -9.310  12.132  1.00  0.00     0.068 A 
HETATM   34  C   UNL     1      43.562  -8.195  12.518  1.00  0.00     0.039 A 
HETATM   35  C   UNL     1      43.255  -7.530  13.711  1.00  0.00     0.032 A 
BRANCH  33  36
HETATM   36  O   UNL     1      43.034 -10.064  11.011  1.00  0.00    -0.352 OA
BRANCH  36  37
HETATM   37  C   UNL     1      44.350 -10.043  10.455  1.00  0.00     0.171 C 
HETATM   38  C   UNL     1      44.314  -9.222   9.179  1.00  0.00     0.034 C 
ENDBRANCH  36  37
ENDBRANCH  33  36
ENDBRANCH  27  30
ENDBRANCH   1  26
TORSDOF 9
ENDMDL
MODEL 10
REMARK VINA RESULT:      -7.4      2.673      3.871
REMARK  9 active torsions:
REMARK  status: ('A' for Active; 'I' for Inactive)
REMARK    1  A    between atoms: C_2  and  O_3 
REMARK    2  A    between atoms: O_3  and  C_4 
REMARK    3  A    between atoms: C_7  and  N_8 
REMARK       I    between atoms: N_8  and  C_9 
REMARK    4  A    between atoms: C_9  and  C_10 
REMARK    5  A    between atoms: C_11  and  N_12 
REMARK       I    between atoms: N_12  and  C_13 
REMARK    6  A    between atoms: C_13  and  C_14 
REMARK    7  A    between atoms: C_14  and  N_15 
REMARK    8  A    between atoms: N_15  and  C_18 
REMARK    9  A    between atoms: C_18  and  C_19 
ROOT
HETATM    1  C   UNL     1      42.123 -10.500   3.751  1.00  0.00     0.073 A 
HETATM    2  C   UNL     1      41.330  -9.922   2.763  1.00  0.00     0.093 A 
HETATM    3  S   UNL     1      40.646  -8.449   3.251  1.00  0.00    -0.075 SA
HETATM    4  C   UNL     1      41.259  -8.603   4.822  1.00  0.00    -0.008 A 
HETATM    5  C   UNL     1      42.007  -9.755   4.992  1.00  0.00    -0.026 A 
HETATM    6  C   UNL     1      42.564 -10.112   6.345  1.00  0.00     0.041 C 
HETATM    7  C   UNL     1      41.855  -9.355   7.479  1.00  0.00     0.009 C 
HETATM    8  C   UNL     1      41.761  -7.849   7.162  1.00  0.00    -0.014 C 
HETATM    9  C   UNL     1      41.179  -7.081   8.347  1.00  0.00     0.010 C 
HETATM   10  C   UNL     1      40.920  -7.606   5.892  1.00  0.00     0.051 C 
ENDROOT
BRANCH   2  11
HETATM   11  N   UNL     1      41.092 -10.451   1.500  1.00  0.00    -0.319 N 
HETATM   12  C   UNL     1      41.567  -9.970   0.301  1.00  0.00     0.248 C 
HETATM   13  O   UNL     1      42.337  -9.033   0.096  1.00  0.00    -0.271 OA
HETATM   14  H   UNL     1      40.422 -11.225   1.512  1.00  0.00     0.169 HD
BRANCH  12  15
HETATM   15  C   UNL     1      41.044 -10.728  -0.922  1.00  0.00     0.335 C 
BRANCH  15  16
HETATM   16  N   UNL     1      41.302 -12.206  -0.764  1.00  0.00    -0.063 N 
HETATM   17  H   UNL     1      42.034 -12.543  -1.399  1.00  0.00     0.278 HD
HETATM   18  H   UNL     1      41.663 -12.333   0.198  1.00  0.00     0.278 HD
BRANCH  16  19
HETATM   19  C   UNL     1      40.095 -13.071  -0.868  1.00  0.00     0.271 C 
BRANCH  19  20
HETATM   20  C   UNL     1      39.939 -13.918   0.361  1.00  0.00    -0.033 A 
HETATM   21  C   UNL     1      40.046 -15.316   0.276  1.00  0.00     0.009 A 
HETATM   22  C   UNL     1      39.869 -16.107   1.411  1.00  0.00     0.001 A 
HETATM   23  C   UNL     1      39.575 -15.514   2.636  1.00  0.00     0.000 A 
HETATM   24  C   UNL     1      39.456 -14.130   2.731  1.00  0.00     0.001 A 
HETATM   25  C   UNL     1      39.634 -13.332   1.599  1.00  0.00     0.009 A 
ENDBRANCH  19  20
ENDBRANCH  16  19
ENDBRANCH  15  16
ENDBRANCH  12  15
ENDBRANCH   2  11
BRANCH   1  26
HETATM   26  C   UNL     1      42.883 -11.738   3.491  1.00  0.00     0.259 C 
HETATM   27  N   UNL     1      42.374 -12.845   4.130  1.00  0.00    -0.323 N 
HETATM   28  H   UNL     1      41.672 -12.671   4.836  1.00  0.00     0.169 HD
HETATM   29  O   UNL     1      43.918 -11.695   2.829  1.00  0.00    -0.267 OA
BRANCH  27  30
HETATM   30  C   UNL     1      42.729 -14.196   3.962  1.00  0.00     0.035 A 
HETATM   31  C   UNL     1      43.084 -14.768   2.743  1.00  0.00     0.032 A 
HETATM   32  C   UNL     1      43.358 -16.140   2.665  1.00  0.00     0.039 A 
HETATM   33  C   UNL     1      43.275 -16.957   3.796  1.00  0.00     0.068 A 
HETATM   34  C   UNL     1      42.939 -16.383   5.018  1.00  0.00     0.039 A 
HETATM   35  C   UNL     1      42.665 -15.013   5.098  1.00  0.00     0.032 A 
BRANCH  33  36
HETATM   36  O   UNL     1      43.538 -18.280   3.574  1.00  0.00    -0.352 OA
BRANCH  36  37
HETATM   37  C   UNL     1      43.392 -18.754   2.234  1.00  0.00     0.171 C 
HETATM   38  C   UNL     1      43.377 -20.271   2.266  1.00  0.00     0.034 C 
ENDBRANCH  36  37
ENDBRANCH  33  36
ENDBRANCH  27  30
ENDBRANCH   1  26
TORSDOF 9
ENDMDL
