MODEL 1
REMARK VINA RESULT:      -8.3      0.000      0.000
REMARK  5 active torsions:
REMARK  status: ('A' for Active; 'I' for Inactive)
REMARK    1  A    between atoms: C_6  and  O_7 
REMARK    2  A    between atoms: O_7  and  C_8 
REMARK    3  A    between atoms: C_8  and  C_9 
REMARK       I    between atoms: C_9  and  N_10 
REMARK    4  A    between atoms: N_10  and  N_11 
REMARK    5  A    between atoms: C_12  and  C_13 
ROOT
HETATM    1  C   UNL     1      44.117 -11.797   7.234  1.00  0.00     0.261 C 
HETATM    2  N   UNL     1      43.207 -12.844   7.188  1.00  0.00    -0.246 N 
HETATM    3  O   UNL     1      45.303 -11.871   6.912  1.00  0.00    -0.269 OA
HETATM    4  H   UNL     1      42.253 -12.694   7.503  1.00  0.00     0.192 HD
ENDROOT
BRANCH   2   5
HETATM    5  N   UNL     1      43.623 -14.068   6.755  1.00  0.00    -0.184 NA
HETATM    6  C   UNL     1      42.707 -14.906   6.401  1.00  0.00     0.152 C 
BRANCH   6   7
HETATM    7  C   UNL     1      43.108 -16.215   5.921  1.00  0.00     0.011 A 
HETATM    8  C   UNL     1      43.158 -16.684   4.567  1.00  0.00     0.004 A 
HETATM    9  C   UNL     1      43.618 -18.003   4.601  1.00  0.00     0.043 A 
HETATM   10  C   UNL     1      42.867 -16.112   3.311  1.00  0.00     0.014 A 
HETATM   11  C   UNL     1      43.799 -18.776   3.447  1.00  0.00     0.030 A 
HETATM   12  N   UNL     1      43.834 -18.327   5.920  1.00  0.00    -0.364 N 
HETATM   13  C   UNL     1      43.505 -18.184   2.217  1.00  0.00     0.002 A 
HETATM   14  C   UNL     1      43.046 -16.871   2.147  1.00  0.00     0.001 A 
HETATM   15  H   UNL     1      44.172 -19.222   6.246  1.00  0.00     0.165 HD
HETATM   16  C   UNL     1      43.535 -17.261   6.719  1.00  0.00     0.102 A 
ENDBRANCH   6   7
ENDBRANCH   2   5
BRANCH   1  17
HETATM   17  C   UNL     1      43.491 -10.463   7.627  1.00  0.00     0.280 C 
BRANCH  17  18
HETATM   18  O   UNL     1      44.352  -9.686   8.458  1.00  0.00    -0.342 OA
BRANCH  18  19
HETATM   19  C   UNL     1      43.901  -9.530   9.748  1.00  0.00     0.075 A 
HETATM   20  C   UNL     1      43.563  -8.228  10.148  1.00  0.00    -0.028 A 
HETATM   21  C   UNL     1      43.069  -8.016  11.448  1.00  0.00     0.016 A 
HETATM   22  C   UNL     1      43.659  -7.071   9.195  1.00  0.00     0.051 C 
HETATM   23  C   UNL     1      42.946  -9.075  12.357  1.00  0.00    -0.061 A 
HETATM   24  C   UNL     1      42.384  -8.853  13.729  1.00  0.00     0.048 C 
HETATM   25  C   UNL     1      43.311 -10.361  11.950  1.00  0.00     0.009 A 
HETATM   26  C   UNL     1      43.793 -10.586  10.658  1.00  0.00     0.038 A 
ENDBRANCH  18  19
ENDBRANCH  17  18
ENDBRANCH   1  17
TORSDOF 5
ENDMDL
MODEL 2
REMARK VINA RESULT:      -8.3      2.576      9.624
REMARK  5 active torsions:
REMARK  status: ('A' for Active; 'I' for Inactive)
REMARK    1  A    between atoms: C_6  and  O_7 
REMARK    2  A    between atoms: O_7  and  C_8 
REMARK    3  A    between atoms: C_8  and  C_9 
REMARK       I    between atoms: C_9  and  N_10 
REMARK    4  A    between atoms: N_10  and  N_11 
REMARK    5  A    between atoms: C_12  and  C_13 
ROOT
HETATM    1  C   UNL     1      43.092 -15.156   7.304  1.00  0.00     0.261 C 
HETATM    2  N   UNL     1      43.292 -14.003   6.558  1.00  0.00    -0.246 N 
HETATM    3  O   UNL     1      43.199 -15.239   8.528  1.00  0.00    -0.269 OA
HETATM    4  H   UNL     1      43.210 -14.039   5.547  1.00  0.00     0.192 HD
ENDROOT
BRANCH   2   5
HETATM    5  N   UNL     1      43.632 -12.848   7.198  1.00  0.00    -0.184 NA
HETATM    6  C   UNL     1      44.613 -12.171   6.701  1.00  0.00     0.152 C 
BRANCH   6   7
HETATM    7  C   UNL     1      44.997 -10.928   7.344  1.00  0.00     0.011 A 
HETATM    8  C   UNL     1      44.147  -9.866   7.794  1.00  0.00     0.004 A 
HETATM    9  C   UNL     1      44.968  -8.886   8.359  1.00  0.00     0.043 A 
HETATM   10  C   UNL     1      42.754  -9.644   7.788  1.00  0.00     0.014 A 
HETATM   11  C   UNL     1      44.469  -7.701   8.913  1.00  0.00     0.030 A 
HETATM   12  N   UNL     1      46.266  -9.331   8.252  1.00  0.00    -0.364 N 
HETATM   13  C   UNL     1      43.087  -7.509   8.895  1.00  0.00     0.002 A 
HETATM   14  C   UNL     1      42.238  -8.464   8.341  1.00  0.00     0.001 A 
HETATM   15  H   UNL     1      47.076  -8.825   8.580  1.00  0.00     0.165 HD
HETATM   16  C   UNL     1      46.294 -10.555   7.648  1.00  0.00     0.102 A 
ENDBRANCH   6   7
ENDBRANCH   2   5
BRANCH   1  17
HETATM   17  C   UNL     1      42.608 -16.341   6.476  1.00  0.00     0.280 C 
BRANCH  17  18
HETATM   18  O   UNL     1      42.664 -16.081   5.075  1.00  0.00    -0.342 OA
BRANCH  18  19
HETATM   19  C   UNL     1      42.985 -17.178   4.310  1.00  0.00     0.075 A 
HETATM   20  C   UNL     1      42.427 -17.238   3.023  1.00  0.00    -0.028 A 
HETATM   21  C   UNL     1      42.746 -18.324   2.187  1.00  0.00     0.016 A 
HETATM   22  C   UNL     1      41.551 -16.135   2.501  1.00  0.00     0.051 C 
HETATM   23  C   UNL     1      43.576 -19.360   2.633  1.00  0.00    -0.061 A 
HETATM   24  C   UNL     1      43.944 -20.498   1.727  1.00  0.00     0.048 C 
HETATM   25  C   UNL     1      44.101 -19.297   3.926  1.00  0.00     0.009 A 
HETATM   26  C   UNL     1      43.801 -18.219   4.762  1.00  0.00     0.038 A 
ENDBRANCH  18  19
ENDBRANCH  17  18
ENDBRANCH   1  17
TORSDOF 5
ENDMDL
MODEL 3
REMARK VINA RESULT:      -8.3      5.938      9.458
REMARK  5 active torsions:
REMARK  status: ('A' for Active; 'I' for Inactive)
REMARK    1  A    between atoms: C_6  and  O_7 
REMARK    2  A    between atoms: O_7  and  C_8 
REMARK    3  A    between atoms: C_8  and  C_9 
REMARK       I    between atoms: C_9  and  N_10 
REMARK    4  A    between atoms: N_10  and  N_11 
REMARK    5  A    between atoms: C_12  and  C_13 
ROOT
HETATM    1  C   UNL     1      40.995 -14.777   4.047  1.00  0.00     0.261 C 
HETATM    2  N   UNL     1      40.966 -13.495   3.516  1.00  0.00    -0.246 N 
HETATM    3  O   UNL     1      40.215 -15.684   3.756  1.00  0.00    -0.269 OA
HETATM    4  H   UNL     1      41.634 -12.802   3.840  1.00  0.00     0.192 HD
ENDROOT
BRANCH   2   5
HETATM    5  N   UNL     1      40.013 -13.178   2.594  1.00  0.00    -0.184 NA
HETATM    6  C   UNL     1      40.419 -12.939   1.391  1.00  0.00     0.152 C 
BRANCH   6   7
HETATM    7  C   UNL     1      39.434 -12.611   0.377  1.00  0.00     0.011 A 
HETATM    8  C   UNL     1      39.097 -13.356  -0.801  1.00  0.00     0.004 A 
HETATM    9  C   UNL     1      38.086 -12.653  -1.462  1.00  0.00     0.043 A 
HETATM   10  C   UNL     1      39.544 -14.568  -1.367  1.00  0.00     0.014 A 
HETATM   11  C   UNL     1      37.504 -13.098  -2.655  1.00  0.00     0.030 A 
HETATM   12  N   UNL     1      37.823 -11.524  -0.721  1.00  0.00    -0.364 N 
HETATM   13  C   UNL     1      37.965 -14.302  -3.192  1.00  0.00     0.002 A 
HETATM   14  C   UNL     1      38.970 -15.029  -2.559  1.00  0.00     0.001 A 
HETATM   15  H   UNL     1      37.132 -10.827  -0.960  1.00  0.00     0.165 HD
HETATM   16  C   UNL     1      38.623 -11.491   0.385  1.00  0.00     0.102 A 
ENDBRANCH   6   7
ENDBRANCH   2   5
BRANCH   1  17
HETATM   17  C   UNL     1      42.177 -15.025   4.977  1.00  0.00     0.280 C 
BRANCH  17  18
HETATM   18  O   UNL     1      43.358 -15.391   4.266  1.00  0.00    -0.342 OA
BRANCH  18  19
HETATM   19  C   UNL     1      43.499 -16.744   4.066  1.00  0.00     0.075 A 
HETATM   20  C   UNL     1      43.359 -17.210   2.749  1.00  0.00    -0.028 A 
HETATM   21  C   UNL     1      43.523 -18.581   2.485  1.00  0.00     0.016 A 
HETATM   22  C   UNL     1      43.102 -16.262   1.612  1.00  0.00     0.051 C 
HETATM   23  C   UNL     1      43.784 -19.491   3.518  1.00  0.00    -0.061 A 
HETATM   24  C   UNL     1      43.996 -20.947   3.228  1.00  0.00     0.048 C 
HETATM   25  C   UNL     1      43.896 -19.014   4.826  1.00  0.00     0.009 A 
HETATM   26  C   UNL     1      43.745 -17.652   5.100  1.00  0.00     0.038 A 
ENDBRANCH  18  19
ENDBRANCH  17  18
ENDBRANCH   1  17
TORSDOF 5
ENDMDL
MODEL 4
REMARK VINA RESULT:      -8.2      6.829      9.827
REMARK  5 active torsions:
REMARK  status: ('A' for Active; 'I' for Inactive)
REMARK    1  A    between atoms: C_6  and  O_7 
REMARK    2  A    between atoms: O_7  and  C_8 
REMARK    3  A    between atoms: C_8  and  C_9 
REMARK       I    between atoms: C_9  and  N_10 
REMARK    4  A    between atoms: N_10  and  N_11 
REMARK    5  A    between atoms: C_12  and  C_13 
ROOT
HETATM    1  C   UNL     1      40.618 -14.457   1.089  1.00  0.00     0.261 C 
HETATM    2  N   UNL     1      41.613 -14.378   2.052  1.00  0.00    -0.246 N 
HETATM    3  O   UNL     1      39.966 -15.466   0.821  1.00  0.00    -0.269 OA
HETATM    4  H   UNL     1      42.119 -13.507   2.182  1.00  0.00     0.192 HD
ENDROOT
BRANCH   2   5
HETATM    5  N   UNL     1      41.921 -15.488   2.782  1.00  0.00    -0.184 NA
HETATM    6  C   UNL     1      43.154 -15.629   3.142  1.00  0.00     0.152 C 
BRANCH   6   7
HETATM    7  C   UNL     1      43.520 -16.789   3.932  1.00  0.00     0.011 A 
HETATM    8  C   UNL     1      43.550 -18.163   3.524  1.00  0.00     0.004 A 
HETATM    9  C   UNL     1      43.977 -18.913   4.623  1.00  0.00     0.043 A 
HETATM   10  C   UNL     1      43.268 -18.845   2.322  1.00  0.00     0.014 A 
HETATM   11  C   UNL     1      44.133 -20.305   4.581  1.00  0.00     0.030 A 
HETATM   12  N   UNL     1      44.192 -18.034   5.659  1.00  0.00    -0.364 N 
HETATM   13  C   UNL     1      43.848 -20.953   3.378  1.00  0.00     0.002 A 
HETATM   14  C   UNL     1      43.422 -20.236   2.262  1.00  0.00     0.001 A 
HETATM   15  H   UNL     1      44.509 -18.298   6.582  1.00  0.00     0.165 HD
HETATM   16  C   UNL     1      43.924 -16.758   5.255  1.00  0.00     0.102 A 
ENDBRANCH   6   7
ENDBRANCH   2   5
BRANCH   1  17
HETATM   17  C   UNL     1      40.301 -13.119   0.430  1.00  0.00     0.280 C 
BRANCH  17  18
HETATM   18  O   UNL     1      40.270 -13.210  -0.993  1.00  0.00    -0.342 OA
BRANCH  18  19
HETATM   19  C   UNL     1      39.130 -12.697  -1.567  1.00  0.00     0.075 A 
HETATM   20  C   UNL     1      38.365 -13.573  -2.353  1.00  0.00    -0.028 A 
HETATM   21  C   UNL     1      37.175 -13.107  -2.939  1.00  0.00     0.016 A 
HETATM   22  C   UNL     1      38.761 -15.012  -2.523  1.00  0.00     0.051 C 
HETATM   23  C   UNL     1      36.764 -11.777  -2.784  1.00  0.00    -0.061 A 
HETATM   24  C   UNL     1      35.476 -11.293  -3.379  1.00  0.00     0.048 C 
HETATM   25  C   UNL     1      37.551 -10.911  -2.020  1.00  0.00     0.009 A 
HETATM   26  C   UNL     1      38.730 -11.365  -1.423  1.00  0.00     0.038 A 
ENDBRANCH  18  19
ENDBRANCH  17  18
ENDBRANCH   1  17
TORSDOF 5
ENDMDL
MODEL 5
REMARK VINA RESULT:      -8.0      6.876      8.612
REMARK  5 active torsions:
REMARK  status: ('A' for Active; 'I' for Inactive)
REMARK    1  A    between atoms: C_6  and  O_7 
REMARK    2  A    between atoms: O_7  and  C_8 
REMARK    3  A    between atoms: C_8  and  C_9 
REMARK       I    between atoms: C_9  and  N_10 
REMARK    4  A    between atoms: N_10  and  N_11 
REMARK    5  A    between atoms: C_12  and  C_13 
ROOT
HETATM    1  C   UNL     1      40.437 -14.791   0.205  1.00  0.00     0.261 C 
HETATM    2  N   UNL     1      41.609 -14.454   0.867  1.00  0.00    -0.246 N 
HETATM    3  O   UNL     1      39.672 -15.699   0.532  1.00  0.00    -0.269 OA
HETATM    4  H   UNL     1      42.193 -13.706   0.505  1.00  0.00     0.192 HD
ENDROOT
BRANCH   2   5
HETATM    5  N   UNL     1      41.975 -15.162   1.974  1.00  0.00    -0.184 NA
HETATM    6  C   UNL     1      42.840 -16.107   1.805  1.00  0.00     0.152 C 
BRANCH   6   7
HETATM    7  C   UNL     1      43.266 -16.873   2.960  1.00  0.00     0.011 A 
HETATM    8  C   UNL     1      43.454 -18.291   3.060  1.00  0.00     0.004 A 
HETATM    9  C   UNL     1      43.882 -18.563   4.362  1.00  0.00     0.043 A 
HETATM   10  C   UNL     1      43.314 -19.373   2.166  1.00  0.00     0.014 A 
HETATM   11  C   UNL     1      44.174 -19.856   4.814  1.00  0.00     0.030 A 
HETATM   12  N   UNL     1      43.946 -17.362   5.030  1.00  0.00    -0.364 N 
HETATM   13  C   UNL     1      44.028 -20.908   3.907  1.00  0.00     0.002 A 
HETATM   14  C   UNL     1      43.605 -20.673   2.601  1.00  0.00     0.001 A 
HETATM   15  H   UNL     1      44.229 -17.254   5.994  1.00  0.00     0.165 HD
HETATM   16  C   UNL     1      43.582 -16.343   4.198  1.00  0.00     0.102 A 
ENDBRANCH   6   7
ENDBRANCH   2   5
BRANCH   1  17
HETATM   17  C   UNL     1      40.093 -13.849  -0.943  1.00  0.00     0.280 C 
BRANCH  17  18
HETATM   18  O   UNL     1      39.543 -12.616  -0.485  1.00  0.00    -0.342 OA
BRANCH  18  19
HETATM   19  C   UNL     1      40.310 -11.513  -0.778  1.00  0.00     0.075 A 
HETATM   20  C   UNL     1      40.839 -10.801   0.311  1.00  0.00    -0.028 A 
HETATM   21  C   UNL     1      41.655  -9.681   0.067  1.00  0.00     0.016 A 
HETATM   22  C   UNL     1      40.604 -11.251   1.724  1.00  0.00     0.051 C 
HETATM   23  C   UNL     1      41.913  -9.245  -1.238  1.00  0.00    -0.061 A 
HETATM   24  C   UNL     1      42.814  -8.073  -1.497  1.00  0.00     0.048 C 
HETATM   25  C   UNL     1      41.358  -9.950  -2.309  1.00  0.00     0.009 A 
HETATM   26  C   UNL     1      40.555 -11.070  -2.081  1.00  0.00     0.038 A 
ENDBRANCH  18  19
ENDBRANCH  17  18
ENDBRANCH   1  17
TORSDOF 5
ENDMDL
MODEL 6
REMARK VINA RESULT:      -8.0      1.988     10.099
REMARK  5 active torsions:
REMARK  status: ('A' for Active; 'I' for Inactive)
REMARK    1  A    between atoms: C_6  and  O_7 
REMARK    2  A    between atoms: O_7  and  C_8 
REMARK    3  A    between atoms: C_8  and  C_9 
REMARK       I    between atoms: C_9  and  N_10 
REMARK    4  A    between atoms: N_10  and  N_11 
REMARK    5  A    between atoms: C_12  and  C_13 
ROOT
HETATM    1  C   UNL     1      42.898 -13.635   6.159  1.00  0.00     0.261 C 
HETATM    2  N   UNL     1      43.852 -12.941   6.888  1.00  0.00    -0.246 N 
HETATM    3  O   UNL     1      41.740 -13.263   5.969  1.00  0.00    -0.269 OA
HETATM    4  H   UNL     1      44.776 -13.342   7.017  1.00  0.00     0.192 HD
ENDROOT
BRANCH   2   5
HETATM    5  N   UNL     1      43.519 -11.745   7.453  1.00  0.00    -0.184 NA
HETATM    6  C   UNL     1      44.375 -11.222   8.267  1.00  0.00     0.152 C 
BRANCH   6   7
HETATM    7  C   UNL     1      44.064  -9.944   8.877  1.00  0.00     0.011 A 
HETATM    8  C   UNL     1      43.627  -9.687  10.219  1.00  0.00     0.004 A 
HETATM    9  C   UNL     1      43.468  -8.305  10.347  1.00  0.00     0.043 A 
HETATM   10  C   UNL     1      43.362 -10.495  11.344  1.00  0.00     0.014 A 
HETATM   11  C   UNL     1      43.057  -7.693  11.538  1.00  0.00     0.030 A 
HETATM   12  N   UNL     1      43.788  -7.743   9.133  1.00  0.00    -0.364 N 
HETATM   13  C   UNL     1      42.803  -8.517  12.636  1.00  0.00     0.002 A 
HETATM   14  C   UNL     1      42.953  -9.899  12.544  1.00  0.00     0.001 A 
HETATM   15  H   UNL     1      43.765  -6.753   8.933  1.00  0.00     0.165 HD
HETATM   16  C   UNL     1      44.150  -8.716   8.246  1.00  0.00     0.102 A 
ENDBRANCH   6   7
ENDBRANCH   2   5
BRANCH   1  17
HETATM   17  C   UNL     1      43.438 -14.895   5.493  1.00  0.00     0.280 C 
BRANCH  17  18
HETATM   18  O   UNL     1      42.707 -15.241   4.318  1.00  0.00    -0.342 OA
BRANCH  18  19
HETATM   19  C   UNL     1      42.992 -16.493   3.824  1.00  0.00     0.075 A 
HETATM   20  C   UNL     1      42.326 -16.878   2.650  1.00  0.00    -0.028 A 
HETATM   21  C   UNL     1      42.602 -18.137   2.086  1.00  0.00     0.016 A 
HETATM   22  C   UNL     1      41.378 -15.946   1.951  1.00  0.00     0.051 C 
HETATM   23  C   UNL     1      43.496 -19.023   2.699  1.00  0.00    -0.061 A 
HETATM   24  C   UNL     1      43.817 -20.350   2.076  1.00  0.00     0.048 C 
HETATM   25  C   UNL     1      44.131 -18.634   3.882  1.00  0.00     0.009 A 
HETATM   26  C   UNL     1      43.873 -17.382   4.446  1.00  0.00     0.038 A 
ENDBRANCH  18  19
ENDBRANCH  17  18
ENDBRANCH   1  17
TORSDOF 5
ENDMDL
MODEL 7
REMARK VINA RESULT:      -7.8      6.788      8.533
REMARK  5 active torsions:
REMARK  status: ('A' for Active; 'I' for Inactive)
REMARK    1  A    between atoms: C_6  and  O_7 
REMARK    2  A    between atoms: O_7  and  C_8 
REMARK    3  A    between atoms: C_8  and  C_9 
REMARK       I    between atoms: C_9  and  N_10 
REMARK    4  A    between atoms: N_10  and  N_11 
REMARK    5  A    between atoms: C_12  and  C_13 
ROOT
HETATM    1  C   UNL     1      40.629 -14.530   0.298  1.00  0.00     0.261 C 
HETATM    2  N   UNL     1      41.853 -14.321   0.917  1.00  0.00    -0.246 N 
HETATM    3  O   UNL     1      39.779 -15.343   0.660  1.00  0.00    -0.269 OA
HETATM    4  H   UNL     1      42.505 -13.647   0.527  1.00  0.00     0.192 HD
ENDROOT
BRANCH   2   5
HETATM    5  N   UNL     1      42.174 -15.054   2.021  1.00  0.00    -0.184 NA
HETATM    6  C   UNL     1      42.956 -16.067   1.845  1.00  0.00     0.152 C 
BRANCH   6   7
HETATM    7  C   UNL     1      43.333 -16.865   2.996  1.00  0.00     0.011 A 
HETATM    8  C   UNL     1      43.489 -18.287   3.073  1.00  0.00     0.004 A 
HETATM    9  C   UNL     1      43.873 -18.593   4.382  1.00  0.00     0.043 A 
HETATM   10  C   UNL     1      43.353 -19.349   2.154  1.00  0.00     0.014 A 
HETATM   11  C   UNL     1      44.125 -19.901   4.816  1.00  0.00     0.030 A 
HETATM   12  N   UNL     1      43.942 -17.407   5.074  1.00  0.00    -0.364 N 
HETATM   13  C   UNL     1      43.983 -20.931   3.884  1.00  0.00     0.002 A 
HETATM   14  C   UNL     1      43.604 -20.663   2.572  1.00  0.00     0.001 A 
HETATM   15  H   UNL     1      44.199 -17.323   6.048  1.00  0.00     0.165 HD
HETATM   16  C   UNL     1      43.624 -16.365   4.253  1.00  0.00     0.102 A 
ENDBRANCH   6   7
ENDBRANCH   2   5
BRANCH   1  17
HETATM   17  C   UNL     1      40.355 -13.567  -0.851  1.00  0.00     0.280 C 
BRANCH  17  18
HETATM   18  O   UNL     1      40.408 -12.203  -0.438  1.00  0.00    -0.342 OA
BRANCH  18  19
HETATM   19  C   UNL     1      39.175 -11.627  -0.237  1.00  0.00     0.075 A 
HETATM   20  C   UNL     1      38.849 -11.269   1.082  1.00  0.00    -0.028 A 
HETATM   21  C   UNL     1      37.613 -10.650   1.339  1.00  0.00     0.016 A 
HETATM   22  C   UNL     1      39.822 -11.477   2.207  1.00  0.00     0.051 C 
HETATM   23  C   UNL     1      36.691 -10.421   0.310  1.00  0.00    -0.061 A 
HETATM   24  C   UNL     1      35.390  -9.727   0.581  1.00  0.00     0.048 C 
HETATM   25  C   UNL     1      37.021 -10.806  -0.992  1.00  0.00     0.009 A 
HETATM   26  C   UNL     1      38.250 -11.413  -1.262  1.00  0.00     0.038 A 
ENDBRANCH  18  19
ENDBRANCH  17  18
ENDBRANCH   1  17
TORSDOF 5
ENDMDL
MODEL 8
REMARK VINA RESULT:      -7.8      6.469     10.006
REMARK  5 active torsions:
REMARK  status: ('A' for Active; 'I' for Inactive)
REMARK    1  A    between atoms: C_6  and  O_7 
REMARK    2  A    between atoms: O_7  and  C_8 
REMARK    3  A    between atoms: C_8  and  C_9 
REMARK       I    between atoms: C_9  and  N_10 
REMARK    4  A    between atoms: N_10  and  N_11 
REMARK    5  A    between atoms: C_12  and  C_13 
ROOT
HETATM    1  C   UNL     1      41.069 -14.096   3.030  1.00  0.00     0.261 C 
HETATM    2  N   UNL     1      40.533 -14.657   1.881  1.00  0.00    -0.246 N 
HETATM    3  O   UNL     1      41.113 -12.891   3.279  1.00  0.00    -0.269 OA
HETATM    4  H   UNL     1      40.568 -15.664   1.749  1.00  0.00     0.192 HD
ENDROOT
BRANCH   2   5
HETATM    5  N   UNL     1      39.999 -13.841   0.928  1.00  0.00    -0.184 NA
HETATM    6  C   UNL     1      40.085 -14.237  -0.299  1.00  0.00     0.152 C 
BRANCH   6   7
HETATM    7  C   UNL     1      39.517 -13.404  -1.341  1.00  0.00     0.011 A 
HETATM    8  C   UNL     1      39.962 -12.115  -1.783  1.00  0.00     0.004 A 
HETATM    9  C   UNL     1      39.111 -11.713  -2.816  1.00  0.00     0.043 A 
HETATM   10  C   UNL     1      41.016 -11.252  -1.415  1.00  0.00     0.014 A 
HETATM   11  C   UNL     1      39.259 -10.496  -3.494  1.00  0.00     0.030 A 
HETATM   12  N   UNL     1      38.183 -12.712  -2.992  1.00  0.00    -0.364 N 
HETATM   13  C   UNL     1      40.310  -9.663  -3.109  1.00  0.00     0.002 A 
HETATM   14  C   UNL     1      41.179 -10.032  -2.085  1.00  0.00     0.001 A 
HETATM   15  H   UNL     1      37.440 -12.694  -3.676  1.00  0.00     0.165 HD
HETATM   16  C   UNL     1      38.419 -13.732  -2.115  1.00  0.00     0.102 A 
ENDBRANCH   6   7
ENDBRANCH   2   5
BRANCH   1  17
HETATM   17  C   UNL     1      41.526 -15.127   4.057  1.00  0.00     0.280 C 
BRANCH  17  18
HETATM   18  O   UNL     1      42.912 -15.437   3.932  1.00  0.00    -0.342 OA
BRANCH  18  19
HETATM   19  C   UNL     1      43.171 -16.754   3.633  1.00  0.00     0.075 A 
HETATM   20  C   UNL     1      43.905 -17.487   4.580  1.00  0.00    -0.028 A 
HETATM   21  C   UNL     1      44.173 -18.846   4.338  1.00  0.00     0.016 A 
HETATM   22  C   UNL     1      44.351 -16.863   5.872  1.00  0.00     0.051 C 
HETATM   23  C   UNL     1      43.755 -19.466   3.154  1.00  0.00    -0.061 A 
HETATM   24  C   UNL     1      44.009 -20.925   2.915  1.00  0.00     0.048 C 
HETATM   25  C   UNL     1      43.048 -18.716   2.211  1.00  0.00     0.009 A 
HETATM   26  C   UNL     1      42.766 -17.367   2.444  1.00  0.00     0.038 A 
ENDBRANCH  18  19
ENDBRANCH  17  18
ENDBRANCH   1  17
TORSDOF 5
ENDMDL
MODEL 9
REMARK VINA RESULT:      -7.7      6.772      9.809
REMARK  5 active torsions:
REMARK  status: ('A' for Active; 'I' for Inactive)
REMARK    1  A    between atoms: C_6  and  O_7 
REMARK    2  A    between atoms: O_7  and  C_8 
REMARK    3  A    between atoms: C_8  and  C_9 
REMARK       I    between atoms: C_9  and  N_10 
REMARK    4  A    between atoms: N_10  and  N_11 
REMARK    5  A    between atoms: C_12  and  C_13 
ROOT
HETATM    1  C   UNL     1      40.858 -13.470   0.655  1.00  0.00     0.261 C 
HETATM    2  N   UNL     1      41.230 -14.800   0.521  1.00  0.00    -0.246 N 
HETATM    3  O   UNL     1      40.812 -12.848   1.716  1.00  0.00    -0.269 OA
HETATM    4  H   UNL     1      41.209 -15.238  -0.395  1.00  0.00     0.192 HD
ENDROOT
BRANCH   2   5
HETATM    5  N   UNL     1      41.583 -15.507   1.633  1.00  0.00    -0.184 NA
HETATM    6  C   UNL     1      42.780 -15.993   1.662  1.00  0.00     0.152 C 
BRANCH   6   7
HETATM    7  C   UNL     1      43.199 -16.739   2.833  1.00  0.00     0.011 A 
HETATM    8  C   UNL     1      43.402 -18.153   2.954  1.00  0.00     0.004 A 
HETATM    9  C   UNL     1      43.816 -18.403   4.265  1.00  0.00     0.043 A 
HETATM   10  C   UNL     1      43.287 -19.249   2.072  1.00  0.00     0.014 A 
HETATM   11  C   UNL     1      44.116 -19.687   4.737  1.00  0.00     0.030 A 
HETATM   12  N   UNL     1      43.857 -17.193   4.918  1.00  0.00    -0.364 N 
HETATM   13  C   UNL     1      43.994 -20.752   3.843  1.00  0.00     0.002 A 
HETATM   14  C   UNL     1      43.586 -20.539   2.528  1.00  0.00     0.001 A 
HETATM   15  H   UNL     1      44.125 -17.069   5.884  1.00  0.00     0.165 HD
HETATM   16  C   UNL     1      43.493 -16.189   4.067  1.00  0.00     0.102 A 
ENDBRANCH   6   7
ENDBRANCH   2   5
BRANCH   1  17
HETATM   17  C   UNL     1      40.599 -12.773  -0.676  1.00  0.00     0.280 C 
BRANCH  17  18
HETATM   18  O   UNL     1      39.641 -11.723  -0.560  1.00  0.00    -0.342 OA
BRANCH  18  19
HETATM   19  C   UNL     1      38.535 -11.876  -1.363  1.00  0.00     0.075 A 
HETATM   20  C   UNL     1      37.746 -10.736  -1.580  1.00  0.00    -0.028 A 
HETATM   21  C   UNL     1      36.620 -10.830  -2.418  1.00  0.00     0.016 A 
HETATM   22  C   UNL     1      38.119  -9.407  -0.989  1.00  0.00     0.051 C 
HETATM   23  C   UNL     1      36.254 -12.049  -3.004  1.00  0.00    -0.061 A 
HETATM   24  C   UNL     1      35.075 -12.139  -3.926  1.00  0.00     0.048 C 
HETATM   25  C   UNL     1      37.036 -13.180  -2.756  1.00  0.00     0.009 A 
HETATM   26  C   UNL     1      38.163 -13.097  -1.935  1.00  0.00     0.038 A 
ENDBRANCH  18  19
ENDBRANCH  17  18
ENDBRANCH   1  17
TORSDOF 5
ENDMDL
MODEL 10
REMARK VINA RESULT:      -7.6      2.313      9.239
REMARK  5 active torsions:
REMARK  status: ('A' for Active; 'I' for Inactive)
REMARK    1  A    between atoms: C_6  and  O_7 
REMARK    2  A    between atoms: O_7  and  C_8 
REMARK    3  A    between atoms: C_8  and  C_9 
REMARK       I    between atoms: C_9  and  N_10 
REMARK    4  A    between atoms: N_10  and  N_11 
REMARK    5  A    between atoms: C_12  and  C_13 
ROOT
HETATM    1  C   UNL     1      43.854 -11.792   4.027  1.00  0.00     0.261 C 
HETATM    2  N   UNL     1      42.998 -11.639   5.108  1.00  0.00    -0.246 N 
HETATM    3  O   UNL     1      44.972 -11.288   3.929  1.00  0.00    -0.269 OA
HETATM    4  H   UNL     1      42.078 -12.070   5.087  1.00  0.00     0.192 HD
ENDROOT
BRANCH   2   5
HETATM    5  N   UNL     1      43.394 -10.879   6.169  1.00  0.00    -0.184 NA
HETATM    6  C   UNL     1      43.701 -11.505   7.256  1.00  0.00     0.152 C 
BRANCH   6   7
HETATM    7  C   UNL     1      44.141 -10.733   8.403  1.00  0.00     0.011 A 
HETATM    8  C   UNL     1      43.354  -9.895   9.260  1.00  0.00     0.004 A 
HETATM    9  C   UNL     1      44.212  -9.372  10.231  1.00  0.00     0.043 A 
HETATM   10  C   UNL     1      41.990  -9.539   9.314  1.00  0.00     0.014 A 
HETATM   11  C   UNL     1      43.777  -8.512  11.247  1.00  0.00     0.030 A 
HETATM   12  N   UNL     1      45.470  -9.864   9.973  1.00  0.00    -0.364 N 
HETATM   13  C   UNL     1      42.422  -8.177  11.277  1.00  0.00     0.002 A 
HETATM   14  C   UNL     1      41.539  -8.682  10.326  1.00  0.00     0.001 A 
HETATM   15  H   UNL     1      46.294  -9.654  10.518  1.00  0.00     0.165 HD
HETATM   16  C   UNL     1      45.438 -10.684   8.881  1.00  0.00     0.102 A 
ENDBRANCH   6   7
ENDBRANCH   2   5
BRANCH   1  17
HETATM   17  C   UNL     1      43.331 -12.756   2.968  1.00  0.00     0.280 C 
BRANCH  17  18
HETATM   18  O   UNL     1      42.422 -13.713   3.509  1.00  0.00    -0.342 OA
BRANCH  18  19
HETATM   19  C   UNL     1      42.792 -15.021   3.304  1.00  0.00     0.075 A 
HETATM   20  C   UNL     1      43.151 -15.765   4.439  1.00  0.00    -0.028 A 
HETATM   21  C   UNL     1      43.510 -17.116   4.289  1.00  0.00     0.016 A 
HETATM   22  C   UNL     1      43.095 -15.162   5.814  1.00  0.00     0.051 C 
HETATM   23  C   UNL     1      43.553 -17.717   3.025  1.00  0.00    -0.061 A 
HETATM   24  C   UNL     1      43.900 -19.169   2.872  1.00  0.00     0.048 C 
HETATM   25  C   UNL     1      43.218 -16.956   1.903  1.00  0.00     0.009 A 
HETATM   26  C   UNL     1      42.850 -15.615   2.039  1.00  0.00     0.038 A 
ENDBRANCH  18  19
ENDBRANCH  17  18
ENDBRANCH   1  17
TORSDOF 5
ENDMDL
