MODEL 1
REMARK VINA RESULT:      -7.7      0.000      0.000
REMARK  3 active torsions:
REMARK  status: ('A' for Active; 'I' for Inactive)
REMARK    1  A    between atoms: C_12  and  C_13 
REMARK    2  A    between atoms: C_13  and  N_14 
REMARK    3  A    between atoms: C_18  and  C_19 
ROOT
HETATM    1  N   UNL     1      42.713 -11.169   6.497  1.00  0.00    -0.067 N 
HETATM    2  H   UNL     1      43.211 -10.861   5.653  1.00  0.00     0.280 HD
HETATM    3  C   UNL     1      42.206  -9.926   7.198  1.00  0.00     0.236 C 
HETATM    4  C   UNL     1      43.369  -9.077   7.691  1.00  0.00     0.040 C 
HETATM    5  C   UNL     1      44.344  -9.856   8.575  1.00  0.00     0.062 C 
HETATM    6  C   UNL     1      44.818 -11.112   7.843  1.00  0.00     0.040 C 
HETATM    7  C   UNL     1      43.671 -11.976   7.345  1.00  0.00     0.236 C 
ENDROOT
BRANCH   1   8
HETATM    8  C   UNL     1      41.576 -12.064   6.030  1.00  0.00     0.273 C 
BRANCH   8   9
HETATM    9  C   UNL     1      42.022 -13.398   5.498  1.00  0.00    -0.028 A 
HETATM   10  C   UNL     1      41.965 -14.537   6.313  1.00  0.00     0.048 A 
HETATM   11  C   UNL     1      42.346 -15.788   5.820  1.00  0.00     0.103 A 
HETATM   12  C   UNL     1      42.775 -15.928   4.498  1.00  0.00     0.119 A 
HETATM   13  O   UNL     1      42.149 -16.845   6.665  1.00  0.00    -0.348 OA
HETATM   14  O   UNL     1      43.026 -17.156   3.950  1.00  0.00    -0.347 OA
HETATM   15  C   UNL     1      42.823 -14.796   3.677  1.00  0.00     0.047 A 
HETATM   16  C   UNL     1      44.129 -17.818   4.570  1.00  0.00     0.178 C 
HETATM   17  C   UNL     1      43.704 -18.545   5.835  1.00  0.00     0.053 C 
HETATM   18  C   UNL     1      43.355 -17.563   6.941  1.00  0.00     0.178 C 
HETATM   19 BR   UNL     1      43.375 -14.909   1.865  1.00  0.00    -0.048 Br
HETATM   20  C   UNL     1      42.459 -13.537   4.173  1.00  0.00     0.031 A 
ENDBRANCH   8   9
ENDBRANCH   1   8
BRANCH   5  21
HETATM   21  C   UNL     1      43.755 -10.165   9.914  1.00  0.00     0.151 A 
HETATM   22  N   UNL     1      44.176 -11.181  10.667  1.00  0.00    -0.158 NA
HETATM   23  N   UNL     1      43.398 -11.063  11.755  1.00  0.00    -0.270 N 
HETATM   24  H   UNL     1      43.499 -11.721  12.522  1.00  0.00     0.190 HD
HETATM   25  C   UNL     1      42.551 -10.005  11.629  1.00  0.00     0.227 A 
HETATM   26  N   UNL     1      42.753  -9.414  10.472  1.00  0.00    -0.225 NA
ENDBRANCH   5  21
TORSDOF 3
ENDMDL
MODEL 2
REMARK VINA RESULT:      -7.6      5.443      6.972
REMARK  3 active torsions:
REMARK  status: ('A' for Active; 'I' for Inactive)
REMARK    1  A    between atoms: C_12  and  C_13 
REMARK    2  A    between atoms: C_13  and  N_14 
REMARK    3  A    between atoms: C_18  and  C_19 
ROOT
HETATM    1  N   UNL     1      41.218 -13.999   2.130  1.00  0.00    -0.067 N 
HETATM    2  H   UNL     1      40.847 -14.176   3.071  1.00  0.00     0.280 HD
HETATM    3  C   UNL     1      42.221 -12.870   2.247  1.00  0.00     0.236 C 
HETATM    4  C   UNL     1      41.531 -11.581   2.670  1.00  0.00     0.040 C 
HETATM    5  C   UNL     1      40.369 -11.199   1.752  1.00  0.00     0.062 C 
HETATM    6  C   UNL     1      39.388 -12.367   1.642  1.00  0.00     0.040 C 
HETATM    7  C   UNL     1      40.058 -13.664   1.219  1.00  0.00     0.236 C 
ENDROOT
BRANCH   1   8
HETATM    8  C   UNL     1      41.867 -15.292   1.667  1.00  0.00     0.273 C 
BRANCH   8   9
HETATM    9  C   UNL     1      42.355 -16.171   2.785  1.00  0.00    -0.028 A 
HETATM   10  C   UNL     1      43.103 -17.323   2.502  1.00  0.00     0.048 A 
HETATM   11  C   UNL     1      43.590 -18.130   3.533  1.00  0.00     0.103 A 
HETATM   12  C   UNL     1      43.353 -17.794   4.868  1.00  0.00     0.119 A 
HETATM   13  O   UNL     1      44.395 -19.166   3.147  1.00  0.00    -0.348 OA
HETATM   14  O   UNL     1      43.928 -18.488   5.897  1.00  0.00    -0.347 OA
HETATM   15  C   UNL     1      42.617 -16.639   5.156  1.00  0.00     0.047 A 
HETATM   16  C   UNL     1      43.473 -19.840   5.968  1.00  0.00     0.178 C 
HETATM   17  C   UNL     1      44.247 -20.740   5.019  1.00  0.00     0.053 C 
HETATM   18  C   UNL     1      43.898 -20.438   3.570  1.00  0.00     0.178 C 
HETATM   19 BR   UNL     1      42.273 -16.105   6.945  1.00  0.00    -0.048 Br
HETATM   20  C   UNL     1      42.112 -15.837   4.125  1.00  0.00     0.031 A 
ENDBRANCH   8   9
ENDBRANCH   1   8
BRANCH   5  21
HETATM   21  C   UNL     1      40.847 -10.728   0.415  1.00  0.00     0.151 A 
HETATM   22  N   UNL     1      41.910  -9.938   0.269  1.00  0.00    -0.158 NA
HETATM   23  N   UNL     1      41.970  -9.798  -1.066  1.00  0.00    -0.270 N 
HETATM   24  H   UNL     1      42.704  -9.231  -1.480  1.00  0.00     0.190 HD
HETATM   25  C   UNL     1      40.967 -10.490  -1.669  1.00  0.00     0.227 A 
HETATM   26  N   UNL     1      40.236 -11.093  -0.757  1.00  0.00    -0.225 NA
ENDBRANCH   5  21
TORSDOF 3
ENDMDL
MODEL 3
REMARK VINA RESULT:      -7.6      5.780      8.815
REMARK  3 active torsions:
REMARK  status: ('A' for Active; 'I' for Inactive)
REMARK    1  A    between atoms: C_12  and  C_13 
REMARK    2  A    between atoms: C_13  and  N_14 
REMARK    3  A    between atoms: C_18  and  C_19 
ROOT
HETATM    1  N   UNL     1      40.837 -13.373   0.015  1.00  0.00    -0.067 N 
HETATM    2  H   UNL     1      41.742 -13.847  -0.092  1.00  0.00     0.280 HD
HETATM    3  C   UNL     1      39.805 -14.204  -0.718  1.00  0.00     0.236 C 
HETATM    4  C   UNL     1      40.092 -14.218  -2.213  1.00  0.00     0.040 C 
HETATM    5  C   UNL     1      40.203 -12.814  -2.811  1.00  0.00     0.062 C 
HETATM    6  C   UNL     1      41.237 -11.999  -2.034  1.00  0.00     0.040 C 
HETATM    7  C   UNL     1      40.968 -11.972  -0.538  1.00  0.00     0.236 C 
ENDROOT
BRANCH   1   8
HETATM    8  C   UNL     1      40.556 -13.302   1.507  1.00  0.00     0.273 C 
BRANCH   8   9
HETATM    9  C   UNL     1      41.431 -14.195   2.342  1.00  0.00    -0.028 A 
HETATM   10  C   UNL     1      42.003 -15.346   1.781  1.00  0.00     0.048 A 
HETATM   11  C   UNL     1      42.844 -16.167   2.537  1.00  0.00     0.103 A 
HETATM   12  C   UNL     1      43.143 -15.845   3.863  1.00  0.00     0.119 A 
HETATM   13  O   UNL     1      43.431 -17.200   1.861  1.00  0.00    -0.348 OA
HETATM   14  O   UNL     1      44.065 -16.554   4.584  1.00  0.00    -0.347 OA
HETATM   15  C   UNL     1      42.584 -14.692   4.424  1.00  0.00     0.047 A 
HETATM   16  C   UNL     1      43.662 -17.905   4.812  1.00  0.00     0.178 C 
HETATM   17  C   UNL     1      44.004 -18.796   3.629  1.00  0.00     0.053 C 
HETATM   18  C   UNL     1      43.126 -18.476   2.430  1.00  0.00     0.178 C 
HETATM   19 BR   UNL     1      42.960 -14.178   6.213  1.00  0.00    -0.048 Br
HETATM   20  C   UNL     1      41.726 -13.876   3.675  1.00  0.00     0.031 A 
ENDBRANCH   8   9
ENDBRANCH   1   8
BRANCH   5  21
HETATM   21  C   UNL     1      38.874 -12.131  -2.879  1.00  0.00     0.151 A 
HETATM   22  N   UNL     1      37.721 -12.798  -2.850  1.00  0.00    -0.158 NA
HETATM   23  N   UNL     1      36.822 -11.802  -2.913  1.00  0.00    -0.270 N 
HETATM   24  H   UNL     1      35.829 -12.017  -2.907  1.00  0.00     0.190 HD
HETATM   25  C   UNL     1      37.445 -10.594  -2.977  1.00  0.00     0.227 A 
HETATM   26  N   UNL     1      38.748 -10.768  -2.957  1.00  0.00    -0.225 NA
ENDBRANCH   5  21
TORSDOF 3
ENDMDL
MODEL 4
REMARK VINA RESULT:      -7.6      3.756      5.484
REMARK  3 active torsions:
REMARK  status: ('A' for Active; 'I' for Inactive)
REMARK    1  A    between atoms: C_12  and  C_13 
REMARK    2  A    between atoms: C_13  and  N_14 
REMARK    3  A    between atoms: C_18  and  C_19 
ROOT
HETATM    1  N   UNL     1      39.814 -14.013   1.537  1.00  0.00    -0.067 N 
HETATM    2  H   UNL     1      39.120 -13.789   0.814  1.00  0.00     0.280 HD
HETATM    3  C   UNL     1      39.415 -13.264   2.791  1.00  0.00     0.236 C 
HETATM    4  C   UNL     1      39.515 -11.761   2.574  1.00  0.00     0.040 C 
HETATM    5  C   UNL     1      40.894 -11.322   2.079  1.00  0.00     0.062 C 
HETATM    6  C   UNL     1      41.272 -12.112   0.825  1.00  0.00     0.040 C 
HETATM    7  C   UNL     1      41.180 -13.616   1.022  1.00  0.00     0.236 C 
ENDROOT
BRANCH   1   8
HETATM    8  C   UNL     1      39.767 -15.519   1.733  1.00  0.00     0.273 C 
BRANCH   8   9
HETATM    9  C   UNL     1      40.777 -16.043   2.718  1.00  0.00    -0.028 A 
HETATM   10  C   UNL     1      41.811 -16.886   2.286  1.00  0.00     0.048 A 
HETATM   11  C   UNL     1      42.774 -17.353   3.185  1.00  0.00     0.103 A 
HETATM   12  C   UNL     1      42.732 -16.974   4.528  1.00  0.00     0.119 A 
HETATM   13  O   UNL     1      43.796 -18.078   2.637  1.00  0.00    -0.348 OA
HETATM   14  O   UNL     1      43.732 -17.305   5.401  1.00  0.00    -0.347 OA
HETATM   15  C   UNL     1      41.708 -16.124   4.962  1.00  0.00     0.047 A 
HETATM   16  C   UNL     1      43.830 -18.714   5.613  1.00  0.00     0.178 C 
HETATM   17  C   UNL     1      44.650 -19.387   4.524  1.00  0.00     0.053 C 
HETATM   18  C   UNL     1      43.904 -19.389   3.199  1.00  0.00     0.178 C 
HETATM   19 BR   UNL     1      41.597 -15.549   6.768  1.00  0.00    -0.048 Br
HETATM   20  C   UNL     1      40.731 -15.668   4.068  1.00  0.00     0.031 A 
ENDBRANCH   8   9
ENDBRANCH   1   8
BRANCH   5  21
HETATM   21  C   UNL     1      41.931 -11.427   3.152  1.00  0.00     0.151 A 
HETATM   22  N   UNL     1      43.238 -11.402   2.893  1.00  0.00    -0.158 NA
HETATM   23  N   UNL     1      43.767 -11.503   4.124  1.00  0.00    -0.270 N 
HETATM   24  H   UNL     1      44.776 -11.508   4.240  1.00  0.00     0.190 HD
HETATM   25  C   UNL     1      42.787 -11.584   5.064  1.00  0.00     0.227 A 
HETATM   26  N   UNL     1      41.610 -11.538   4.480  1.00  0.00    -0.225 NA
ENDBRANCH   5  21
TORSDOF 3
ENDMDL
MODEL 5
REMARK VINA RESULT:      -7.6      3.691      5.314
REMARK  3 active torsions:
REMARK  status: ('A' for Active; 'I' for Inactive)
REMARK    1  A    between atoms: C_12  and  C_13 
REMARK    2  A    between atoms: C_13  and  N_14 
REMARK    3  A    between atoms: C_18  and  C_19 
ROOT
HETATM    1  N   UNL     1      39.839 -14.151   1.631  1.00  0.00    -0.067 N 
HETATM    2  H   UNL     1      39.148 -13.964   0.894  1.00  0.00     0.280 HD
HETATM    3  C   UNL     1      39.426 -13.350   2.848  1.00  0.00     0.236 C 
HETATM    4  C   UNL     1      39.517 -11.857   2.563  1.00  0.00     0.040 C 
HETATM    5  C   UNL     1      40.896 -11.430   2.058  1.00  0.00     0.062 C 
HETATM    6  C   UNL     1      41.288 -12.273   0.843  1.00  0.00     0.040 C 
HETATM    7  C   UNL     1      41.205 -13.767   1.108  1.00  0.00     0.236 C 
ENDROOT
BRANCH   1   8
HETATM    8  C   UNL     1      39.802 -15.647   1.894  1.00  0.00     0.273 C 
BRANCH   8   9
HETATM    9  C   UNL     1      40.798 -16.116   2.919  1.00  0.00    -0.028 A 
HETATM   10  C   UNL     1      40.660 -15.737   4.262  1.00  0.00     0.048 A 
HETATM   11  C   UNL     1      41.559 -16.192   5.229  1.00  0.00     0.103 A 
HETATM   12  C   UNL     1      42.605 -17.049   4.876  1.00  0.00     0.119 A 
HETATM   13  O   UNL     1      41.268 -15.849   6.520  1.00  0.00    -0.348 OA
HETATM   14  O   UNL     1      43.419 -17.616   5.819  1.00  0.00    -0.347 OA
HETATM   15  C   UNL     1      42.741 -17.439   3.540  1.00  0.00     0.047 A 
HETATM   16  C   UNL     1      44.204 -16.649   6.518  1.00  0.00     0.178 C 
HETATM   17  C   UNL     1      43.427 -16.023   7.665  1.00  0.00     0.053 C 
HETATM   18  C   UNL     1      42.323 -15.115   7.147  1.00  0.00     0.178 C 
HETATM   19 BR   UNL     1      44.124 -18.617   2.987  1.00  0.00    -0.048 Br
HETATM   20  C   UNL     1      41.852 -16.971   2.564  1.00  0.00     0.031 A 
ENDBRANCH   8   9
ENDBRANCH   1   8
BRANCH   5  21
HETATM   21  C   UNL     1      41.926 -11.480   3.141  1.00  0.00     0.151 A 
HETATM   22  N   UNL     1      43.235 -11.468   2.890  1.00  0.00    -0.158 NA
HETATM   23  N   UNL     1      43.756 -11.504   4.127  1.00  0.00    -0.270 N 
HETATM   24  H   UNL     1      44.765 -11.504   4.249  1.00  0.00     0.190 HD
HETATM   25  C   UNL     1      42.771 -11.536   5.065  1.00  0.00     0.227 A 
HETATM   26  N   UNL     1      41.597 -11.521   4.471  1.00  0.00    -0.225 NA
ENDBRANCH   5  21
TORSDOF 3
ENDMDL
MODEL 6
REMARK VINA RESULT:      -7.5      5.795      7.942
REMARK  3 active torsions:
REMARK  status: ('A' for Active; 'I' for Inactive)
REMARK    1  A    between atoms: C_12  and  C_13 
REMARK    2  A    between atoms: C_13  and  N_14 
REMARK    3  A    between atoms: C_18  and  C_19 
ROOT
HETATM    1  N   UNL     1      41.152 -15.677   3.886  1.00  0.00    -0.067 N 
HETATM    2  H   UNL     1      41.040 -14.681   4.107  1.00  0.00     0.280 HD
HETATM    3  C   UNL     1      40.835 -16.455   5.147  1.00  0.00     0.236 C 
HETATM    4  C   UNL     1      41.858 -16.155   6.233  1.00  0.00     0.040 C 
HETATM    5  C   UNL     1      43.298 -16.395   5.778  1.00  0.00     0.062 C 
HETATM    6  C   UNL     1      43.575 -15.611   4.495  1.00  0.00     0.040 C 
HETATM    7  C   UNL     1      42.565 -15.899   3.396  1.00  0.00     0.236 C 
ENDROOT
BRANCH   1   8
HETATM    8  C   UNL     1      40.175 -15.988   2.765  1.00  0.00     0.273 C 
BRANCH   8   9
HETATM    9  C   UNL     1      39.950 -14.847   1.811  1.00  0.00    -0.028 A 
HETATM   10  C   UNL     1      39.947 -15.074   0.427  1.00  0.00     0.048 A 
HETATM   11  C   UNL     1      39.708 -14.029  -0.469  1.00  0.00     0.103 A 
HETATM   12  C   UNL     1      39.451 -12.739   0.001  1.00  0.00     0.119 A 
HETATM   13  O   UNL     1      39.622 -14.383  -1.787  1.00  0.00    -0.348 OA
HETATM   14  O   UNL     1      39.083 -11.727  -0.843  1.00  0.00    -0.347 OA
HETATM   15  C   UNL     1      39.442 -12.508   1.381  1.00  0.00     0.047 A 
HETATM   16  C   UNL     1      40.115 -11.381  -1.767  1.00  0.00     0.178 C 
HETATM   17  C   UNL     1      40.111 -12.299  -2.978  1.00  0.00     0.053 C 
HETATM   18  C   UNL     1      40.574 -13.699  -2.605  1.00  0.00     0.178 C 
HETATM   19 BR   UNL     1      39.079 -10.787   2.096  1.00  0.00    -0.048 Br
HETATM   20  C   UNL     1      39.699 -13.550   2.282  1.00  0.00     0.031 A 
ENDBRANCH   8   9
ENDBRANCH   1   8
BRANCH   5  21
HETATM   21  C   UNL     1      43.600 -17.853   5.632  1.00  0.00     0.151 A 
HETATM   22  N   UNL     1      43.199 -18.762   6.519  1.00  0.00    -0.158 NA
HETATM   23  N   UNL     1      43.667 -19.901   5.981  1.00  0.00    -0.270 N 
HETATM   24  H   UNL     1      43.505 -20.785   6.453  1.00  0.00     0.190 HD
HETATM   25  C   UNL     1      44.320 -19.649   4.814  1.00  0.00     0.227 A 
HETATM   26  N   UNL     1      44.295 -18.358   4.564  1.00  0.00    -0.225 NA
ENDBRANCH   5  21
TORSDOF 3
ENDMDL
MODEL 7
REMARK VINA RESULT:      -7.5      5.485      7.721
REMARK  3 active torsions:
REMARK  status: ('A' for Active; 'I' for Inactive)
REMARK    1  A    between atoms: C_12  and  C_13 
REMARK    2  A    between atoms: C_13  and  N_14 
REMARK    3  A    between atoms: C_18  and  C_19 
ROOT
HETATM    1  N   UNL     1      40.455 -14.727   0.712  1.00  0.00    -0.067 N 
HETATM    2  H   UNL     1      41.382 -15.103   0.477  1.00  0.00     0.280 HD
HETATM    3  C   UNL     1      39.648 -14.689  -0.568  1.00  0.00     0.236 C 
HETATM    4  C   UNL     1      40.255 -13.704  -1.556  1.00  0.00     0.040 C 
HETATM    5  C   UNL     1      40.433 -12.303  -0.969  1.00  0.00     0.062 C 
HETATM    6  C   UNL     1      41.234 -12.383   0.331  1.00  0.00     0.040 C 
HETATM    7  C   UNL     1      40.642 -13.360   1.333  1.00  0.00     0.236 C 
ENDROOT
BRANCH   1   8
HETATM    8  C   UNL     1      39.851 -15.669   1.740  1.00  0.00     0.273 C 
BRANCH   8   9
HETATM    9  C   UNL     1      40.816 -16.126   2.799  1.00  0.00    -0.028 A 
HETATM   10  C   UNL     1      40.634 -15.739   4.134  1.00  0.00     0.048 A 
HETATM   11  C   UNL     1      41.505 -16.184   5.132  1.00  0.00     0.103 A 
HETATM   12  C   UNL     1      42.565 -17.038   4.818  1.00  0.00     0.119 A 
HETATM   13  O   UNL     1      41.173 -15.833   6.411  1.00  0.00    -0.348 OA
HETATM   14  O   UNL     1      43.352 -17.595   5.789  1.00  0.00    -0.347 OA
HETATM   15  C   UNL     1      42.745 -17.436   3.488  1.00  0.00     0.047 A 
HETATM   16  C   UNL     1      44.111 -16.620   6.505  1.00  0.00     0.178 C 
HETATM   17  C   UNL     1      43.296 -15.990   7.623  1.00  0.00     0.053 C 
HETATM   18  C   UNL     1      42.205 -15.090   7.065  1.00  0.00     0.178 C 
HETATM   19 BR   UNL     1      44.149 -18.612   2.987  1.00  0.00    -0.048 Br
HETATM   20  C   UNL     1      41.884 -16.978   2.483  1.00  0.00     0.031 A 
ENDBRANCH   8   9
ENDBRANCH   1   8
BRANCH   5  21
HETATM   21  C   UNL     1      39.122 -11.605  -0.788  1.00  0.00     0.151 A 
HETATM   22  N   UNL     1      38.887 -10.770   0.223  1.00  0.00    -0.158 NA
HETATM   23  N   UNL     1      37.626 -10.379  -0.026  1.00  0.00    -0.270 N 
HETATM   24  H   UNL     1      37.169  -9.721   0.598  1.00  0.00     0.190 HD
HETATM   25  C   UNL     1      37.151 -10.976  -1.153  1.00  0.00     0.227 A 
HETATM   26  N   UNL     1      38.077 -11.760  -1.661  1.00  0.00    -0.225 NA
ENDBRANCH   5  21
TORSDOF 3
ENDMDL
MODEL 8
REMARK VINA RESULT:      -7.5      4.178      6.884
REMARK  3 active torsions:
REMARK  status: ('A' for Active; 'I' for Inactive)
REMARK    1  A    between atoms: C_12  and  C_13 
REMARK    2  A    between atoms: C_13  and  N_14 
REMARK    3  A    between atoms: C_18  and  C_19 
ROOT
HETATM    1  N   UNL     1      41.944 -14.164   1.693  1.00  0.00    -0.067 N 
HETATM    2  H   UNL     1      41.693 -14.403   0.727  1.00  0.00     0.280 HD
HETATM    3  C   UNL     1      43.323 -14.733   1.953  1.00  0.00     0.236 C 
HETATM    4  C   UNL     1      43.296 -16.253   1.895  1.00  0.00     0.040 C 
HETATM    5  C   UNL     1      42.257 -16.867   2.834  1.00  0.00     0.062 C 
HETATM    6  C   UNL     1      40.882 -16.255   2.557  1.00  0.00     0.040 C 
HETATM    7  C   UNL     1      40.888 -14.737   2.612  1.00  0.00     0.236 C 
ENDROOT
BRANCH   1   8
HETATM    8  C   UNL     1      41.925 -12.648   1.787  1.00  0.00     0.273 C 
BRANCH   8   9
HETATM    9  C   UNL     1      42.218 -12.113   3.162  1.00  0.00    -0.028 A 
HETATM   10  C   UNL     1      43.541 -11.871   3.558  1.00  0.00     0.048 A 
HETATM   11  C   UNL     1      43.824 -11.343   4.820  1.00  0.00     0.103 A 
HETATM   12  C   UNL     1      42.790 -11.032   5.706  1.00  0.00     0.119 A 
HETATM   13  O   UNL     1      45.137 -11.047   5.061  1.00  0.00    -0.348 OA
HETATM   14  O   UNL     1      43.027 -10.393   6.892  1.00  0.00    -0.347 OA
HETATM   15  C   UNL     1      41.467 -11.261   5.312  1.00  0.00     0.047 A 
HETATM   16  C   UNL     1      43.806 -11.181   7.793  1.00  0.00     0.178 C 
HETATM   17  C   UNL     1      45.293 -11.052   7.505  1.00  0.00     0.053 C 
HETATM   18  C   UNL     1      45.659 -11.738   6.199  1.00  0.00     0.178 C 
HETATM   19 BR   UNL     1      40.007 -10.844   6.451  1.00  0.00    -0.048 Br
HETATM   20  C   UNL     1      41.180 -11.806   4.054  1.00  0.00     0.031 A 
ENDBRANCH   8   9
ENDBRANCH   1   8
BRANCH   5  21
HETATM   21  C   UNL     1      42.658 -16.739   4.269  1.00  0.00     0.151 A 
HETATM   22  N   UNL     1      43.929 -16.776   4.667  1.00  0.00    -0.158 NA
HETATM   23  N   UNL     1      43.811 -16.607   5.994  1.00  0.00    -0.270 N 
HETATM   24  H   UNL     1      44.643 -16.590   6.576  1.00  0.00     0.190 HD
HETATM   25  C   UNL     1      42.504 -16.476   6.349  1.00  0.00     0.227 A 
HETATM   26  N   UNL     1      41.746 -16.555   5.277  1.00  0.00    -0.225 NA
ENDBRANCH   5  21
TORSDOF 3
ENDMDL
MODEL 9
REMARK VINA RESULT:      -7.5      1.819      2.626
REMARK  3 active torsions:
REMARK  status: ('A' for Active; 'I' for Inactive)
REMARK    1  A    between atoms: C_12  and  C_13 
REMARK    2  A    between atoms: C_13  and  N_14 
REMARK    3  A    between atoms: C_18  and  C_19 
ROOT
HETATM    1  N   UNL     1      43.213 -10.429   6.876  1.00  0.00    -0.067 N 
HETATM    2  H   UNL     1      43.809 -10.084   6.114  1.00  0.00     0.280 HD
HETATM    3  C   UNL     1      42.812  -9.232   7.711  1.00  0.00     0.236 C 
HETATM    4  C   UNL     1      44.030  -8.616   8.385  1.00  0.00     0.040 C 
HETATM    5  C   UNL     1      44.829  -9.626   9.209  1.00  0.00     0.062 C 
HETATM    6  C   UNL     1      45.199 -10.829   8.340  1.00  0.00     0.040 C 
HETATM    7  C   UNL     1      43.995 -11.460   7.660  1.00  0.00     0.236 C 
ENDROOT
BRANCH   1   8
HETATM    8  C   UNL     1      42.014 -11.096   6.224  1.00  0.00     0.273 C 
BRANCH   8   9
HETATM    9  C   UNL     1      42.308 -12.446   5.629  1.00  0.00    -0.028 A 
HETATM   10  C   UNL     1      42.719 -12.554   4.293  1.00  0.00     0.048 A 
HETATM   11  C   UNL     1      43.027 -13.799   3.739  1.00  0.00     0.103 A 
HETATM   12  C   UNL     1      42.946 -14.959   4.513  1.00  0.00     0.119 A 
HETATM   13  O   UNL     1      43.520 -13.777   2.463  1.00  0.00    -0.348 OA
HETATM   14  O   UNL     1      43.367 -16.171   4.039  1.00  0.00    -0.347 OA
HETATM   15  C   UNL     1      42.547 -14.856   5.850  1.00  0.00     0.047 A 
HETATM   16  C   UNL     1      42.582 -16.632   2.939  1.00  0.00     0.178 C 
HETATM   17  C   UNL     1      43.054 -16.031   1.625  1.00  0.00     0.053 C 
HETATM   18  C   UNL     1      42.730 -14.547   1.554  1.00  0.00     0.178 C 
HETATM   19 BR   UNL     1      42.433 -16.384   6.971  1.00  0.00    -0.048 Br
HETATM   20  C   UNL     1      42.220 -13.612   6.405  1.00  0.00     0.031 A 
ENDBRANCH   8   9
ENDBRANCH   1   8
BRANCH   5  21
HETATM   21  C   UNL     1      44.105 -10.025  10.456  1.00  0.00     0.151 A 
HETATM   22  N   UNL     1      44.244 -11.227  11.014  1.00  0.00    -0.158 NA
HETATM   23  N   UNL     1      43.445 -11.128  12.089  1.00  0.00    -0.270 N 
HETATM   24  H   UNL     1      43.351 -11.917  12.721  1.00  0.00     0.190 HD
HETATM   25  C   UNL     1      42.864  -9.899  12.146  1.00  0.00     0.227 A 
HETATM   26  N   UNL     1      43.263  -9.174  11.124  1.00  0.00    -0.225 NA
ENDBRANCH   5  21
TORSDOF 3
ENDMDL
MODEL 10
REMARK VINA RESULT:      -7.3      4.126      7.766
REMARK  3 active torsions:
REMARK  status: ('A' for Active; 'I' for Inactive)
REMARK    1  A    between atoms: C_12  and  C_13 
REMARK    2  A    between atoms: C_13  and  N_14 
REMARK    3  A    between atoms: C_18  and  C_19 
ROOT
HETATM    1  N   UNL     1      42.622 -13.692   5.993  1.00  0.00    -0.067 N 
HETATM    2  H   UNL     1      41.861 -13.314   6.569  1.00  0.00     0.280 HD
HETATM    3  C   UNL     1      42.007 -14.177   4.697  1.00  0.00     0.236 C 
HETATM    4  C   UNL     1      41.063 -15.343   4.954  1.00  0.00     0.040 C 
HETATM    5  C   UNL     1      41.727 -16.490   5.717  1.00  0.00     0.062 C 
HETATM    6  C   UNL     1      42.354 -15.960   7.008  1.00  0.00     0.040 C 
HETATM    7  C   UNL     1      43.302 -14.796   6.772  1.00  0.00     0.236 C 
ENDROOT
BRANCH   1   8
HETATM    8  C   UNL     1      43.605 -12.556   5.767  1.00  0.00     0.273 C 
BRANCH   8   9
HETATM    9  C   UNL     1      43.473 -11.424   6.748  1.00  0.00    -0.028 A 
HETATM   10  C   UNL     1      44.111 -11.493   7.995  1.00  0.00     0.048 A 
HETATM   11  C   UNL     1      44.022 -10.434   8.903  1.00  0.00     0.103 A 
HETATM   12  C   UNL     1      43.309  -9.279   8.576  1.00  0.00     0.119 A 
HETATM   13  O   UNL     1      44.770 -10.562  10.041  1.00  0.00    -0.348 OA
HETATM   14  O   UNL     1      43.315  -8.176   9.386  1.00  0.00    -0.347 OA
HETATM   15  C   UNL     1      42.679  -9.200   7.329  1.00  0.00     0.047 A 
HETATM   16  C   UNL     1      42.696  -8.421  10.649  1.00  0.00     0.178 C 
HETATM   17  C   UNL     1      43.663  -9.063  11.630  1.00  0.00     0.053 C 
HETATM   18  C   UNL     1      43.979 -10.495  11.230  1.00  0.00     0.178 C 
HETATM   19 BR   UNL     1      41.709  -7.655   6.805  1.00  0.00    -0.048 Br
HETATM   20  C   UNL     1      42.751 -10.266   6.423  1.00  0.00     0.031 A 
ENDBRANCH   8   9
ENDBRANCH   1   8
BRANCH   5  21
HETATM   21  C   UNL     1      42.712 -17.228   4.867  1.00  0.00     0.151 A 
HETATM   22  N   UNL     1      43.733 -17.914   5.381  1.00  0.00    -0.158 NA
HETATM   23  N   UNL     1      44.317 -18.410   4.278  1.00  0.00    -0.270 N 
HETATM   24  H   UNL     1      45.145 -18.993   4.365  1.00  0.00     0.190 HD
HETATM   25  C   UNL     1      43.648 -18.018   3.160  1.00  0.00     0.227 A 
HETATM   26  N   UNL     1      42.624 -17.266   3.500  1.00  0.00    -0.225 NA
ENDBRANCH   5  21
TORSDOF 3
ENDMDL
