MODEL 1
REMARK VINA RESULT:      -8.6      0.000      0.000
REMARK  12 active torsions:
REMARK  status: ('A' for Active; 'I' for Inactive)
REMARK    1  A    between atoms: C_2  and  N_3 
REMARK    2  A    between atoms: N_3  and  C_5 
REMARK    3  A    between atoms: N_3  and  C_39 
REMARK    4  A    between atoms: C_5  and  C_6 
REMARK    5  A    between atoms: N_7  and  C_8 
REMARK    6  A    between atoms: C_12  and  N_13 
REMARK    7  A    between atoms: C_16  and  C_17 
REMARK       I    between atoms: C_17  and  N_18 
REMARK    8  A    between atoms: N_18  and  N_19 
REMARK    9  A    between atoms: C_20  and  C_21 
REMARK   10  A    between atoms: C_22  and  O_23 
REMARK   11  A    between atoms: O_23  and  C_24 
REMARK   12  A    between atoms: C_24  and  C_25 
ROOT
HETATM    1  C   UNL     1      39.048 -14.735  -2.104  1.00  0.00     0.294 C 
HETATM    2  N   UNL     1      39.127 -15.095  -0.772  1.00  0.00    -0.242 N 
HETATM    3  O   UNL     1      38.486 -15.465  -2.916  1.00  0.00    -0.264 OA
HETATM    4  H   UNL     1      38.580 -15.906  -0.494  1.00  0.00     0.192 HD
ENDROOT
BRANCH   1   5
HETATM    5  C   UNL     1      39.650 -13.469  -2.498  1.00  0.00     0.176 C 
HETATM    6  C   UNL     1      39.280 -12.169  -2.169  1.00  0.00     0.102 C 
HETATM    7  N   UNL     1      40.141 -11.378  -2.935  1.00  0.00    -0.191 N 
HETATM    8  N   UNL     1      41.105 -12.177  -3.463  1.00  0.00    -0.058 NA
HETATM    9  N   UNL     1      40.802 -13.438  -3.225  1.00  0.00    -0.124 NA
BRANCH   6  10
HETATM   10  C   UNL     1      38.202 -11.690  -1.275  1.00  0.00     0.296 C 
BRANCH  10  11
HETATM   11  N   UNL     1      38.581 -11.568   0.207  1.00  0.00    -0.066 N 
HETATM   12  H   UNL     1      38.829 -12.532   0.465  1.00  0.00     0.280 HD
BRANCH  11  13
HETATM   13  C   UNL     1      37.438 -11.162   1.113  1.00  0.00     0.231 C 
HETATM   14  C   UNL     1      36.332 -10.506   0.304  1.00  0.00     0.034 C 
ENDBRANCH  11  13
BRANCH  11  15
HETATM   15  C   UNL     1      39.853 -10.769   0.425  1.00  0.00     0.231 C 
HETATM   16  C   UNL     1      39.543  -9.325   0.779  1.00  0.00     0.034 C 
ENDBRANCH  11  15
ENDBRANCH  10  11
ENDBRANCH   6  10
BRANCH   7  17
HETATM   17  C   UNL     1      40.146  -9.982  -3.166  1.00  0.00     0.229 A 
HETATM   18  N   UNL     1      41.131  -9.218  -2.693  1.00  0.00    -0.081 NA
HETATM   19  O   UNL     1      40.782  -7.929  -3.103  1.00  0.00    -0.103 OA
HETATM   20  N   UNL     1      39.610  -7.939  -3.846  1.00  0.00    -0.083 NA
HETATM   21  C   UNL     1      39.209  -9.209  -3.877  1.00  0.00     0.201 A 
BRANCH  21  22
HETATM   22  N   UNL     1      38.112  -9.646  -4.517  1.00  0.00    -0.379 N 
HETATM   23  H   UNL     1      38.209 -10.258  -5.323  1.00  0.00     0.158 HD
HETATM   24  H   UNL     1      37.218  -9.159  -4.469  1.00  0.00     0.158 HD
ENDBRANCH  21  22
ENDBRANCH   7  17
ENDBRANCH   1   5
BRANCH   2  25
HETATM   25  N   UNL     1      39.911 -14.451   0.136  1.00  0.00    -0.183 NA
HETATM   26  C   UNL     1      40.318 -15.180   1.126  1.00  0.00     0.153 C 
BRANCH  26  27
HETATM   27  C   UNL     1      41.233 -14.637   2.142  1.00  0.00     0.018 A 
HETATM   28  C   UNL     1      42.140 -15.445   2.846  1.00  0.00     0.081 A 
HETATM   29  C   UNL     1      43.039 -14.860   3.741  1.00  0.00     0.039 A 
HETATM   30  C   UNL     1      42.993 -13.485   3.976  1.00  0.00     0.026 A 
HETATM   31  C   UNL     1      42.057 -12.695   3.309  1.00  0.00     0.035 A 
HETATM   32 CL   UNL     1      41.996 -11.004   3.611  1.00  0.00    -0.084 Cl
HETATM   33  C   UNL     1      41.174 -13.263   2.392  1.00  0.00     0.039 A 
BRANCH  28  34
HETATM   34  O   UNL     1      42.185 -16.812   2.720  1.00  0.00    -0.346 OA
BRANCH  34  35
HETATM   35  C   UNL     1      43.550 -17.248   2.606  1.00  0.00     0.219 C 
BRANCH  35  36
HETATM   36  C   UNL     1      43.726 -18.535   3.366  1.00  0.00     0.026 A 
HETATM   37  C   UNL     1      43.996 -18.574   4.742  1.00  0.00     0.045 A 
HETATM   38 CL   UNL     1      44.194 -17.134   5.673  1.00  0.00    -0.084 Cl
HETATM   39  C   UNL     1      44.112 -19.797   5.414  1.00  0.00     0.024 A 
HETATM   40  C   UNL     1      43.960 -20.999   4.724  1.00  0.00     0.005 A 
HETATM   41  C   UNL     1      43.711 -20.977   3.357  1.00  0.00     0.043 A 
HETATM   42  C   UNL     1      43.610 -19.756   2.693  1.00  0.00     0.126 A 
HETATM   43  F   UNL     1      43.423 -19.773   1.365  1.00  0.00    -0.205 F 
ENDBRANCH  35  36
ENDBRANCH  34  35
ENDBRANCH  28  34
ENDBRANCH  26  27
ENDBRANCH   2  25
TORSDOF 12
ENDMDL
MODEL 2
REMARK VINA RESULT:      -8.4      4.408      6.526
REMARK  12 active torsions:
REMARK  status: ('A' for Active; 'I' for Inactive)
REMARK    1  A    between atoms: C_2  and  N_3 
REMARK    2  A    between atoms: N_3  and  C_5 
REMARK    3  A    between atoms: N_3  and  C_39 
REMARK    4  A    between atoms: C_5  and  C_6 
REMARK    5  A    between atoms: N_7  and  C_8 
REMARK    6  A    between atoms: C_12  and  N_13 
REMARK    7  A    between atoms: C_16  and  C_17 
REMARK       I    between atoms: C_17  and  N_18 
REMARK    8  A    between atoms: N_18  and  N_19 
REMARK    9  A    between atoms: C_20  and  C_21 
REMARK   10  A    between atoms: C_22  and  O_23 
REMARK   11  A    between atoms: O_23  and  C_24 
REMARK   12  A    between atoms: C_24  and  C_25 
ROOT
HETATM    1  C   UNL     1      39.086 -10.964   6.932  1.00  0.00     0.294 C 
HETATM    2  N   UNL     1      39.263 -12.158   6.256  1.00  0.00    -0.242 N 
HETATM    3  O   UNL     1      38.660 -10.957   8.083  1.00  0.00    -0.264 OA
HETATM    4  H   UNL     1      39.158 -13.005   6.809  1.00  0.00     0.192 HD
ENDROOT
BRANCH   1   5
HETATM    5  C   UNL     1      39.425  -9.735   6.230  1.00  0.00     0.176 C 
HETATM    6  C   UNL     1      40.672  -9.187   5.947  1.00  0.00     0.102 C 
HETATM    7  N   UNL     1      40.366  -7.951   5.371  1.00  0.00    -0.191 N 
HETATM    8  N   UNL     1      39.033  -7.915   5.110  1.00  0.00    -0.058 NA
HETATM    9  N   UNL     1      38.457  -8.973   5.645  1.00  0.00    -0.124 NA
BRANCH   6  10
HETATM   10  C   UNL     1      42.024  -9.722   6.225  1.00  0.00     0.296 C 
BRANCH  10  11
HETATM   11  N   UNL     1      42.440 -10.932   5.378  1.00  0.00    -0.066 N 
HETATM   12  H   UNL     1      41.630 -11.561   5.454  1.00  0.00     0.280 HD
BRANCH  11  13
HETATM   13  C   UNL     1      43.628 -11.696   5.922  1.00  0.00     0.231 C 
HETATM   14  C   UNL     1      43.176 -13.017   6.520  1.00  0.00     0.034 C 
ENDBRANCH  11  13
BRANCH  11  15
HETATM   15  C   UNL     1      42.542 -10.608   3.898  1.00  0.00     0.231 C 
HETATM   16  C   UNL     1      43.228 -11.728   3.135  1.00  0.00     0.034 C 
ENDBRANCH  11  15
ENDBRANCH  10  11
ENDBRANCH   6  10
BRANCH   7  17
HETATM   17  C   UNL     1      41.204  -6.863   5.030  1.00  0.00     0.229 A 
HETATM   18  N   UNL     1      41.839  -6.171   5.975  1.00  0.00    -0.081 NA
HETATM   19  O   UNL     1      42.538  -5.193   5.264  1.00  0.00    -0.103 OA
HETATM   20  N   UNL     1      42.342  -5.332   3.897  1.00  0.00    -0.083 NA
HETATM   21  C   UNL     1      41.508  -6.360   3.751  1.00  0.00     0.201 A 
BRANCH  21  22
HETATM   22  N   UNL     1      41.079  -6.830   2.568  1.00  0.00    -0.379 N 
HETATM   23  H   UNL     1      41.357  -6.364   1.709  1.00  0.00     0.158 HD
HETATM   24  H   UNL     1      40.241  -7.404   2.477  1.00  0.00     0.158 HD
ENDBRANCH  21  22
ENDBRANCH   7  17
ENDBRANCH   1   5
BRANCH   2  25
HETATM   25  N   UNL     1      39.522 -12.234   4.921  1.00  0.00    -0.183 NA
HETATM   26  C   UNL     1      39.854 -13.410   4.493  1.00  0.00     0.153 C 
BRANCH  26  27
HETATM   27  C   UNL     1      40.089 -13.659   3.062  1.00  0.00     0.018 A 
HETATM   28  C   UNL     1      40.607 -14.871   2.584  1.00  0.00     0.081 A 
HETATM   29  C   UNL     1      40.733 -15.077   1.208  1.00  0.00     0.039 A 
HETATM   30  C   UNL     1      40.399 -14.056   0.317  1.00  0.00     0.026 A 
HETATM   31  C   UNL     1      39.930 -12.835   0.802  1.00  0.00     0.035 A 
HETATM   32 CL   UNL     1      39.532 -11.575  -0.298  1.00  0.00    -0.084 Cl
HETATM   33  C   UNL     1      39.772 -12.628   2.171  1.00  0.00     0.039 A 
BRANCH  28  34
HETATM   34  O   UNL     1      41.028 -15.887   3.407  1.00  0.00    -0.346 OA
BRANCH  34  35
HETATM   35  C   UNL     1      42.414 -15.705   3.740  1.00  0.00     0.219 C 
BRANCH  35  36
HETATM   36  C   UNL     1      43.058 -17.050   3.942  1.00  0.00     0.026 A 
HETATM   37  C   UNL     1      43.319 -17.584   5.212  1.00  0.00     0.045 A 
HETATM   38 CL   UNL     1      42.961 -16.713   6.659  1.00  0.00    -0.084 Cl
HETATM   39  C   UNL     1      43.884 -18.859   5.350  1.00  0.00     0.024 A 
HETATM   40  C   UNL     1      44.195 -19.619   4.225  1.00  0.00     0.005 A 
HETATM   41  C   UNL     1      43.959 -19.096   2.958  1.00  0.00     0.043 A 
HETATM   42  C   UNL     1      43.410 -17.822   2.829  1.00  0.00     0.126 A 
HETATM   43  F   UNL     1      43.245 -17.328   1.593  1.00  0.00    -0.205 F 
ENDBRANCH  35  36
ENDBRANCH  34  35
ENDBRANCH  28  34
ENDBRANCH  26  27
ENDBRANCH   2  25
TORSDOF 12
ENDMDL
MODEL 3
REMARK VINA RESULT:      -8.3      6.113      8.382
REMARK  12 active torsions:
REMARK  status: ('A' for Active; 'I' for Inactive)
REMARK    1  A    between atoms: C_2  and  N_3 
REMARK    2  A    between atoms: N_3  and  C_5 
REMARK    3  A    between atoms: N_3  and  C_39 
REMARK    4  A    between atoms: C_5  and  C_6 
REMARK    5  A    between atoms: N_7  and  C_8 
REMARK    6  A    between atoms: C_12  and  N_13 
REMARK    7  A    between atoms: C_16  and  C_17 
REMARK       I    between atoms: C_17  and  N_18 
REMARK    8  A    between atoms: N_18  and  N_19 
REMARK    9  A    between atoms: C_20  and  C_21 
REMARK   10  A    between atoms: C_22  and  O_23 
REMARK   11  A    between atoms: O_23  and  C_24 
REMARK   12  A    between atoms: C_24  and  C_25 
ROOT
HETATM    1  C   UNL     1      43.886 -11.350   7.813  1.00  0.00     0.294 C 
HETATM    2  N   UNL     1      43.845 -12.616   7.258  1.00  0.00    -0.242 N 
HETATM    3  O   UNL     1      44.744 -11.060   8.641  1.00  0.00    -0.264 OA
HETATM    4  H   UNL     1      44.635 -13.222   7.465  1.00  0.00     0.192 HD
ENDROOT
BRANCH   1   5
HETATM    5  C   UNL     1      42.882 -10.390   7.377  1.00  0.00     0.176 C 
HETATM    6  C   UNL     1      42.229  -9.396   8.099  1.00  0.00     0.102 C 
HETATM    7  N   UNL     1      41.296  -8.888   7.190  1.00  0.00    -0.191 N 
HETATM    8  N   UNL     1      41.580  -9.385   5.958  1.00  0.00    -0.058 NA
HETATM    9  N   UNL     1      42.515 -10.307   6.067  1.00  0.00    -0.124 NA
BRANCH   6  10
HETATM   10  C   UNL     1      42.404  -8.983   9.509  1.00  0.00     0.296 C 
BRANCH  10  11
HETATM   11  N   UNL     1      41.722  -9.882  10.549  1.00  0.00    -0.066 N 
HETATM   12  H   UNL     1      41.799 -10.820  10.133  1.00  0.00     0.280 HD
BRANCH  11  13
HETATM   13  C   UNL     1      40.244  -9.614  10.733  1.00  0.00     0.231 C 
HETATM   14  C   UNL     1      40.012  -8.154  11.080  1.00  0.00     0.034 C 
ENDBRANCH  11  13
BRANCH  11  15
HETATM   15  C   UNL     1      42.499  -9.970  11.850  1.00  0.00     0.231 C 
HETATM   16  C   UNL     1      43.623  -8.950  11.891  1.00  0.00     0.034 C 
ENDBRANCH  11  15
ENDBRANCH  10  11
ENDBRANCH   6  10
BRANCH   7  17
HETATM   17  C   UNL     1      40.228  -7.980   7.381  1.00  0.00     0.229 A 
HETATM   18  N   UNL     1      38.971  -8.416   7.465  1.00  0.00    -0.081 NA
HETATM   19  O   UNL     1      38.222  -7.250   7.632  1.00  0.00    -0.103 OA
HETATM   20  N   UNL     1      39.040  -6.130   7.681  1.00  0.00    -0.083 NA
HETATM   21  C   UNL     1      40.283  -6.580   7.516  1.00  0.00     0.201 A 
BRANCH  21  22
HETATM   22  N   UNL     1      41.380  -5.805   7.517  1.00  0.00    -0.379 N 
HETATM   23  H   UNL     1      41.738  -5.436   6.639  1.00  0.00     0.158 HD
HETATM   24  H   UNL     1      42.067  -5.827   8.269  1.00  0.00     0.158 HD
ENDBRANCH  21  22
ENDBRANCH   7  17
ENDBRANCH   1   5
BRANCH   2  25
HETATM   25  N   UNL     1      42.806 -13.074   6.506  1.00  0.00    -0.183 NA
HETATM   26  C   UNL     1      43.145 -13.738   5.447  1.00  0.00     0.153 C 
BRANCH  26  27
HETATM   27  C   UNL     1      42.129 -14.356   4.581  1.00  0.00     0.018 A 
HETATM   28  C   UNL     1      41.790 -15.715   4.671  1.00  0.00     0.081 A 
HETATM   29  C   UNL     1      40.761 -16.227   3.877  1.00  0.00     0.039 A 
HETATM   30  C   UNL     1      40.114 -15.400   2.956  1.00  0.00     0.026 A 
HETATM   31  C   UNL     1      40.489 -14.062   2.838  1.00  0.00     0.035 A 
HETATM   32 CL   UNL     1      39.699 -13.051   1.695  1.00  0.00    -0.084 Cl
HETATM   33  C   UNL     1      41.495 -13.533   3.646  1.00  0.00     0.039 A 
BRANCH  28  34
HETATM   34  O   UNL     1      42.438 -16.599   5.498  1.00  0.00    -0.346 OA
BRANCH  34  35
HETATM   35  C   UNL     1      43.747 -16.888   4.978  1.00  0.00     0.219 C 
BRANCH  35  36
HETATM   36  C   UNL     1      43.743 -18.256   4.353  1.00  0.00     0.026 A 
HETATM   37  C   UNL     1      43.645 -18.458   2.968  1.00  0.00     0.045 A 
HETATM   38 CL   UNL     1      43.476 -17.141   1.865  1.00  0.00    -0.084 Cl
HETATM   39  C   UNL     1      43.685 -19.750   2.429  1.00  0.00     0.024 A 
HETATM   40  C   UNL     1      43.824 -20.859   3.261  1.00  0.00     0.005 A 
HETATM   41  C   UNL     1      43.902 -20.676   4.637  1.00  0.00     0.043 A 
HETATM   42  C   UNL     1      43.848 -19.389   5.167  1.00  0.00     0.126 A 
HETATM   43  F   UNL     1      43.874 -19.253   6.502  1.00  0.00    -0.205 F 
ENDBRANCH  35  36
ENDBRANCH  34  35
ENDBRANCH  28  34
ENDBRANCH  26  27
ENDBRANCH   2  25
TORSDOF 12
ENDMDL
MODEL 4
REMARK VINA RESULT:      -8.3      7.386      9.723
REMARK  12 active torsions:
REMARK  status: ('A' for Active; 'I' for Inactive)
REMARK    1  A    between atoms: C_2  and  N_3 
REMARK    2  A    between atoms: N_3  and  C_5 
REMARK    3  A    between atoms: N_3  and  C_39 
REMARK    4  A    between atoms: C_5  and  C_6 
REMARK    5  A    between atoms: N_7  and  C_8 
REMARK    6  A    between atoms: C_12  and  N_13 
REMARK    7  A    between atoms: C_16  and  C_17 
REMARK       I    between atoms: C_17  and  N_18 
REMARK    8  A    between atoms: N_18  and  N_19 
REMARK    9  A    between atoms: C_20  and  C_21 
REMARK   10  A    between atoms: C_22  and  O_23 
REMARK   11  A    between atoms: O_23  and  C_24 
REMARK   12  A    between atoms: C_24  and  C_25 
ROOT
HETATM    1  C   UNL     1      44.609 -10.430   8.941  1.00  0.00     0.294 C 
HETATM    2  N   UNL     1      44.293 -11.348   7.956  1.00  0.00    -0.242 N 
HETATM    3  O   UNL     1      45.458 -10.691   9.788  1.00  0.00    -0.264 OA
HETATM    4  H   UNL     1      44.896 -12.165   7.896  1.00  0.00     0.192 HD
ENDROOT
BRANCH   1   5
HETATM    5  C   UNL     1      43.902  -9.158   8.929  1.00  0.00     0.176 C 
HETATM    6  C   UNL     1      42.765  -8.764   9.627  1.00  0.00     0.102 C 
HETATM    7  N   UNL     1      42.487  -7.494   9.116  1.00  0.00    -0.191 N 
HETATM    8  N   UNL     1      43.545  -7.090   8.365  1.00  0.00    -0.058 NA
HETATM    9  N   UNL     1      44.388  -8.094   8.228  1.00  0.00    -0.124 NA
BRANCH   6  10
HETATM   10  C   UNL     1      41.973  -9.504  10.635  1.00  0.00     0.296 C 
BRANCH  10  11
HETATM   11  N   UNL     1      41.974  -8.901  12.046  1.00  0.00    -0.066 N 
HETATM   12  H   UNL     1      41.281  -8.144  11.978  1.00  0.00     0.280 HD
BRANCH  11  13
HETATM   13  C   UNL     1      43.281  -8.250  12.446  1.00  0.00     0.231 C 
HETATM   14  C   UNL     1      43.128  -7.537  13.778  1.00  0.00     0.034 C 
ENDBRANCH  11  13
BRANCH  11  15
HETATM   15  C   UNL     1      41.413  -9.848  13.092  1.00  0.00     0.231 C 
HETATM   16  C   UNL     1      39.913 -10.022  12.928  1.00  0.00     0.034 C 
ENDBRANCH  11  15
ENDBRANCH  10  11
ENDBRANCH   6  10
BRANCH   7  17
HETATM   17  C   UNL     1      41.365  -6.653   9.304  1.00  0.00     0.229 A 
HETATM   18  N   UNL     1      41.131  -6.084  10.487  1.00  0.00    -0.081 NA
HETATM   19  O   UNL     1      39.955  -5.360  10.285  1.00  0.00    -0.103 OA
HETATM   20  N   UNL     1      39.514  -5.474   8.974  1.00  0.00    -0.083 NA
HETATM   21  C   UNL     1      40.381  -6.283   8.367  1.00  0.00     0.201 A 
BRANCH  21  22
HETATM   22  N   UNL     1      40.316  -6.637   7.073  1.00  0.00    -0.379 N 
HETATM   23  H   UNL     1      39.416  -6.858   6.655  1.00  0.00     0.158 HD
HETATM   24  H   UNL     1      41.114  -7.021   6.569  1.00  0.00     0.158 HD
ENDBRANCH  21  22
ENDBRANCH   7  17
ENDBRANCH   1   5
BRANCH   2  25
HETATM   25  N   UNL     1      43.223 -11.219   7.124  1.00  0.00    -0.183 NA
HETATM   26  C   UNL     1      42.975 -12.253   6.385  1.00  0.00     0.153 C 
BRANCH  26  27
HETATM   27  C   UNL     1      41.805 -12.285   5.493  1.00  0.00     0.018 A 
HETATM   28  C   UNL     1      41.595 -13.316   4.565  1.00  0.00     0.081 A 
HETATM   29  C   UNL     1      40.425 -13.333   3.801  1.00  0.00     0.039 A 
HETATM   30  C   UNL     1      39.499 -12.296   3.921  1.00  0.00     0.026 A 
HETATM   31  C   UNL     1      39.738 -11.248   4.811  1.00  0.00     0.035 A 
HETATM   32 CL   UNL     1      38.602  -9.966   4.946  1.00  0.00    -0.084 Cl
HETATM   33  C   UNL     1      40.888 -11.235   5.599  1.00  0.00     0.039 A 
BRANCH  28  34
HETATM   34  O   UNL     1      42.501 -14.324   4.341  1.00  0.00    -0.346 OA
BRANCH  34  35
HETATM   35  C   UNL     1      41.972 -15.572   4.820  1.00  0.00     0.219 C 
BRANCH  35  36
HETATM   36  C   UNL     1      42.729 -16.708   4.187  1.00  0.00     0.026 A 
HETATM   37  C   UNL     1      43.822 -17.331   4.808  1.00  0.00     0.045 A 
HETATM   38 CL   UNL     1      44.418 -16.809   6.341  1.00  0.00    -0.084 Cl
HETATM   39  C   UNL     1      44.471 -18.411   4.197  1.00  0.00     0.024 A 
HETATM   40  C   UNL     1      44.040 -18.887   2.960  1.00  0.00     0.005 A 
HETATM   41  C   UNL     1      42.970 -18.268   2.323  1.00  0.00     0.043 A 
HETATM   42  C   UNL     1      42.338 -17.185   2.932  1.00  0.00     0.126 A 
HETATM   43  F   UNL     1      41.343 -16.579   2.265  1.00  0.00    -0.205 F 
ENDBRANCH  35  36
ENDBRANCH  34  35
ENDBRANCH  28  34
ENDBRANCH  26  27
ENDBRANCH   2  25
TORSDOF 12
ENDMDL
MODEL 5
REMARK VINA RESULT:      -8.3      5.530      8.155
REMARK  12 active torsions:
REMARK  status: ('A' for Active; 'I' for Inactive)
REMARK    1  A    between atoms: C_2  and  N_3 
REMARK    2  A    between atoms: N_3  and  C_5 
REMARK    3  A    between atoms: N_3  and  C_39 
REMARK    4  A    between atoms: C_5  and  C_6 
REMARK    5  A    between atoms: N_7  and  C_8 
REMARK    6  A    between atoms: C_12  and  N_13 
REMARK    7  A    between atoms: C_16  and  C_17 
REMARK       I    between atoms: C_17  and  N_18 
REMARK    8  A    between atoms: N_18  and  N_19 
REMARK    9  A    between atoms: C_20  and  C_21 
REMARK   10  A    between atoms: C_22  and  O_23 
REMARK   11  A    between atoms: O_23  and  C_24 
REMARK   12  A    between atoms: C_24  and  C_25 
ROOT
HETATM    1  C   UNL     1      43.329 -11.873   6.055  1.00  0.00     0.294 C 
HETATM    2  N   UNL     1      43.518 -12.241   4.736  1.00  0.00    -0.242 N 
HETATM    3  O   UNL     1      44.212 -12.059   6.887  1.00  0.00    -0.264 OA
HETATM    4  H   UNL     1      44.459 -12.531   4.482  1.00  0.00     0.192 HD
ENDROOT
BRANCH   1   5
HETATM    5  C   UNL     1      42.056 -11.261   6.409  1.00  0.00     0.176 C 
HETATM    6  C   UNL     1      41.797 -10.050   7.043  1.00  0.00     0.102 C 
HETATM    7  N   UNL     1      40.411 -10.062   7.221  1.00  0.00    -0.191 N 
HETATM    8  N   UNL     1      39.892 -11.093   6.503  1.00  0.00    -0.058 NA
HETATM    9  N   UNL     1      40.877 -11.832   6.033  1.00  0.00    -0.124 NA
BRANCH   6  10
HETATM   10  C   UNL     1      42.737  -9.000   7.494  1.00  0.00     0.296 C 
BRANCH  10  11
HETATM   11  N   UNL     1      43.797  -9.455   8.505  1.00  0.00    -0.066 N 
HETATM   12  H   UNL     1      44.144 -10.335   8.101  1.00  0.00     0.280 HD
BRANCH  11  13
HETATM   13  C   UNL     1      43.249  -9.798   9.874  1.00  0.00     0.231 C 
HETATM   14  C   UNL     1      43.663  -8.745  10.887  1.00  0.00     0.034 C 
ENDBRANCH  11  13
BRANCH  11  15
HETATM   15  C   UNL     1      45.009  -8.541   8.539  1.00  0.00     0.231 C 
HETATM   16  C   UNL     1      46.259  -9.266   8.069  1.00  0.00     0.034 C 
ENDBRANCH  11  15
ENDBRANCH  10  11
ENDBRANCH   6  10
BRANCH   7  17
HETATM   17  C   UNL     1      39.571  -9.191   7.955  1.00  0.00     0.229 A 
HETATM   18  N   UNL     1      38.942  -8.183   7.350  1.00  0.00    -0.081 NA
HETATM   19  O   UNL     1      38.240  -7.557   8.382  1.00  0.00    -0.103 OA
HETATM   20  N   UNL     1      38.428  -8.217   9.588  1.00  0.00    -0.083 NA
HETATM   21  C   UNL     1      39.260  -9.224   9.327  1.00  0.00     0.201 A 
BRANCH  21  22
HETATM   22  N   UNL     1      39.682 -10.119  10.235  1.00  0.00    -0.379 N 
HETATM   23  H   UNL     1      39.477  -9.972  11.221  1.00  0.00     0.158 HD
HETATM   24  H   UNL     1      40.464 -10.749  10.063  1.00  0.00     0.158 HD
ENDBRANCH  21  22
ENDBRANCH   7  17
ENDBRANCH   1   5
BRANCH   2  25
HETATM   25  N   UNL     1      42.519 -12.265   3.812  1.00  0.00    -0.183 NA
HETATM   26  C   UNL     1      42.750 -13.001   2.772  1.00  0.00     0.153 C 
BRANCH  26  27
HETATM   27  C   UNL     1      41.729 -13.183   1.728  1.00  0.00     0.018 A 
HETATM   28  C   UNL     1      41.477 -14.426   1.129  1.00  0.00     0.081 A 
HETATM   29  C   UNL     1      40.441 -14.552   0.201  1.00  0.00     0.039 A 
HETATM   30  C   UNL     1      39.699 -13.429  -0.172  1.00  0.00     0.026 A 
HETATM   31  C   UNL     1      39.987 -12.186   0.391  1.00  0.00     0.035 A 
HETATM   32 CL   UNL     1      39.080 -10.804  -0.080  1.00  0.00    -0.084 Cl
HETATM   33  C   UNL     1      41.000 -12.054   1.340  1.00  0.00     0.039 A 
BRANCH  28  34
HETATM   34  O   UNL     1      42.218 -15.553   1.392  1.00  0.00    -0.346 OA
BRANCH  34  35
HETATM   35  C   UNL     1      41.458 -16.458   2.210  1.00  0.00     0.219 C 
BRANCH  35  36
HETATM   36  C   UNL     1      42.334 -16.987   3.313  1.00  0.00     0.026 A 
HETATM   37  C   UNL     1      42.262 -16.515   4.632  1.00  0.00     0.045 A 
HETATM   38 CL   UNL     1      41.181 -15.248   5.089  1.00  0.00    -0.084 Cl
HETATM   39  C   UNL     1      43.071 -17.065   5.634  1.00  0.00     0.024 A 
HETATM   40  C   UNL     1      43.963 -18.093   5.336  1.00  0.00     0.005 A 
HETATM   41  C   UNL     1      44.060 -18.558   4.030  1.00  0.00     0.043 A 
HETATM   42  C   UNL     1      43.261 -17.997   3.036  1.00  0.00     0.126 A 
HETATM   43  F   UNL     1      43.419 -18.433   1.777  1.00  0.00    -0.205 F 
ENDBRANCH  35  36
ENDBRANCH  34  35
ENDBRANCH  28  34
ENDBRANCH  26  27
ENDBRANCH   2  25
TORSDOF 12
ENDMDL
MODEL 6
REMARK VINA RESULT:      -8.2      3.780      8.575
REMARK  12 active torsions:
REMARK  status: ('A' for Active; 'I' for Inactive)
REMARK    1  A    between atoms: C_2  and  N_3 
REMARK    2  A    between atoms: N_3  and  C_5 
REMARK    3  A    between atoms: N_3  and  C_39 
REMARK    4  A    between atoms: C_5  and  C_6 
REMARK    5  A    between atoms: N_7  and  C_8 
REMARK    6  A    between atoms: C_12  and  N_13 
REMARK    7  A    between atoms: C_16  and  C_17 
REMARK       I    between atoms: C_17  and  N_18 
REMARK    8  A    between atoms: N_18  and  N_19 
REMARK    9  A    between atoms: C_20  and  C_21 
REMARK   10  A    between atoms: C_22  and  O_23 
REMARK   11  A    between atoms: O_23  and  C_24 
REMARK   12  A    between atoms: C_24  and  C_25 
ROOT
HETATM    1  C   UNL     1      39.912 -14.715   2.372  1.00  0.00     0.294 C 
HETATM    2  N   UNL     1      39.573 -14.118   1.172  1.00  0.00    -0.242 N 
HETATM    3  O   UNL     1      39.647 -15.896   2.579  1.00  0.00    -0.264 OA
HETATM    4  H   UNL     1      39.233 -14.740   0.443  1.00  0.00     0.192 HD
ENDROOT
BRANCH   1   5
HETATM    5  C   UNL     1      40.591 -13.895   3.365  1.00  0.00     0.176 C 
HETATM    6  C   UNL     1      41.951 -13.688   3.570  1.00  0.00     0.102 C 
HETATM    7  N   UNL     1      41.996 -12.915   4.733  1.00  0.00    -0.191 N 
HETATM    8  N   UNL     1      40.736 -12.495   5.021  1.00  0.00    -0.058 NA
HETATM    9  N   UNL     1      39.883 -13.100   4.218  1.00  0.00    -0.124 NA
BRANCH   6  10
HETATM   10  C   UNL     1      43.110 -14.196   2.801  1.00  0.00     0.296 C 
BRANCH  10  11
HETATM   11  N   UNL     1      43.419 -15.687   2.985  1.00  0.00    -0.066 N 
HETATM   12  H   UNL     1      44.446 -15.708   3.038  1.00  0.00     0.280 HD
BRANCH  11  13
HETATM   13  C   UNL     1      43.033 -16.555   1.806  1.00  0.00     0.231 C 
HETATM   14  C   UNL     1      42.727 -17.968   2.270  1.00  0.00     0.034 C 
ENDBRANCH  11  13
BRANCH  11  15
HETATM   15  C   UNL     1      42.951 -16.225   4.325  1.00  0.00     0.231 C 
HETATM   16  C   UNL     1      44.128 -16.578   5.218  1.00  0.00     0.034 C 
ENDBRANCH  11  15
ENDBRANCH  10  11
ENDBRANCH   6  10
BRANCH   7  17
HETATM   17  C   UNL     1      43.093 -12.528   5.538  1.00  0.00     0.229 A 
HETATM   18  N   UNL     1      43.873 -11.508   5.179  1.00  0.00    -0.081 NA
HETATM   19  O   UNL     1      44.831 -11.444   6.193  1.00  0.00    -0.103 OA
HETATM   20  N   UNL     1      44.595 -12.405   7.166  1.00  0.00    -0.083 NA
HETATM   21  C   UNL     1      43.525 -13.083   6.757  1.00  0.00     0.201 A 
BRANCH  21  22
HETATM   22  N   UNL     1      42.960 -14.097   7.434  1.00  0.00    -0.379 N 
HETATM   23  H   UNL     1      42.100 -14.516   7.090  1.00  0.00     0.158 HD
HETATM   24  H   UNL     1      43.135 -14.260   8.424  1.00  0.00     0.158 HD
ENDBRANCH  21  22
ENDBRANCH   7  17
ENDBRANCH   1   5
BRANCH   2  25
HETATM   25  N   UNL     1      39.638 -12.776   0.955  1.00  0.00    -0.183 NA
HETATM   26  C   UNL     1      40.765 -12.350   0.478  1.00  0.00     0.153 C 
BRANCH  26  27
HETATM   27  C   UNL     1      40.953 -10.935   0.124  1.00  0.00     0.018 A 
HETATM   28  C   UNL     1      41.366 -10.527  -1.153  1.00  0.00     0.081 A 
HETATM   29  C   UNL     1      41.450  -9.165  -1.453  1.00  0.00     0.039 A 
HETATM   30  C   UNL     1      41.182  -8.216  -0.465  1.00  0.00     0.026 A 
HETATM   31  C   UNL     1      40.820  -8.630   0.817  1.00  0.00     0.035 A 
HETATM   32 CL   UNL     1      40.504  -7.458   2.034  1.00  0.00    -0.084 Cl
HETATM   33  C   UNL     1      40.704  -9.986   1.120  1.00  0.00     0.039 A 
BRANCH  28  34
HETATM   34  O   UNL     1      41.719 -11.407  -2.147  1.00  0.00    -0.346 OA
BRANCH  34  35
HETATM   35  C   UNL     1      40.829 -11.263  -3.267  1.00  0.00     0.219 C 
BRANCH  35  36
HETATM   36  C   UNL     1      39.566 -12.037  -3.002  1.00  0.00     0.026 A 
HETATM   37  C   UNL     1      38.320 -11.420  -2.827  1.00  0.00     0.045 A 
HETATM   38 CL   UNL     1      38.141  -9.703  -2.859  1.00  0.00    -0.084 Cl
HETATM   39  C   UNL     1      37.165 -12.184  -2.621  1.00  0.00     0.024 A 
HETATM   40  C   UNL     1      37.236 -13.576  -2.587  1.00  0.00     0.005 A 
HETATM   41  C   UNL     1      38.467 -14.202  -2.739  1.00  0.00     0.043 A 
HETATM   42  C   UNL     1      39.613 -13.434  -2.931  1.00  0.00     0.126 A 
HETATM   43  F   UNL     1      40.792 -14.069  -3.021  1.00  0.00    -0.205 F 
ENDBRANCH  35  36
ENDBRANCH  34  35
ENDBRANCH  28  34
ENDBRANCH  26  27
ENDBRANCH   2  25
TORSDOF 12
ENDMDL
MODEL 7
REMARK VINA RESULT:      -8.1      7.973     10.621
REMARK  12 active torsions:
REMARK  status: ('A' for Active; 'I' for Inactive)
REMARK    1  A    between atoms: C_2  and  N_3 
REMARK    2  A    between atoms: N_3  and  C_5 
REMARK    3  A    between atoms: N_3  and  C_39 
REMARK    4  A    between atoms: C_5  and  C_6 
REMARK    5  A    between atoms: N_7  and  C_8 
REMARK    6  A    between atoms: C_12  and  N_13 
REMARK    7  A    between atoms: C_16  and  C_17 
REMARK       I    between atoms: C_17  and  N_18 
REMARK    8  A    between atoms: N_18  and  N_19 
REMARK    9  A    between atoms: C_20  and  C_21 
REMARK   10  A    between atoms: C_22  and  O_23 
REMARK   11  A    between atoms: O_23  and  C_24 
REMARK   12  A    between atoms: C_24  and  C_25 
ROOT
HETATM    1  C   UNL     1      45.289  -9.806   8.737  1.00  0.00     0.294 C 
HETATM    2  N   UNL     1      44.646  -9.864   7.514  1.00  0.00    -0.242 N 
HETATM    3  O   UNL     1      46.506  -9.659   8.796  1.00  0.00    -0.264 OA
HETATM    4  H   UNL     1      45.212  -9.637   6.700  1.00  0.00     0.192 HD
ENDROOT
BRANCH   1   5
HETATM    5  C   UNL     1      44.470  -9.924   9.935  1.00  0.00     0.176 C 
HETATM    6  C   UNL     1      43.570  -9.019  10.489  1.00  0.00     0.102 C 
HETATM    7  N   UNL     1      43.190  -9.627  11.689  1.00  0.00    -0.191 N 
HETATM    8  N   UNL     1      43.646 -10.906  11.689  1.00  0.00    -0.058 NA
HETATM    9  N   UNL     1      44.437 -11.084  10.649  1.00  0.00    -0.124 NA
BRANCH   6  10
HETATM   10  C   UNL     1      43.135  -7.694   9.993  1.00  0.00     0.296 C 
BRANCH  10  11
HETATM   11  N   UNL     1      42.069  -7.722   8.889  1.00  0.00    -0.066 N 
HETATM   12  H   UNL     1      42.346  -8.530   8.317  1.00  0.00     0.280 HD
BRANCH  11  13
HETATM   13  C   UNL     1      42.089  -6.519   7.971  1.00  0.00     0.231 C 
HETATM   14  C   UNL     1      41.833  -6.947   6.536  1.00  0.00     0.034 C 
ENDBRANCH  11  13
BRANCH  11  15
HETATM   15  C   UNL     1      40.688  -8.074   9.414  1.00  0.00     0.231 C 
HETATM   16  C   UNL     1      40.240  -7.094  10.484  1.00  0.00     0.034 C 
ENDBRANCH  11  15
ENDBRANCH  10  11
ENDBRANCH   6  10
BRANCH   7  17
HETATM   17  C   UNL     1      42.430  -9.125  12.772  1.00  0.00     0.229 A 
HETATM   18  N   UNL     1      42.866  -8.087  13.487  1.00  0.00    -0.081 NA
HETATM   19  O   UNL     1      41.874  -7.903  14.452  1.00  0.00    -0.103 OA
HETATM   20  N   UNL     1      40.837  -8.810  14.285  1.00  0.00    -0.083 NA
HETATM   21  C   UNL     1      41.184  -9.575  13.251  1.00  0.00     0.201 A 
BRANCH  21  22
HETATM   22  N   UNL     1      40.435 -10.573  12.755  1.00  0.00    -0.379 N 
HETATM   23  H   UNL     1      39.853 -11.125  13.380  1.00  0.00     0.158 HD
HETATM   24  H   UNL     1      40.648 -11.033  11.871  1.00  0.00     0.158 HD
ENDBRANCH  21  22
ENDBRANCH   7  17
ENDBRANCH   1   5
BRANCH   2  25
HETATM   25  N   UNL     1      43.345 -10.237   7.365  1.00  0.00    -0.183 NA
HETATM   26  C   UNL     1      43.096 -10.951   6.313  1.00  0.00     0.153 C 
BRANCH  26  27
HETATM   27  C   UNL     1      41.749 -11.489   6.063  1.00  0.00     0.018 A 
HETATM   28  C   UNL     1      41.505 -12.862   5.908  1.00  0.00     0.081 A 
HETATM   29  C   UNL     1      40.194 -13.319   5.753  1.00  0.00     0.039 A 
HETATM   30  C   UNL     1      39.139 -12.406   5.692  1.00  0.00     0.026 A 
HETATM   31  C   UNL     1      39.396 -11.039   5.798  1.00  0.00     0.035 A 
HETATM   32 CL   UNL     1      38.096  -9.917   5.709  1.00  0.00    -0.084 Cl
HETATM   33  C   UNL     1      40.697 -10.573   5.983  1.00  0.00     0.039 A 
BRANCH  28  34
HETATM   34  O   UNL     1      42.502 -13.806   5.881  1.00  0.00    -0.346 OA
BRANCH  34  35
HETATM   35  C   UNL     1      41.939 -15.117   6.059  1.00  0.00     0.219 C 
BRANCH  35  36
HETATM   36  C   UNL     1      42.489 -16.040   5.005  1.00  0.00     0.026 A 
HETATM   37  C   UNL     1      43.730 -16.682   5.130  1.00  0.00     0.045 A 
HETATM   38 CL   UNL     1      44.755 -16.426   6.495  1.00  0.00    -0.084 Cl
HETATM   39  C   UNL     1      44.182 -17.564   4.141  1.00  0.00     0.024 A 
HETATM   40  C   UNL     1      43.404 -17.820   3.013  1.00  0.00     0.005 A 
HETATM   41  C   UNL     1      42.180 -17.177   2.866  1.00  0.00     0.043 A 
HETATM   42  C   UNL     1      41.743 -16.291   3.848  1.00  0.00     0.126 A 
HETATM   43  F   UNL     1      40.582 -15.648   3.648  1.00  0.00    -0.205 F 
ENDBRANCH  35  36
ENDBRANCH  34  35
ENDBRANCH  28  34
ENDBRANCH  26  27
ENDBRANCH   2  25
TORSDOF 12
ENDMDL
MODEL 8
REMARK VINA RESULT:      -8.1      5.005      7.445
REMARK  12 active torsions:
REMARK  status: ('A' for Active; 'I' for Inactive)
REMARK    1  A    between atoms: C_2  and  N_3 
REMARK    2  A    between atoms: N_3  and  C_5 
REMARK    3  A    between atoms: N_3  and  C_39 
REMARK    4  A    between atoms: C_5  and  C_6 
REMARK    5  A    between atoms: N_7  and  C_8 
REMARK    6  A    between atoms: C_12  and  N_13 
REMARK    7  A    between atoms: C_16  and  C_17 
REMARK       I    between atoms: C_17  and  N_18 
REMARK    8  A    between atoms: N_18  and  N_19 
REMARK    9  A    between atoms: C_20  and  C_21 
REMARK   10  A    between atoms: C_22  and  O_23 
REMARK   11  A    between atoms: O_23  and  C_24 
REMARK   12  A    between atoms: C_24  and  C_25 
ROOT
HETATM    1  C   UNL     1      38.582  -9.918   4.914  1.00  0.00     0.294 C 
HETATM    2  N   UNL     1      38.124 -10.159   3.631  1.00  0.00    -0.242 N 
HETATM    3  O   UNL     1      37.945  -9.200   5.678  1.00  0.00    -0.264 OA
HETATM    4  H   UNL     1      37.185  -9.831   3.422  1.00  0.00     0.192 HD
ENDROOT
BRANCH   1   5
HETATM    5  C   UNL     1      39.832 -10.548   5.313  1.00  0.00     0.176 C 
HETATM    6  C   UNL     1      41.103  -9.997   5.446  1.00  0.00     0.102 C 
HETATM    7  N   UNL     1      41.912 -11.101   5.729  1.00  0.00    -0.191 N 
HETATM    8  N   UNL     1      41.112 -12.166   5.994  1.00  0.00    -0.058 NA
HETATM    9  N   UNL     1      39.862 -11.848   5.721  1.00  0.00    -0.124 NA
BRANCH   6  10
HETATM   10  C   UNL     1      41.547  -8.595   5.278  1.00  0.00     0.296 C 
BRANCH  10  11
HETATM   11  N   UNL     1      41.225  -7.658   6.450  1.00  0.00    -0.066 N 
HETATM   12  H   UNL     1      40.492  -8.167   6.962  1.00  0.00     0.280 HD
BRANCH  11  13
HETATM   13  C   UNL     1      40.622  -6.331   6.042  1.00  0.00     0.231 C 
HETATM   14  C   UNL     1      41.687  -5.249   6.031  1.00  0.00     0.034 C 
ENDBRANCH  11  13
BRANCH  11  15
HETATM   15  C   UNL     1      42.372  -7.535   7.438  1.00  0.00     0.231 C 
HETATM   16  C   UNL     1      42.091  -8.320   8.708  1.00  0.00     0.034 C 
ENDBRANCH  11  15
ENDBRANCH  10  11
ENDBRANCH   6  10
BRANCH   7  17
HETATM   17  C   UNL     1      43.321 -11.213   5.802  1.00  0.00     0.229 A 
HETATM   18  N   UNL     1      44.070 -11.110   4.704  1.00  0.00    -0.081 NA
HETATM   19  O   UNL     1      45.374 -11.285   5.169  1.00  0.00    -0.103 OA
HETATM   20  N   UNL     1      45.397 -11.457   6.546  1.00  0.00    -0.083 NA
HETATM   21  C   UNL     1      44.125 -11.422   6.939  1.00  0.00     0.201 A 
BRANCH  21  22
HETATM   22  N   UNL     1      43.717 -11.537   8.213  1.00  0.00    -0.379 N 
HETATM   23  H   UNL     1      42.885 -12.080   8.430  1.00  0.00     0.158 HD
HETATM   24  H   UNL     1      43.974 -10.864   8.934  1.00  0.00     0.158 HD
ENDBRANCH  21  22
ENDBRANCH   7  17
ENDBRANCH   1   5
BRANCH   2  25
HETATM   25  N   UNL     1      38.874 -10.761   2.667  1.00  0.00    -0.183 NA
HETATM   26  C   UNL     1      38.455 -11.928   2.294  1.00  0.00     0.153 C 
BRANCH  26  27
HETATM   27  C   UNL     1      39.121 -12.663   1.207  1.00  0.00     0.018 A 
HETATM   28  C   UNL     1      39.903 -13.804   1.440  1.00  0.00     0.081 A 
HETATM   29  C   UNL     1      40.445 -14.505   0.360  1.00  0.00     0.039 A 
HETATM   30  C   UNL     1      40.257 -14.035  -0.941  1.00  0.00     0.026 A 
HETATM   31  C   UNL     1      39.520 -12.872  -1.161  1.00  0.00     0.035 A 
HETATM   32 CL   UNL     1      39.302 -12.290  -2.764  1.00  0.00    -0.084 Cl
HETATM   33  C   UNL     1      38.949 -12.180  -0.094  1.00  0.00     0.039 A 
BRANCH  28  34
HETATM   34  O   UNL     1      40.192 -14.276   2.697  1.00  0.00    -0.346 OA
BRANCH  34  35
HETATM   35  C   UNL     1      40.318 -15.708   2.666  1.00  0.00     0.219 C 
BRANCH  35  36
HETATM   36  C   UNL     1      41.403 -16.131   3.619  1.00  0.00     0.026 A 
HETATM   37  C   UNL     1      42.725 -16.362   3.210  1.00  0.00     0.045 A 
HETATM   38 CL   UNL     1      43.206 -16.220   1.558  1.00  0.00    -0.084 Cl
HETATM   39  C   UNL     1      43.710 -16.717   4.140  1.00  0.00     0.024 A 
HETATM   40  C   UNL     1      43.392 -16.846   5.491  1.00  0.00     0.005 A 
HETATM   41  C   UNL     1      42.082 -16.639   5.909  1.00  0.00     0.043 A 
HETATM   42  C   UNL     1      41.105 -16.300   4.975  1.00  0.00     0.126 A 
HETATM   43  F   UNL     1      39.842 -16.159   5.405  1.00  0.00    -0.205 F 
ENDBRANCH  35  36
ENDBRANCH  34  35
ENDBRANCH  28  34
ENDBRANCH  26  27
ENDBRANCH   2  25
TORSDOF 12
ENDMDL
MODEL 9
REMARK VINA RESULT:      -8.0      6.745      9.661
REMARK  12 active torsions:
REMARK  status: ('A' for Active; 'I' for Inactive)
REMARK    1  A    between atoms: C_2  and  N_3 
REMARK    2  A    between atoms: N_3  and  C_5 
REMARK    3  A    between atoms: N_3  and  C_39 
REMARK    4  A    between atoms: C_5  and  C_6 
REMARK    5  A    between atoms: N_7  and  C_8 
REMARK    6  A    between atoms: C_12  and  N_13 
REMARK    7  A    between atoms: C_16  and  C_17 
REMARK       I    between atoms: C_17  and  N_18 
REMARK    8  A    between atoms: N_18  and  N_19 
REMARK    9  A    between atoms: C_20  and  C_21 
REMARK   10  A    between atoms: C_22  and  O_23 
REMARK   11  A    between atoms: O_23  and  C_24 
REMARK   12  A    between atoms: C_24  and  C_25 
ROOT
HETATM    1  C   UNL     1      38.894 -11.241   6.308  1.00  0.00     0.294 C 
HETATM    2  N   UNL     1      39.602 -10.077   6.545  1.00  0.00    -0.242 N 
HETATM    3  O   UNL     1      37.680 -11.279   6.484  1.00  0.00    -0.264 OA
HETATM    4  H   UNL     1      39.047  -9.245   6.727  1.00  0.00     0.192 HD
ENDROOT
BRANCH   1   5
HETATM    5  C   UNL     1      39.640 -12.402   5.844  1.00  0.00     0.176 C 
HETATM    6  C   UNL     1      40.210 -12.654   4.600  1.00  0.00     0.102 C 
HETATM    7  N   UNL     1      40.676 -13.967   4.712  1.00  0.00    -0.191 N 
HETATM    8  N   UNL     1      40.604 -14.341   6.016  1.00  0.00    -0.058 NA
HETATM    9  N   UNL     1      39.960 -13.415   6.698  1.00  0.00    -0.124 NA
BRANCH   6  10
HETATM   10  C   UNL     1      40.278 -11.791   3.400  1.00  0.00     0.296 C 
BRANCH  10  11
HETATM   11  N   UNL     1      41.388 -10.732   3.412  1.00  0.00    -0.066 N 
HETATM   12  H   UNL     1      41.654 -10.684   4.404  1.00  0.00     0.280 HD
BRANCH  11  13
HETATM   13  C   UNL     1      40.930  -9.342   3.024  1.00  0.00     0.231 C 
HETATM   14  C   UNL     1      40.677  -9.270   1.528  1.00  0.00     0.034 C 
ENDBRANCH  11  13
BRANCH  11  15
HETATM   15  C   UNL     1      42.645 -11.188   2.695  1.00  0.00     0.231 C 
HETATM   16  C   UNL     1      43.712 -11.631   3.682  1.00  0.00     0.034 C 
ENDBRANCH  11  15
ENDBRANCH  10  11
ENDBRANCH   6  10
BRANCH   7  17
HETATM   17  C   UNL     1      41.196 -14.844   3.731  1.00  0.00     0.229 A 
HETATM   18  N   UNL     1      42.492 -15.155   3.715  1.00  0.00    -0.081 NA
HETATM   19  O   UNL     1      42.619 -16.010   2.618  1.00  0.00    -0.103 OA
HETATM   20  N   UNL     1      41.392 -16.230   2.009  1.00  0.00    -0.083 NA
HETATM   21  C   UNL     1      40.511 -15.500   2.691  1.00  0.00     0.201 A 
BRANCH  21  22
HETATM   22  N   UNL     1      39.195 -15.450   2.426  1.00  0.00    -0.379 N 
HETATM   23  H   UNL     1      38.603 -16.243   2.658  1.00  0.00     0.158 HD
HETATM   24  H   UNL     1      38.801 -14.830   1.719  1.00  0.00     0.158 HD
ENDBRANCH  21  22
ENDBRANCH   7  17
ENDBRANCH   1   5
BRANCH   2  25
HETATM   25  N   UNL     1      40.962 -10.019   6.580  1.00  0.00    -0.183 NA
HETATM   26  C   UNL     1      41.460  -9.448   7.629  1.00  0.00     0.153 C 
BRANCH  26  27
HETATM   27  C   UNL     1      42.915  -9.380   7.839  1.00  0.00     0.018 A 
HETATM   28  C   UNL     1      43.512  -8.424   8.674  1.00  0.00     0.081 A 
HETATM   29  C   UNL     1      44.891  -8.461   8.896  1.00  0.00     0.039 A 
HETATM   30  C   UNL     1      45.677  -9.410   8.240  1.00  0.00     0.026 A 
HETATM   31  C   UNL     1      45.083 -10.326   7.372  1.00  0.00     0.035 A 
HETATM   32 CL   UNL     1      46.057 -11.484   6.556  1.00  0.00    -0.084 Cl
HETATM   33  C   UNL     1      43.704 -10.318   7.166  1.00  0.00     0.039 A 
BRANCH  28  34
HETATM   34  O   UNL     1      42.808  -7.417   9.289  1.00  0.00    -0.346 OA
BRANCH  34  35
HETATM   35  C   UNL     1      43.010  -7.477  10.711  1.00  0.00     0.219 C 
BRANCH  35  36
HETATM   36  C   UNL     1      41.833  -8.161  11.352  1.00  0.00     0.026 A 
HETATM   37  C   UNL     1      41.885  -9.483  11.817  1.00  0.00     0.045 A 
HETATM   38 CL   UNL     1      43.302 -10.454  11.649  1.00  0.00    -0.084 Cl
HETATM   39  C   UNL     1      40.775 -10.065  12.443  1.00  0.00     0.024 A 
HETATM   40  C   UNL     1      39.599  -9.337  12.615  1.00  0.00     0.005 A 
HETATM   41  C   UNL     1      39.526  -8.032  12.142  1.00  0.00     0.043 A 
HETATM   42  C   UNL     1      40.630  -7.465  11.509  1.00  0.00     0.126 A 
HETATM   43  F   UNL     1      40.507  -6.222  11.019  1.00  0.00    -0.205 F 
ENDBRANCH  35  36
ENDBRANCH  34  35
ENDBRANCH  28  34
ENDBRANCH  26  27
ENDBRANCH   2  25
TORSDOF 12
ENDMDL
MODEL 10
REMARK VINA RESULT:      -7.9      6.222      8.536
REMARK  12 active torsions:
REMARK  status: ('A' for Active; 'I' for Inactive)
REMARK    1  A    between atoms: C_2  and  N_3 
REMARK    2  A    between atoms: N_3  and  C_5 
REMARK    3  A    between atoms: N_3  and  C_39 
REMARK    4  A    between atoms: C_5  and  C_6 
REMARK    5  A    between atoms: N_7  and  C_8 
REMARK    6  A    between atoms: C_12  and  N_13 
REMARK    7  A    between atoms: C_16  and  C_17 
REMARK       I    between atoms: C_17  and  N_18 
REMARK    8  A    between atoms: N_18  and  N_19 
REMARK    9  A    between atoms: C_20  and  C_21 
REMARK   10  A    between atoms: C_22  and  O_23 
REMARK   11  A    between atoms: O_23  and  C_24 
REMARK   12  A    between atoms: C_24  and  C_25 
ROOT
HETATM    1  C   UNL     1      39.391 -10.591   7.134  1.00  0.00     0.294 C 
HETATM    2  N   UNL     1      38.810 -11.087   5.982  1.00  0.00    -0.242 N 
HETATM    3  O   UNL     1      38.698 -10.276   8.097  1.00  0.00    -0.264 OA
HETATM    4  H   UNL     1      37.817 -11.302   6.039  1.00  0.00     0.192 HD
ENDROOT
BRANCH   1   5
HETATM    5  C   UNL     1      40.842 -10.464   7.157  1.00  0.00     0.176 C 
HETATM    6  C   UNL     1      41.659  -9.745   8.023  1.00  0.00     0.102 C 
HETATM    7  N   UNL     1      42.936  -9.901   7.477  1.00  0.00    -0.191 N 
HETATM    8  N   UNL     1      42.879 -10.858   6.514  1.00  0.00    -0.058 NA
HETATM    9  N   UNL     1      41.620 -11.183   6.299  1.00  0.00    -0.124 NA
BRANCH   6  10
HETATM   10  C   UNL     1      41.299  -8.944   9.214  1.00  0.00     0.296 C 
BRANCH  10  11
HETATM   11  N   UNL     1      41.240  -9.720  10.537  1.00  0.00    -0.066 N 
HETATM   12  H   UNL     1      40.931 -10.656  10.245  1.00  0.00     0.280 HD
BRANCH  11  13
HETATM   13  C   UNL     1      40.204  -9.211  11.515  1.00  0.00     0.231 C 
HETATM   14  C   UNL     1      39.920 -10.260  12.576  1.00  0.00     0.034 C 
ENDBRANCH  11  13
BRANCH  11  15
HETATM   15  C   UNL     1      42.611  -9.939  11.151  1.00  0.00     0.231 C 
HETATM   16  C   UNL     1      43.200  -8.635  11.663  1.00  0.00     0.034 C 
ENDBRANCH  11  15
ENDBRANCH  10  11
ENDBRANCH   6  10
BRANCH   7  17
HETATM   17  C   UNL     1      44.159  -9.271   7.806  1.00  0.00     0.229 A 
HETATM   18  N   UNL     1      44.184  -7.997   8.199  1.00  0.00    -0.081 NA
HETATM   19  O   UNL     1      45.539  -7.738   8.412  1.00  0.00    -0.103 OA
HETATM   20  N   UNL     1      46.309  -8.868   8.179  1.00  0.00    -0.083 NA
HETATM   21  C   UNL     1      45.456  -9.816   7.794  1.00  0.00     0.201 A 
BRANCH  21  22
HETATM   22  N   UNL     1      45.806 -11.076   7.486  1.00  0.00    -0.379 N 
HETATM   23  H   UNL     1      46.497 -11.561   8.053  1.00  0.00     0.158 HD
HETATM   24  H   UNL     1      45.687 -11.467   6.552  1.00  0.00     0.158 HD
ENDBRANCH  21  22
ENDBRANCH   7  17
ENDBRANCH   1   5
BRANCH   2  25
HETATM   25  N   UNL     1      39.484 -11.252   4.811  1.00  0.00    -0.183 NA
HETATM   26  C   UNL     1      39.284 -12.386   4.218  1.00  0.00     0.153 C 
BRANCH  26  27
HETATM   27  C   UNL     1      39.888 -12.674   2.907  1.00  0.00     0.018 A 
HETATM   28  C   UNL     1      41.006 -13.509   2.760  1.00  0.00     0.081 A 
HETATM   29  C   UNL     1      41.485 -13.808   1.483  1.00  0.00     0.039 A 
HETATM   30  C   UNL     1      40.888 -13.229   0.361  1.00  0.00     0.026 A 
HETATM   31  C   UNL     1      39.807 -12.361   0.518  1.00  0.00     0.035 A 
HETATM   32 CL   UNL     1      39.083 -11.641  -0.864  1.00  0.00    -0.084 Cl
HETATM   33  C   UNL     1      39.302 -12.078   1.786  1.00  0.00     0.039 A 
BRANCH  28  34
HETATM   34  O   UNL     1      41.688 -14.048   3.824  1.00  0.00    -0.346 OA
BRANCH  34  35
HETATM   35  C   UNL     1      41.152 -15.343   4.143  1.00  0.00     0.219 C 
BRANCH  35  36
HETATM   36  C   UNL     1      42.217 -16.386   3.937  1.00  0.00     0.026 A 
HETATM   37  C   UNL     1      43.256 -16.601   4.853  1.00  0.00     0.045 A 
HETATM   38 CL   UNL     1      43.422 -15.647   6.283  1.00  0.00    -0.084 Cl
HETATM   39  C   UNL     1      44.203 -17.611   4.638  1.00  0.00     0.024 A 
HETATM   40  C   UNL     1      44.126 -18.421   3.507  1.00  0.00     0.005 A 
HETATM   41  C   UNL     1      43.113 -18.207   2.579  1.00  0.00     0.043 A 
HETATM   42  C   UNL     1      42.183 -17.192   2.794  1.00  0.00     0.126 A 
HETATM   43  F   UNL     1      41.251 -16.980   1.852  1.00  0.00    -0.205 F 
ENDBRANCH  35  36
ENDBRANCH  34  35
ENDBRANCH  28  34
ENDBRANCH  26  27
ENDBRANCH   2  25
TORSDOF 12
ENDMDL
