MODEL 1
REMARK VINA RESULT:      -9.4      0.000      0.000
REMARK  6 active torsions:
REMARK  status: ('A' for Active; 'I' for Inactive)
REMARK    1  A    between atoms: C_2  and  O_3 
REMARK    2  A    between atoms: C_2  and  C_4 
REMARK    3  A    between atoms: C_6  and  N_7 
REMARK       I    between atoms: N_7  and  C_8 
REMARK    4  A    between atoms: C_8  and  C_9 
REMARK    5  A    between atoms: C_12  and  C_13 
REMARK    6  A    between atoms: C_18  and  C_19 
ROOT
HETATM    1  C   UNL     1      41.136 -13.938   3.656  1.00  0.00     0.096 C 
HETATM    2  C   UNL     1      41.928 -15.007   4.036  1.00  0.00     0.138 C 
HETATM    3  N   UNL     1      42.459 -14.671   5.260  1.00  0.00    -0.240 N 
HETATM    4  C   UNL     1      43.406 -15.489   5.995  1.00  0.00     0.221 C 
HETATM    5  C   UNL     1      43.419 -16.928   5.446  1.00  0.00     0.067 C 
HETATM    6  C   UNL     1      43.428 -16.920   3.911  1.00  0.00     0.125 C 
HETATM    7  N   UNL     1      42.241 -16.189   3.434  1.00  0.00    -0.365 N 
HETATM    8  N   UNL     1      42.198 -13.405   5.621  1.00  0.00    -0.181 NA
HETATM    9  C   UNL     1      41.370 -12.973   4.665  1.00  0.00     0.160 C 
HETATM   10  H   UNL     1      42.177 -16.230   2.414  1.00  0.00     0.162 HD
ENDROOT
BRANCH   1  11
HETATM   11  C   UNL     1      40.301 -13.783   2.477  1.00  0.00     0.261 C 
HETATM   12  N   UNL     1      41.013 -13.845   1.295  1.00  0.00    -0.323 N 
HETATM   13  H   UNL     1      41.982 -14.128   1.387  1.00  0.00     0.169 HD
HETATM   14  O   UNL     1      39.088 -13.644   2.587  1.00  0.00    -0.267 OA
BRANCH  12  15
HETATM   15  C   UNL     1      40.544 -13.619  -0.013  1.00  0.00     0.035 A 
HETATM   16  C   UNL     1      39.634 -14.454  -0.667  1.00  0.00     0.039 A 
HETATM   17  C   UNL     1      39.176 -14.156  -1.964  1.00  0.00    -0.028 A 
HETATM   18  C   UNL     1      39.647 -12.998  -2.597  1.00  0.00     0.010 A 
HETATM   19  C   UNL     1      40.558 -12.163  -1.954  1.00  0.00     0.003 A 
HETATM   20  C   UNL     1      41.002 -12.470  -0.667  1.00  0.00     0.029 A 
BRANCH  17  21
HETATM   21  C   UNL     1      38.158 -15.065  -2.619  1.00  0.00     0.147 C 
HETATM   22  C   UNL     1      38.133 -14.872  -4.131  1.00  0.00     0.044 C 
BRANCH  21  23
HETATM   23  O   UNL     1      38.449 -16.433  -2.333  1.00  0.00    -0.391 OA
HETATM   24  H   UNL     1      39.380 -16.469  -2.057  1.00  0.00     0.210 HD
ENDBRANCH  21  23
ENDBRANCH  17  21
ENDBRANCH  12  15
ENDBRANCH   1  11
BRANCH   4  25
HETATM   25  C   UNL     1      43.098 -15.516   7.477  1.00  0.00     0.409 C 
HETATM   26  F   UNL     1      43.298 -14.315   8.065  1.00  0.00    -0.169 F 
HETATM   27  F   UNL     1      41.785 -15.823   7.661  1.00  0.00    -0.169 F 
HETATM   28  F   UNL     1      43.797 -16.445   8.159  1.00  0.00    -0.169 F 
ENDBRANCH   4  25
BRANCH   6  29
HETATM   29  C   UNL     1      43.480 -18.331   3.379  1.00  0.00     0.005 A 
HETATM   30  S   UNL     1      44.184 -19.581   4.321  1.00  0.00    -0.104 SA
HETATM   31  C   UNL     1      43.872 -20.754   3.119  1.00  0.00     0.050 A 
HETATM   32  C   UNL     1      43.244 -20.212   2.019  1.00  0.00     0.008 A 
HETATM   33  C   UNL     1      43.019 -18.815   2.169  1.00  0.00     0.017 A 
ENDBRANCH   6  29
TORSDOF 6
ENDMDL
MODEL 2
REMARK VINA RESULT:      -9.2      4.739      8.334
REMARK  6 active torsions:
REMARK  status: ('A' for Active; 'I' for Inactive)
REMARK    1  A    between atoms: C_2  and  O_3 
REMARK    2  A    between atoms: C_2  and  C_4 
REMARK    3  A    between atoms: C_6  and  N_7 
REMARK       I    between atoms: N_7  and  C_8 
REMARK    4  A    between atoms: C_8  and  C_9 
REMARK    5  A    between atoms: C_12  and  C_13 
REMARK    6  A    between atoms: C_18  and  C_19 
ROOT
HETATM    1  C   UNL     1      42.317 -12.772   5.105  1.00  0.00     0.096 C 
HETATM    2  C   UNL     1      42.158 -13.885   4.300  1.00  0.00     0.138 C 
HETATM    3  N   UNL     1      41.255 -13.523   3.326  1.00  0.00    -0.240 N 
HETATM    4  C   UNL     1      40.751 -14.420   2.302  1.00  0.00     0.221 C 
HETATM    5  C   UNL     1      41.644 -15.670   2.190  1.00  0.00     0.067 C 
HETATM    6  C   UNL     1      42.000 -16.206   3.584  1.00  0.00     0.125 C 
HETATM    7  N   UNL     1      42.683 -15.142   4.340  1.00  0.00    -0.365 N 
HETATM    8  N   UNL     1      40.701 -12.319   3.538  1.00  0.00    -0.181 NA
HETATM    9  C   UNL     1      41.368 -11.852   4.597  1.00  0.00     0.160 C 
HETATM   10  H   UNL     1      43.001 -15.490   5.248  1.00  0.00     0.162 HD
ENDROOT
BRANCH   1  11
HETATM   11  C   UNL     1      43.192 -12.580   6.249  1.00  0.00     0.261 C 
HETATM   12  N   UNL     1      43.020 -11.356   6.866  1.00  0.00    -0.323 N 
HETATM   13  H   UNL     1      42.225 -10.816   6.543  1.00  0.00     0.169 HD
HETATM   14  O   UNL     1      43.964 -13.465   6.599  1.00  0.00    -0.267 OA
BRANCH  12  15
HETATM   15  C   UNL     1      43.775 -10.799   7.917  1.00  0.00     0.035 A 
HETATM   16  C   UNL     1      43.410 -10.881   9.262  1.00  0.00     0.039 A 
HETATM   17  C   UNL     1      44.225 -10.334  10.272  1.00  0.00    -0.028 A 
HETATM   18  C   UNL     1      45.420  -9.701   9.905  1.00  0.00     0.010 A 
HETATM   19  C   UNL     1      45.789  -9.611   8.564  1.00  0.00     0.003 A 
HETATM   20  C   UNL     1      44.972 -10.161   7.575  1.00  0.00     0.029 A 
BRANCH  17  21
HETATM   21  C   UNL     1      43.813 -10.482  11.721  1.00  0.00     0.147 C 
HETATM   22  C   UNL     1      42.456  -9.838  11.980  1.00  0.00     0.044 C 
BRANCH  21  23
HETATM   23  O   UNL     1      43.747 -11.860  12.085  1.00  0.00    -0.391 OA
HETATM   24  H   UNL     1      44.011 -12.371  11.301  1.00  0.00     0.210 HD
ENDBRANCH  21  23
ENDBRANCH  17  21
ENDBRANCH  12  15
ENDBRANCH   1  11
BRANCH   4  25
HETATM   25  C   UNL     1      40.659 -13.742   0.952  1.00  0.00     0.409 C 
HETATM   26  F   UNL     1      41.682 -12.884   0.738  1.00  0.00    -0.169 F 
HETATM   27  F   UNL     1      40.729 -14.680  -0.031  1.00  0.00    -0.169 F 
HETATM   28  F   UNL     1      39.501 -13.081   0.755  1.00  0.00    -0.169 F 
ENDBRANCH   4  25
BRANCH   6  29
HETATM   29  C   UNL     1      42.842 -17.453   3.467  1.00  0.00     0.005 A 
HETATM   30  S   UNL     1      43.806 -17.967   4.789  1.00  0.00    -0.104 SA
HETATM   31  C   UNL     1      44.386 -19.323   3.925  1.00  0.00     0.050 A 
HETATM   32  C   UNL     1      43.859 -19.389   2.654  1.00  0.00     0.008 A 
HETATM   33  C   UNL     1      42.969 -18.310   2.390  1.00  0.00     0.017 A 
ENDBRANCH   6  29
TORSDOF 6
ENDMDL
MODEL 3
REMARK VINA RESULT:      -9.0      1.752      2.247
REMARK  6 active torsions:
REMARK  status: ('A' for Active; 'I' for Inactive)
REMARK    1  A    between atoms: C_2  and  O_3 
REMARK    2  A    between atoms: C_2  and  C_4 
REMARK    3  A    between atoms: C_6  and  N_7 
REMARK       I    between atoms: N_7  and  C_8 
REMARK    4  A    between atoms: C_8  and  C_9 
REMARK    5  A    between atoms: C_12  and  C_13 
REMARK    6  A    between atoms: C_18  and  C_19 
ROOT
HETATM    1  C   UNL     1      40.961 -14.579   2.463  1.00  0.00     0.096 C 
HETATM    2  C   UNL     1      41.822 -15.382   3.188  1.00  0.00     0.138 C 
HETATM    3  N   UNL     1      42.275 -14.607   4.232  1.00  0.00    -0.240 N 
HETATM    4  C   UNL     1      43.257 -15.042   5.209  1.00  0.00     0.221 C 
HETATM    5  C   UNL     1      43.409 -16.574   5.179  1.00  0.00     0.067 C 
HETATM    6  C   UNL     1      43.477 -17.082   3.732  1.00  0.00     0.125 C 
HETATM    7  N   UNL     1      42.254 -16.665   3.025  1.00  0.00    -0.365 N 
HETATM    8  N   UNL     1      41.898 -13.323   4.141  1.00  0.00    -0.181 NA
HETATM    9  C   UNL     1      41.075 -13.314   3.087  1.00  0.00     0.160 C 
HETATM   10  H   UNL     1      42.233 -17.052   2.079  1.00  0.00     0.162 HD
ENDROOT
BRANCH   1  11
HETATM   11  C   UNL     1      40.162 -14.906   1.293  1.00  0.00     0.261 C 
HETATM   12  N   UNL     1      40.066 -13.863   0.392  1.00  0.00    -0.323 N 
HETATM   13  H   UNL     1      40.667 -13.070   0.582  1.00  0.00     0.169 HD
HETATM   14  O   UNL     1      39.673 -16.022   1.165  1.00  0.00    -0.267 OA
BRANCH  12  15
HETATM   15  C   UNL     1      39.283 -13.795  -0.776  1.00  0.00     0.035 A 
HETATM   16  C   UNL     1      38.483 -12.700  -1.111  1.00  0.00     0.039 A 
HETATM   17  C   UNL     1      37.749 -12.676  -2.312  1.00  0.00    -0.028 A 
HETATM   18  C   UNL     1      37.834 -13.776  -3.177  1.00  0.00     0.010 A 
HETATM   19  C   UNL     1      38.626 -14.874  -2.848  1.00  0.00     0.003 A 
HETATM   20  C   UNL     1      39.350 -14.881  -1.655  1.00  0.00     0.029 A 
BRANCH  17  21
HETATM   21  C   UNL     1      36.927 -11.452  -2.657  1.00  0.00     0.147 C 
HETATM   22  C   UNL     1      37.816 -10.290  -3.084  1.00  0.00     0.044 C 
BRANCH  21  23
HETATM   23  O   UNL     1      36.010 -11.744  -3.710  1.00  0.00    -0.391 OA
HETATM   24  H   UNL     1      36.221 -12.639  -4.026  1.00  0.00     0.210 HD
ENDBRANCH  21  23
ENDBRANCH  17  21
ENDBRANCH  12  15
ENDBRANCH   1  11
BRANCH   4  25
HETATM   25  C   UNL     1      42.895 -14.596   6.609  1.00  0.00     0.409 C 
HETATM   26  F   UNL     1      41.560 -14.598   6.820  1.00  0.00    -0.169 F 
HETATM   27  F   UNL     1      43.430 -15.463   7.512  1.00  0.00    -0.169 F 
HETATM   28  F   UNL     1      43.376 -13.379   6.932  1.00  0.00    -0.169 F 
ENDBRANCH   4  25
BRANCH   6  29
HETATM   29  C   UNL     1      43.666 -18.579   3.710  1.00  0.00     0.005 A 
HETATM   30  S   UNL     1      43.990 -19.428   5.165  1.00  0.00    -0.104 SA
HETATM   31  C   UNL     1      44.060 -20.929   4.352  1.00  0.00     0.050 A 
HETATM   32  C   UNL     1      43.841 -20.795   2.999  1.00  0.00     0.008 A 
HETATM   33  C   UNL     1      43.614 -19.439   2.629  1.00  0.00     0.017 A 
ENDBRANCH   6  29
TORSDOF 6
ENDMDL
MODEL 4
REMARK VINA RESULT:      -8.4      4.565      7.879
REMARK  6 active torsions:
REMARK  status: ('A' for Active; 'I' for Inactive)
REMARK    1  A    between atoms: C_2  and  O_3 
REMARK    2  A    between atoms: C_2  and  C_4 
REMARK    3  A    between atoms: C_6  and  N_7 
REMARK       I    between atoms: N_7  and  C_8 
REMARK    4  A    between atoms: C_8  and  C_9 
REMARK    5  A    between atoms: C_12  and  C_13 
REMARK    6  A    between atoms: C_18  and  C_19 
ROOT
HETATM    1  C   UNL     1      39.939 -12.478   4.214  1.00  0.00     0.096 C 
HETATM    2  C   UNL     1      40.348 -13.577   3.480  1.00  0.00     0.138 C 
HETATM    3  N   UNL     1      39.762 -13.445   2.242  1.00  0.00    -0.240 N 
HETATM    4  C   UNL     1      39.876 -14.423   1.174  1.00  0.00     0.221 C 
HETATM    5  C   UNL     1      41.042 -15.391   1.448  1.00  0.00     0.067 C 
HETATM    6  C   UNL     1      41.036 -15.843   2.914  1.00  0.00     0.125 C 
HETATM    7  N   UNL     1      41.131 -14.652   3.777  1.00  0.00    -0.365 N 
HETATM    8  N   UNL     1      38.882 -12.435   2.177  1.00  0.00    -0.181 NA
HETATM    9  C   UNL     1      39.014 -11.831   3.361  1.00  0.00     0.160 C 
HETATM   10  H   UNL     1      41.206 -14.923   4.761  1.00  0.00     0.162 HD
ENDROOT
BRANCH   1  11
HETATM   11  C   UNL     1      40.303 -12.087   5.566  1.00  0.00     0.261 C 
HETATM   12  N   UNL     1      41.202 -11.038   5.604  1.00  0.00    -0.323 N 
HETATM   13  H   UNL     1      41.381 -10.588   4.714  1.00  0.00     0.169 HD
HETATM   14  O   UNL     1      39.804 -12.650   6.533  1.00  0.00    -0.267 OA
BRANCH  12  15
HETATM   15  C   UNL     1      41.849 -10.490   6.729  1.00  0.00     0.035 A 
HETATM   16  C   UNL     1      43.174 -10.768   7.073  1.00  0.00     0.039 A 
HETATM   17  C   UNL     1      43.777 -10.161   8.191  1.00  0.00    -0.028 A 
HETATM   18  C   UNL     1      43.023  -9.265   8.961  1.00  0.00     0.010 A 
HETATM   19  C   UNL     1      41.699  -8.987   8.627  1.00  0.00     0.003 A 
HETATM   20  C   UNL     1      41.116  -9.594   7.514  1.00  0.00     0.029 A 
BRANCH  17  21
HETATM   21  C   UNL     1      45.228 -10.456   8.504  1.00  0.00     0.147 C 
HETATM   22  C   UNL     1      46.124  -9.275   8.150  1.00  0.00     0.044 C 
BRANCH  21  23
HETATM   23  O   UNL     1      45.391 -10.760   9.889  1.00  0.00    -0.391 OA
HETATM   24  H   UNL     1      44.702 -10.267  10.367  1.00  0.00     0.210 HD
ENDBRANCH  21  23
ENDBRANCH  17  21
ENDBRANCH  12  15
ENDBRANCH   1  11
BRANCH   4  25
HETATM   25  C   UNL     1      40.071 -13.764  -0.175  1.00  0.00     0.409 C 
HETATM   26  F   UNL     1      40.997 -12.779  -0.137  1.00  0.00    -0.169 F 
HETATM   27  F   UNL     1      40.525 -14.686  -1.068  1.00  0.00    -0.169 F 
HETATM   28  F   UNL     1      38.937 -13.262  -0.703  1.00  0.00    -0.169 F 
ENDBRANCH   4  25
BRANCH   6  29
HETATM   29  C   UNL     1      42.156 -16.821   3.167  1.00  0.00     0.005 A 
HETATM   30  S   UNL     1      42.972 -16.826   4.676  1.00  0.00    -0.104 SA
HETATM   31  C   UNL     1      43.996 -18.105   4.193  1.00  0.00     0.050 A 
HETATM   32  C   UNL     1      43.728 -18.527   2.910  1.00  0.00     0.008 A 
HETATM   33  C   UNL     1      42.667 -17.785   2.317  1.00  0.00     0.017 A 
ENDBRANCH   6  29
TORSDOF 6
ENDMDL
MODEL 5
REMARK VINA RESULT:      -8.4      4.884      9.111
REMARK  6 active torsions:
REMARK  status: ('A' for Active; 'I' for Inactive)
REMARK    1  A    between atoms: C_2  and  O_3 
REMARK    2  A    between atoms: C_2  and  C_4 
REMARK    3  A    between atoms: C_6  and  N_7 
REMARK       I    between atoms: N_7  and  C_8 
REMARK    4  A    between atoms: C_8  and  C_9 
REMARK    5  A    between atoms: C_12  and  C_13 
REMARK    6  A    between atoms: C_18  and  C_19 
ROOT
HETATM    1  C   UNL     1      42.797 -13.090   5.088  1.00  0.00     0.096 C 
HETATM    2  C   UNL     1      42.257 -13.178   3.817  1.00  0.00     0.138 C 
HETATM    3  N   UNL     1      42.229 -14.518   3.508  1.00  0.00    -0.240 N 
HETATM    4  C   UNL     1      41.792 -15.056   2.232  1.00  0.00     0.221 C 
HETATM    5  C   UNL     1      40.994 -14.000   1.444  1.00  0.00     0.067 C 
HETATM    6  C   UNL     1      41.692 -12.634   1.513  1.00  0.00     0.125 C 
HETATM    7  N   UNL     1      41.825 -12.241   2.927  1.00  0.00    -0.365 N 
HETATM    8  N   UNL     1      42.856 -15.284   4.414  1.00  0.00    -0.181 NA
HETATM    9  C   UNL     1      43.171 -14.423   5.385  1.00  0.00     0.160 C 
HETATM   10  H   UNL     1      42.218 -11.300   3.005  1.00  0.00     0.162 HD
ENDROOT
BRANCH   1  11
HETATM   11  C   UNL     1      43.006 -11.918   5.922  1.00  0.00     0.261 C 
HETATM   12  N   UNL     1      44.149 -11.997   6.694  1.00  0.00    -0.323 N 
HETATM   13  H   UNL     1      44.762 -12.777   6.482  1.00  0.00     0.169 HD
HETATM   14  O   UNL     1      42.225 -10.975   5.877  1.00  0.00    -0.267 OA
BRANCH  12  15
HETATM   15  C   UNL     1      44.587 -11.103   7.689  1.00  0.00     0.035 A 
HETATM   16  C   UNL     1      43.981 -10.978   8.942  1.00  0.00     0.039 A 
HETATM   17  C   UNL     1      44.487 -10.091   9.910  1.00  0.00    -0.028 A 
HETATM   18  C   UNL     1      45.621  -9.327   9.598  1.00  0.00     0.010 A 
HETATM   19  C   UNL     1      46.229  -9.442   8.349  1.00  0.00     0.003 A 
HETATM   20  C   UNL     1      45.716 -10.329   7.401  1.00  0.00     0.029 A 
BRANCH  17  21
HETATM   21  C   UNL     1      43.826 -10.017  11.269  1.00  0.00     0.147 C 
HETATM   22  C   UNL     1      43.682  -8.574  11.739  1.00  0.00     0.044 C 
BRANCH  21  23
HETATM   23  O   UNL     1      42.533 -10.621  11.230  1.00  0.00    -0.391 OA
HETATM   24  H   UNL     1      42.655 -11.525  10.896  1.00  0.00     0.210 HD
ENDBRANCH  21  23
ENDBRANCH  17  21
ENDBRANCH  12  15
ENDBRANCH   1  11
BRANCH   4  25
HETATM   25  C   UNL     1      40.951 -16.302   2.403  1.00  0.00     0.409 C 
HETATM   26  F   UNL     1      40.186 -16.257   3.517  1.00  0.00    -0.169 F 
HETATM   27  F   UNL     1      40.095 -16.418   1.350  1.00  0.00    -0.169 F 
HETATM   28  F   UNL     1      41.669 -17.443   2.425  1.00  0.00    -0.169 F 
ENDBRANCH   4  25
BRANCH   6  29
HETATM   29  C   UNL     1      40.927 -11.613   0.707  1.00  0.00     0.005 A 
HETATM   30  S   UNL     1      41.358  -9.955   0.786  1.00  0.00    -0.104 SA
HETATM   31  C   UNL     1      40.126  -9.514  -0.313  1.00  0.00     0.050 A 
HETATM   32  C   UNL     1      39.397 -10.602  -0.736  1.00  0.00     0.008 A 
HETATM   33  C   UNL     1      39.858 -11.814  -0.147  1.00  0.00     0.017 A 
ENDBRANCH   6  29
TORSDOF 6
ENDMDL
MODEL 6
REMARK VINA RESULT:      -8.3      5.063      8.703
REMARK  6 active torsions:
REMARK  status: ('A' for Active; 'I' for Inactive)
REMARK    1  A    between atoms: C_2  and  O_3 
REMARK    2  A    between atoms: C_2  and  C_4 
REMARK    3  A    between atoms: C_6  and  N_7 
REMARK       I    between atoms: N_7  and  C_8 
REMARK    4  A    between atoms: C_8  and  C_9 
REMARK    5  A    between atoms: C_12  and  C_13 
REMARK    6  A    between atoms: C_18  and  C_19 
ROOT
HETATM    1  C   UNL     1      40.175 -14.438   0.867  1.00  0.00     0.096 C 
HETATM    2  C   UNL     1      39.683 -13.151   0.991  1.00  0.00     0.138 C 
HETATM    3  N   UNL     1      39.380 -12.735  -0.285  1.00  0.00    -0.240 N 
HETATM    4  C   UNL     1      38.893 -11.409  -0.620  1.00  0.00     0.221 C 
HETATM    5  C   UNL     1      38.375 -10.688   0.639  1.00  0.00     0.067 C 
HETATM    6  C   UNL     1      39.346 -10.884   1.811  1.00  0.00     0.125 C 
HETATM    7  N   UNL     1      39.500 -12.328   2.062  1.00  0.00    -0.365 N 
HETATM    8  N   UNL     1      39.789 -13.592  -1.233  1.00  0.00    -0.181 NA
HETATM    9  C   UNL     1      40.241 -14.637  -0.533  1.00  0.00     0.160 C 
HETATM   10  H   UNL     1      40.083 -12.491   2.887  1.00  0.00     0.162 HD
ENDROOT
BRANCH   1  11
HETATM   11  C   UNL     1      40.595 -15.368   1.901  1.00  0.00     0.261 C 
HETATM   12  N   UNL     1      41.950 -15.635   1.874  1.00  0.00    -0.323 N 
HETATM   13  H   UNL     1      42.494 -15.054   1.246  1.00  0.00     0.169 HD
HETATM   14  O   UNL     1      39.784 -15.813   2.705  1.00  0.00    -0.267 OA
BRANCH  12  15
HETATM   15  C   UNL     1      42.667 -16.569   2.647  1.00  0.00     0.035 A 
HETATM   16  C   UNL     1      42.871 -17.898   2.266  1.00  0.00     0.039 A 
HETATM   17  C   UNL     1      43.627 -18.775   3.066  1.00  0.00    -0.028 A 
HETATM   18  C   UNL     1      44.178 -18.294   4.261  1.00  0.00     0.010 A 
HETATM   19  C   UNL     1      43.975 -16.971   4.651  1.00  0.00     0.003 A 
HETATM   20  C   UNL     1      43.226 -16.112   3.845  1.00  0.00     0.029 A 
BRANCH  17  21
HETATM   21  C   UNL     1      43.860 -20.195   2.595  1.00  0.00     0.147 C 
HETATM   22  C   UNL     1      43.893 -21.170   3.767  1.00  0.00     0.044 C 
BRANCH  21  23
HETATM   23  O   UNL     1      42.833 -20.597   1.689  1.00  0.00    -0.391 OA
HETATM   24  H   UNL     1      43.113 -21.446   1.307  1.00  0.00     0.210 HD
ENDBRANCH  21  23
ENDBRANCH  17  21
ENDBRANCH  12  15
ENDBRANCH   1  11
BRANCH   4  25
HETATM   25  C   UNL     1      37.797 -11.457  -1.662  1.00  0.00     0.409 C 
HETATM   26  F   UNL     1      36.894 -10.463  -1.505  1.00  0.00    -0.169 F 
HETATM   27  F   UNL     1      38.341 -11.293  -2.899  1.00  0.00    -0.169 F 
HETATM   28  F   UNL     1      37.136 -12.631  -1.700  1.00  0.00    -0.169 F 
ENDBRANCH   4  25
BRANCH   6  29
HETATM   29  C   UNL     1      38.853 -10.143   3.030  1.00  0.00     0.005 A 
HETATM   30  S   UNL     1      38.191  -8.569   2.871  1.00  0.00    -0.104 SA
HETATM   31  C   UNL     1      37.901  -8.449   4.551  1.00  0.00     0.050 A 
HETATM   32  C   UNL     1      38.297  -9.582   5.226  1.00  0.00     0.008 A 
HETATM   33  C   UNL     1      38.847 -10.559   4.349  1.00  0.00     0.017 A 
ENDBRANCH   6  29
TORSDOF 6
ENDMDL
MODEL 7
REMARK VINA RESULT:      -8.1      3.192      4.948
REMARK  6 active torsions:
REMARK  status: ('A' for Active; 'I' for Inactive)
REMARK    1  A    between atoms: C_2  and  O_3 
REMARK    2  A    between atoms: C_2  and  C_4 
REMARK    3  A    between atoms: C_6  and  N_7 
REMARK       I    between atoms: N_7  and  C_8 
REMARK    4  A    between atoms: C_8  and  C_9 
REMARK    5  A    between atoms: C_12  and  C_13 
REMARK    6  A    between atoms: C_18  and  C_19 
ROOT
HETATM    1  C   UNL     1      41.731 -13.964   3.231  1.00  0.00     0.096 C 
HETATM    2  C   UNL     1      42.442 -13.832   4.410  1.00  0.00     0.138 C 
HETATM    3  N   UNL     1      42.542 -15.099   4.937  1.00  0.00    -0.240 N 
HETATM    4  C   UNL     1      43.162 -15.408   6.214  1.00  0.00     0.221 C 
HETATM    5  C   UNL     1      44.036 -14.234   6.690  1.00  0.00     0.067 C 
HETATM    6  C   UNL     1      43.306 -12.899   6.486  1.00  0.00     0.125 C 
HETATM    7  N   UNL     1      42.971 -12.756   5.058  1.00  0.00    -0.365 N 
HETATM    8  N   UNL     1      41.814 -16.009   4.273  1.00  0.00    -0.181 NA
HETATM    9  C   UNL     1      41.349 -15.327   3.222  1.00  0.00     0.160 C 
HETATM   10  H   UNL     1      42.550 -11.842   4.875  1.00  0.00     0.162 HD
ENDROOT
BRANCH   1  11
HETATM   11  C   UNL     1      41.384 -12.954   2.246  1.00  0.00     0.261 C 
HETATM   12  N   UNL     1      40.298 -13.304   1.467  1.00  0.00    -0.323 N 
HETATM   13  H   UNL     1      39.800 -14.135   1.767  1.00  0.00     0.169 HD
HETATM   14  O   UNL     1      42.013 -11.904   2.182  1.00  0.00    -0.267 OA
BRANCH  12  15
HETATM   15  C   UNL     1      39.771 -12.622   0.354  1.00  0.00     0.035 A 
HETATM   16  C   UNL     1      40.391 -12.588  -0.898  1.00  0.00     0.039 A 
HETATM   17  C   UNL     1      39.797 -11.917  -1.985  1.00  0.00    -0.028 A 
HETATM   18  C   UNL     1      38.564 -11.279  -1.792  1.00  0.00     0.010 A 
HETATM   19  C   UNL     1      37.943 -11.305  -0.545  1.00  0.00     0.003 A 
HETATM   20  C   UNL     1      38.542 -11.976   0.522  1.00  0.00     0.029 A 
BRANCH  17  21
HETATM   21  C   UNL     1      40.480 -11.940  -3.335  1.00  0.00     0.147 C 
HETATM   22  C   UNL     1      41.062 -10.575  -3.686  1.00  0.00     0.044 C 
BRANCH  21  23
HETATM   23  O   UNL     1      41.530 -12.906  -3.349  1.00  0.00    -0.391 OA
HETATM   24  H   UNL     1      41.664 -13.189  -2.429  1.00  0.00     0.210 HD
ENDBRANCH  21  23
ENDBRANCH  17  21
ENDBRANCH  12  15
ENDBRANCH   1  11
BRANCH   4  25
HETATM   25  C   UNL     1      43.999 -16.667   6.144  1.00  0.00     0.409 C 
HETATM   26  F   UNL     1      44.508 -16.878   4.909  1.00  0.00    -0.169 F 
HETATM   27  F   UNL     1      45.062 -16.551   6.986  1.00  0.00    -0.169 F 
HETATM   28  F   UNL     1      43.340 -17.779   6.528  1.00  0.00    -0.169 F 
ENDBRANCH   4  25
BRANCH   6  29
HETATM   29  C   UNL     1      44.152 -11.756   6.991  1.00  0.00     0.005 A 
HETATM   30  S   UNL     1      43.416 -10.427   7.786  1.00  0.00    -0.104 SA
HETATM   31  C   UNL     1      44.919  -9.649   8.019  1.00  0.00     0.050 A 
HETATM   32  C   UNL     1      45.966 -10.381   7.505  1.00  0.00     0.008 A 
HETATM   33  C   UNL     1      45.523 -11.596   6.910  1.00  0.00     0.017 A 
ENDBRANCH   6  29
TORSDOF 6
ENDMDL
MODEL 8
REMARK VINA RESULT:      -8.0      2.879      4.900
REMARK  6 active torsions:
REMARK  status: ('A' for Active; 'I' for Inactive)
REMARK    1  A    between atoms: C_2  and  O_3 
REMARK    2  A    between atoms: C_2  and  C_4 
REMARK    3  A    between atoms: C_6  and  N_7 
REMARK       I    between atoms: N_7  and  C_8 
REMARK    4  A    between atoms: C_8  and  C_9 
REMARK    5  A    between atoms: C_12  and  C_13 
REMARK    6  A    between atoms: C_18  and  C_19 
ROOT
HETATM    1  C   UNL     1      41.395 -14.848   2.943  1.00  0.00     0.096 C 
HETATM    2  C   UNL     1      42.038 -14.529   4.125  1.00  0.00     0.138 C 
HETATM    3  N   UNL     1      42.433 -15.725   4.677  1.00  0.00    -0.240 N 
HETATM    4  C   UNL     1      43.093 -15.855   5.965  1.00  0.00     0.221 C 
HETATM    5  C   UNL     1      43.654 -14.497   6.425  1.00  0.00     0.067 C 
HETATM    6  C   UNL     1      42.627 -13.381   6.189  1.00  0.00     0.125 C 
HETATM    7  N   UNL     1      42.286 -13.346   4.756  1.00  0.00    -0.365 N 
HETATM    8  N   UNL     1      41.953 -16.795   4.024  1.00  0.00    -0.181 NA
HETATM    9  C   UNL     1      41.352 -16.263   2.956  1.00  0.00     0.160 C 
HETATM   10  H   UNL     1      41.660 -12.563   4.552  1.00  0.00     0.162 HD
ENDROOT
BRANCH   1  11
HETATM   11  C   UNL     1      40.828 -13.967   1.935  1.00  0.00     0.261 C 
HETATM   12  N   UNL     1      40.665 -14.580   0.708  1.00  0.00    -0.323 N 
HETATM   13  H   UNL     1      40.821 -15.581   0.699  1.00  0.00     0.169 HD
HETATM   14  O   UNL     1      40.519 -12.816   2.217  1.00  0.00    -0.267 OA
BRANCH  12  15
HETATM   15  C   UNL     1      40.259 -13.995  -0.507  1.00  0.00     0.035 A 
HETATM   16  C   UNL     1      40.761 -12.785  -0.992  1.00  0.00     0.039 A 
HETATM   17  C   UNL     1      40.340 -12.268  -2.232  1.00  0.00    -0.028 A 
HETATM   18  C   UNL     1      39.404 -12.992  -2.982  1.00  0.00     0.010 A 
HETATM   19  C   UNL     1      38.894 -14.197  -2.504  1.00  0.00     0.003 A 
HETATM   20  C   UNL     1      39.323 -14.698  -1.273  1.00  0.00     0.029 A 
BRANCH  17  21
HETATM   21  C   UNL     1      40.941 -10.975  -2.740  1.00  0.00     0.147 C 
HETATM   22  C   UNL     1      39.871 -10.056  -3.320  1.00  0.00     0.044 C 
BRANCH  21  23
HETATM   23  O   UNL     1      41.618 -10.289  -1.687  1.00  0.00    -0.391 OA
HETATM   24  H   UNL     1      42.563 -10.292  -1.913  1.00  0.00     0.210 HD
ENDBRANCH  21  23
ENDBRANCH  17  21
ENDBRANCH  12  15
ENDBRANCH   1  11
BRANCH   4  25
HETATM   25  C   UNL     1      44.209 -16.877   5.926  1.00  0.00     0.409 C 
HETATM   26  F   UNL     1      45.244 -16.538   6.728  1.00  0.00    -0.169 F 
HETATM   27  F   UNL     1      43.744 -18.073   6.380  1.00  0.00    -0.169 F 
HETATM   28  F   UNL     1      44.689 -17.109   4.688  1.00  0.00    -0.169 F 
ENDBRANCH   4  25
BRANCH   6  29
HETATM   29  C   UNL     1      43.167 -12.059   6.678  1.00  0.00     0.005 A 
HETATM   30  S   UNL     1      42.191 -10.650   6.605  1.00  0.00    -0.104 SA
HETATM   31  C   UNL     1      43.422  -9.682   7.287  1.00  0.00     0.050 A 
HETATM   32  C   UNL     1      44.557 -10.409   7.568  1.00  0.00     0.008 A 
HETATM   33  C   UNL     1      44.410 -11.781   7.216  1.00  0.00     0.017 A 
ENDBRANCH   6  29
TORSDOF 6
ENDMDL
MODEL 9
REMARK VINA RESULT:      -7.9     15.008     17.499
REMARK  6 active torsions:
REMARK  status: ('A' for Active; 'I' for Inactive)
REMARK    1  A    between atoms: C_2  and  O_3 
REMARK    2  A    between atoms: C_2  and  C_4 
REMARK    3  A    between atoms: C_6  and  N_7 
REMARK       I    between atoms: N_7  and  C_8 
REMARK    4  A    between atoms: C_8  and  C_9 
REMARK    5  A    between atoms: C_12  and  C_13 
REMARK    6  A    between atoms: C_18  and  C_19 
ROOT
HETATM    1  C   UNL     1      47.283 -28.468   0.614  1.00  0.00     0.096 C 
HETATM    2  C   UNL     1      46.035 -28.907   0.212  1.00  0.00     0.138 C 
HETATM    3  N   UNL     1      45.897 -28.512  -1.099  1.00  0.00    -0.240 N 
HETATM    4  C   UNL     1      44.699 -28.714  -1.894  1.00  0.00     0.221 C 
HETATM    5  C   UNL     1      43.785 -29.766  -1.239  1.00  0.00     0.067 C 
HETATM    6  C   UNL     1      43.680 -29.523   0.273  1.00  0.00     0.125 C 
HETATM    7  N   UNL     1      45.033 -29.570   0.856  1.00  0.00    -0.365 N 
HETATM    8  N   UNL     1      46.892 -27.716  -1.519  1.00  0.00    -0.181 NA
HETATM    9  C   UNL     1      47.747 -27.716  -0.492  1.00  0.00     0.160 C 
HETATM   10  H   UNL     1      44.991 -29.487   1.874  1.00  0.00     0.162 HD
ENDROOT
BRANCH   1  11
HETATM   11  C   UNL     1      47.962 -28.660   1.885  1.00  0.00     0.261 C 
HETATM   12  N   UNL     1      48.526 -29.915   2.015  1.00  0.00    -0.323 N 
HETATM   13  H   UNL     1      48.522 -30.481   1.174  1.00  0.00     0.169 HD
HETATM   14  O   UNL     1      48.019 -27.751   2.704  1.00  0.00    -0.267 OA
BRANCH  12  15
HETATM   15  C   UNL     1      49.148 -30.473   3.148  1.00  0.00     0.035 A 
HETATM   16  C   UNL     1      48.486 -31.277   4.080  1.00  0.00     0.039 A 
HETATM   17  C   UNL     1      49.172 -31.836   5.175  1.00  0.00    -0.028 A 
HETATM   18  C   UNL     1      50.542 -31.574   5.318  1.00  0.00     0.010 A 
HETATM   19  C   UNL     1      51.208 -30.770   4.396  1.00  0.00     0.003 A 
HETATM   20  C   UNL     1      50.515 -30.226   3.314  1.00  0.00     0.029 A 
BRANCH  17  21
HETATM   21  C   UNL     1      48.427 -32.735   6.138  1.00  0.00     0.147 C 
HETATM   22  C   UNL     1      49.319 -33.169   7.295  1.00  0.00     0.044 C 
BRANCH  21  23
HETATM   23  O   UNL     1      47.281 -32.065   6.664  1.00  0.00    -0.391 OA
HETATM   24  H   UNL     1      47.543 -31.143   6.822  1.00  0.00     0.210 HD
ENDBRANCH  21  23
ENDBRANCH  17  21
ENDBRANCH  12  15
ENDBRANCH   1  11
BRANCH   4  25
HETATM   25  C   UNL     1      45.027 -29.140  -3.309  1.00  0.00     0.409 C 
HETATM   26  F   UNL     1      46.017 -30.059  -3.354  1.00  0.00    -0.169 F 
HETATM   27  F   UNL     1      43.933 -29.723  -3.871  1.00  0.00    -0.169 F 
HETATM   28  F   UNL     1      45.360 -28.116  -4.120  1.00  0.00    -0.169 F 
ENDBRANCH   4  25
BRANCH   6  29
HETATM   29  C   UNL     1      42.753 -30.532   0.904  1.00  0.00     0.005 A 
HETATM   30  S   UNL     1      42.937 -32.203   0.562  1.00  0.00    -0.104 SA
HETATM   31  C   UNL     1      41.625 -32.622   1.573  1.00  0.00     0.050 A 
HETATM   32  C   UNL     1      41.053 -31.517   2.162  1.00  0.00     0.008 A 
HETATM   33  C   UNL     1      41.702 -30.311   1.776  1.00  0.00     0.017 A 
ENDBRANCH   6  29
TORSDOF 6
ENDMDL
MODEL 10
REMARK VINA RESULT:      -7.9      4.957      8.894
REMARK  6 active torsions:
REMARK  status: ('A' for Active; 'I' for Inactive)
REMARK    1  A    between atoms: C_2  and  O_3 
REMARK    2  A    between atoms: C_2  and  C_4 
REMARK    3  A    between atoms: C_6  and  N_7 
REMARK       I    between atoms: N_7  and  C_8 
REMARK    4  A    between atoms: C_8  and  C_9 
REMARK    5  A    between atoms: C_12  and  C_13 
REMARK    6  A    between atoms: C_18  and  C_19 
ROOT
HETATM    1  C   UNL     1      40.183 -14.550   0.920  1.00  0.00     0.096 C 
HETATM    2  C   UNL     1      39.832 -13.213   0.977  1.00  0.00     0.138 C 
HETATM    3  N   UNL     1      39.452 -12.867  -0.299  1.00  0.00    -0.240 N 
HETATM    4  C   UNL     1      39.066 -11.526  -0.703  1.00  0.00     0.221 C 
HETATM    5  C   UNL     1      38.743 -10.661   0.529  1.00  0.00     0.067 C 
HETATM    6  C   UNL     1      39.797 -10.867   1.625  1.00  0.00     0.125 C 
HETATM    7  N   UNL     1      39.834 -12.296   1.985  1.00  0.00    -0.365 N 
HETATM    8  N   UNL     1      39.683 -13.832  -1.202  1.00  0.00    -0.181 NA
HETATM    9  C   UNL     1      40.095 -14.862  -0.458  1.00  0.00     0.160 C 
HETATM   10  H   UNL     1      40.473 -12.456   2.767  1.00  0.00     0.162 HD
ENDROOT
BRANCH   1  11
HETATM   11  C   UNL     1      40.606 -15.438   1.991  1.00  0.00     0.261 C 
HETATM   12  N   UNL     1      41.970 -15.661   2.003  1.00  0.00    -0.323 N 
HETATM   13  H   UNL     1      42.510 -15.080   1.372  1.00  0.00     0.169 HD
HETATM   14  O   UNL     1      39.791 -15.886   2.787  1.00  0.00    -0.267 OA
BRANCH  12  15
HETATM   15  C   UNL     1      42.696 -16.550   2.819  1.00  0.00     0.035 A 
HETATM   16  C   UNL     1      43.072 -16.265   4.134  1.00  0.00     0.039 A 
HETATM   17  C   UNL     1      43.768 -17.209   4.912  1.00  0.00    -0.028 A 
HETATM   18  C   UNL     1      44.081 -18.452   4.345  1.00  0.00     0.010 A 
HETATM   19  C   UNL     1      43.714 -18.742   3.032  1.00  0.00     0.003 A 
HETATM   20  C   UNL     1      43.022 -17.796   2.274  1.00  0.00     0.029 A 
BRANCH  17  21
HETATM   21  C   UNL     1      44.119 -16.876   6.347  1.00  0.00     0.147 C 
HETATM   22  C   UNL     1      44.004 -15.380   6.613  1.00  0.00     0.044 C 
BRANCH  21  23
HETATM   23  O   UNL     1      43.258 -17.573   7.248  1.00  0.00    -0.391 OA
HETATM   24  H   UNL     1      43.485 -17.270   8.143  1.00  0.00     0.210 HD
ENDBRANCH  21  23
ENDBRANCH  17  21
ENDBRANCH  12  15
ENDBRANCH   1  11
BRANCH   4  25
HETATM   25  C   UNL     1      37.877 -11.539  -1.639  1.00  0.00     0.409 C 
HETATM   26  F   UNL     1      37.105 -12.637  -1.474  1.00  0.00    -0.169 F 
HETATM   27  F   UNL     1      37.082 -10.465  -1.375  1.00  0.00    -0.169 F 
HETATM   28  F   UNL     1      38.210 -11.444  -2.942  1.00  0.00    -0.169 F 
ENDBRANCH   4  25
BRANCH   6  29
HETATM   29  C   UNL     1      39.497  -9.988   2.814  1.00  0.00     0.005 A 
HETATM   30  S   UNL     1      40.323  -8.497   3.012  1.00  0.00    -0.104 SA
HETATM   31  C   UNL     1      39.484  -8.149   4.460  1.00  0.00     0.050 A 
HETATM   32  C   UNL     1      38.591  -9.143   4.792  1.00  0.00     0.008 A 
HETATM   33  C   UNL     1      38.599 -10.205   3.843  1.00  0.00     0.017 A 
ENDBRANCH   6  29
TORSDOF 6
ENDMDL
