MODEL 1
REMARK VINA RESULT:      -8.7      0.000      0.000
REMARK  3 active torsions:
REMARK  status: ('A' for Active; 'I' for Inactive)
REMARK    1  A    between atoms: C_9  and  C_10 
REMARK    2  A    between atoms: C_10  and  C_11 
REMARK       I    between atoms: C_11  and  N_12 
REMARK    3  A    between atoms: N_12  and  C_13 
ROOT
HETATM    1  C   UNL     1      43.602 -19.963   2.577  1.00  0.00     0.001 A 
HETATM    2  C   UNL     1      43.304 -18.636   2.254  1.00  0.00     0.014 A 
HETATM    3  C   UNL     1      43.377 -17.642   3.240  1.00  0.00     0.006 A 
HETATM    4  C   UNL     1      43.734 -17.995   4.541  1.00  0.00     0.046 A 
HETATM    5  C   UNL     1      43.782 -16.952   5.578  1.00  0.00     0.272 A 
HETATM    6  O   UNL     1      44.090 -17.214   6.735  1.00  0.00    -0.266 OA
HETATM    7  N   UNL     1      43.458 -15.682   5.171  1.00  0.00    -0.243 N 
HETATM    8  N   UNL     1      43.127 -15.305   3.909  1.00  0.00    -0.175 NA
HETATM    9  C   UNL     1      43.091 -16.206   2.974  1.00  0.00     0.074 A 
HETATM   10  C   UNL     1      44.032 -19.324   4.863  1.00  0.00     0.018 A 
HETATM   11  C   UNL     1      43.969 -20.306   3.878  1.00  0.00     0.001 A 
HETATM   12  H   UNL     1      43.479 -14.952   5.879  1.00  0.00     0.192 HD
ENDROOT
BRANCH   9  13
HETATM   13  C   UNL     1      42.741 -15.790   1.559  1.00  0.00     0.165 C 
BRANCH  13  14
HETATM   14  C   UNL     1      41.349 -15.296   1.213  1.00  0.00     0.228 C 
HETATM   15  N   UNL     1      41.267 -14.347   0.220  1.00  0.00    -0.326 N 
HETATM   16  H   UNL     1      42.145 -13.894  -0.042  1.00  0.00     0.169 HD
HETATM   17  O   UNL     1      40.389 -15.823   1.774  1.00  0.00    -0.273 OA
BRANCH  15  18
HETATM   18  C   UNL     1      40.110 -13.807  -0.394  1.00  0.00     0.052 A 
HETATM   19  C   UNL     1      39.572 -12.605   0.102  1.00  0.00     0.037 A 
HETATM   20 BR   UNL     1      40.354 -11.687   1.575  1.00  0.00    -0.049 Br
HETATM   21  C   UNL     1      38.435 -12.028  -0.476  1.00  0.00     0.021 A 
HETATM   22  C   UNL     1      37.821 -12.644  -1.564  1.00  0.00     0.002 A 
HETATM   23  C   UNL     1      38.345 -13.830  -2.069  1.00  0.00     0.002 A 
HETATM   24  C   UNL     1      39.481 -14.406  -1.490  1.00  0.00     0.031 A 
ENDBRANCH  15  18
ENDBRANCH  13  14
ENDBRANCH   9  13
TORSDOF 3
ENDMDL
MODEL 2
REMARK VINA RESULT:      -8.2      4.796      6.847
REMARK  3 active torsions:
REMARK  status: ('A' for Active; 'I' for Inactive)
REMARK    1  A    between atoms: C_9  and  C_10 
REMARK    2  A    between atoms: C_10  and  C_11 
REMARK       I    between atoms: C_11  and  N_12 
REMARK    3  A    between atoms: N_12  and  C_13 
ROOT
HETATM    1  C   UNL     1      43.121 -16.387   2.370  1.00  0.00     0.001 A 
HETATM    2  C   UNL     1      42.718 -15.477   3.352  1.00  0.00     0.014 A 
HETATM    3  C   UNL     1      42.717 -15.857   4.701  1.00  0.00     0.006 A 
HETATM    4  C   UNL     1      43.107 -17.149   5.047  1.00  0.00     0.046 A 
HETATM    5  C   UNL     1      43.079 -17.551   6.462  1.00  0.00     0.272 A 
HETATM    6  O   UNL     1      43.413 -18.677   6.815  1.00  0.00    -0.266 OA
HETATM    7  N   UNL     1      42.654 -16.596   7.351  1.00  0.00    -0.243 N 
HETATM    8  N   UNL     1      42.289 -15.324   7.048  1.00  0.00    -0.175 NA
HETATM    9  C   UNL     1      42.319 -14.942   5.805  1.00  0.00     0.074 A 
HETATM   10  C   UNL     1      43.511 -18.060   4.064  1.00  0.00     0.018 A 
HETATM   11  C   UNL     1      43.520 -17.675   2.725  1.00  0.00     0.001 A 
HETATM   12  H   UNL     1      42.622 -16.862   8.332  1.00  0.00     0.192 HD
ENDROOT
BRANCH   9  13
HETATM   13  C   UNL     1      41.930 -13.519   5.460  1.00  0.00     0.165 C 
BRANCH  13  14
HETATM   14  C   UNL     1      42.912 -12.376   5.638  1.00  0.00     0.228 C 
HETATM   15  N   UNL     1      43.078 -11.908   6.921  1.00  0.00    -0.326 N 
HETATM   16  H   UNL     1      42.378 -12.206   7.603  1.00  0.00     0.169 HD
HETATM   17  O   UNL     1      43.547 -11.997   4.655  1.00  0.00    -0.273 OA
BRANCH  15  18
HETATM   18  C   UNL     1      44.009 -10.953   7.400  1.00  0.00     0.052 A 
HETATM   19  C   UNL     1      43.531  -9.739   7.929  1.00  0.00     0.037 A 
HETATM   20 BR   UNL     1      41.671  -9.345   8.017  1.00  0.00    -0.049 Br
HETATM   21  C   UNL     1      44.411  -8.769   8.422  1.00  0.00     0.021 A 
HETATM   22  C   UNL     1      45.785  -9.000   8.397  1.00  0.00     0.002 A 
HETATM   23  C   UNL     1      46.272 -10.197   7.882  1.00  0.00     0.002 A 
HETATM   24  C   UNL     1      45.391 -11.167   7.389  1.00  0.00     0.031 A 
ENDBRANCH  15  18
ENDBRANCH  13  14
ENDBRANCH   9  13
TORSDOF 3
ENDMDL
MODEL 3
REMARK VINA RESULT:      -8.2      2.426      7.827
REMARK  3 active torsions:
REMARK  status: ('A' for Active; 'I' for Inactive)
REMARK    1  A    between atoms: C_9  and  C_10 
REMARK    2  A    between atoms: C_10  and  C_11 
REMARK       I    between atoms: C_11  and  N_12 
REMARK    3  A    between atoms: N_12  and  C_13 
ROOT
HETATM    1  C   UNL     1      41.192 -11.031  -1.862  1.00  0.00     0.001 A 
HETATM    2  C   UNL     1      41.212 -11.889  -0.758  1.00  0.00     0.014 A 
HETATM    3  C   UNL     1      40.518 -13.105  -0.804  1.00  0.00     0.006 A 
HETATM    4  C   UNL     1      39.801 -13.441  -1.951  1.00  0.00     0.046 A 
HETATM    5  C   UNL     1      39.052 -14.707  -1.983  1.00  0.00     0.272 A 
HETATM    6  O   UNL     1      38.407 -15.044  -2.970  1.00  0.00    -0.266 OA
HETATM    7  N   UNL     1      39.118 -15.475  -0.848  1.00  0.00    -0.243 N 
HETATM    8  N   UNL     1      39.825 -15.186   0.276  1.00  0.00    -0.175 NA
HETATM    9  C   UNL     1      40.504 -14.079   0.321  1.00  0.00     0.074 A 
HETATM   10  C   UNL     1      39.781 -12.582  -3.056  1.00  0.00     0.018 A 
HETATM   11  C   UNL     1      40.480 -11.378  -3.010  1.00  0.00     0.001 A 
HETATM   12  H   UNL     1      38.599 -16.349  -0.853  1.00  0.00     0.192 HD
ENDROOT
BRANCH   9  13
HETATM   13  C   UNL     1      41.309 -13.758   1.564  1.00  0.00     0.165 C 
BRANCH  13  14
HETATM   14  C   UNL     1      42.406 -14.689   2.047  1.00  0.00     0.228 C 
HETATM   15  N   UNL     1      41.996 -15.838   2.684  1.00  0.00    -0.326 N 
HETATM   16  H   UNL     1      41.017 -15.864   2.977  1.00  0.00     0.169 HD
HETATM   17  O   UNL     1      43.572 -14.404   1.774  1.00  0.00    -0.273 OA
BRANCH  15  18
HETATM   18  C   UNL     1      42.779 -16.935   3.118  1.00  0.00     0.052 A 
HETATM   19  C   UNL     1      43.336 -16.908   4.411  1.00  0.00     0.037 A 
HETATM   20 BR   UNL     1      43.067 -15.438   5.589  1.00  0.00    -0.049 Br
HETATM   21  C   UNL     1      44.110 -17.973   4.887  1.00  0.00     0.021 A 
HETATM   22  C   UNL     1      44.335 -19.084   4.079  1.00  0.00     0.002 A 
HETATM   23  C   UNL     1      43.787 -19.128   2.800  1.00  0.00     0.002 A 
HETATM   24  C   UNL     1      43.013 -18.063   2.325  1.00  0.00     0.031 A 
ENDBRANCH  15  18
ENDBRANCH  13  14
ENDBRANCH   9  13
TORSDOF 3
ENDMDL
MODEL 4
REMARK VINA RESULT:      -8.2      4.862      7.231
REMARK  3 active torsions:
REMARK  status: ('A' for Active; 'I' for Inactive)
REMARK    1  A    between atoms: C_9  and  C_10 
REMARK    2  A    between atoms: C_10  and  C_11 
REMARK       I    between atoms: C_11  and  N_12 
REMARK    3  A    between atoms: N_12  and  C_13 
ROOT
HETATM    1  C   UNL     1      43.727 -17.227   4.167  1.00  0.00     0.001 A 
HETATM    2  C   UNL     1      43.138 -16.111   4.769  1.00  0.00     0.014 A 
HETATM    3  C   UNL     1      41.991 -15.536   4.206  1.00  0.00     0.006 A 
HETATM    4  C   UNL     1      41.456 -16.079   3.039  1.00  0.00     0.046 A 
HETATM    5  C   UNL     1      40.268 -15.454   2.437  1.00  0.00     0.272 A 
HETATM    6  O   UNL     1      39.762 -15.896   1.412  1.00  0.00    -0.266 OA
HETATM    7  N   UNL     1      39.770 -14.354   3.089  1.00  0.00    -0.243 N 
HETATM    8  N   UNL     1      40.255 -13.815   4.238  1.00  0.00    -0.175 NA
HETATM    9  C   UNL     1      41.296 -14.359   4.794  1.00  0.00     0.074 A 
HETATM   10  C   UNL     1      42.045 -17.196   2.436  1.00  0.00     0.018 A 
HETATM   11  C   UNL     1      43.180 -17.771   3.005  1.00  0.00     0.001 A 
HETATM   12  H   UNL     1      38.953 -13.907   2.681  1.00  0.00     0.192 HD
ENDROOT
BRANCH   9  13
HETATM   13  C   UNL     1      41.833 -13.774   6.085  1.00  0.00     0.165 C 
BRANCH  13  14
HETATM   14  C   UNL     1      42.791 -12.598   6.072  1.00  0.00     0.228 C 
HETATM   15  N   UNL     1      43.087 -12.038   7.293  1.00  0.00    -0.326 N 
HETATM   16  H   UNL     1      42.478 -12.304   8.069  1.00  0.00     0.169 HD
HETATM   17  O   UNL     1      43.299 -12.274   4.998  1.00  0.00    -0.273 OA
BRANCH  15  18
HETATM   18  C   UNL     1      44.035 -11.030   7.596  1.00  0.00     0.052 A 
HETATM   19  C   UNL     1      43.578  -9.768   8.021  1.00  0.00     0.037 A 
HETATM   20 BR   UNL     1      41.724  -9.379   8.197  1.00  0.00    -0.049 Br
HETATM   21  C   UNL     1      44.477  -8.743   8.340  1.00  0.00     0.021 A 
HETATM   22  C   UNL     1      45.848  -8.966   8.243  1.00  0.00     0.002 A 
HETATM   23  C   UNL     1      46.316 -10.210   7.829  1.00  0.00     0.002 A 
HETATM   24  C   UNL     1      45.416 -11.234   7.511  1.00  0.00     0.031 A 
ENDBRANCH  15  18
ENDBRANCH  13  14
ENDBRANCH   9  13
TORSDOF 3
ENDMDL
MODEL 5
REMARK VINA RESULT:      -8.1      9.425     11.469
REMARK  3 active torsions:
REMARK  status: ('A' for Active; 'I' for Inactive)
REMARK    1  A    between atoms: C_9  and  C_10 
REMARK    2  A    between atoms: C_10  and  C_11 
REMARK       I    between atoms: C_11  and  N_12 
REMARK    3  A    between atoms: N_12  and  C_13 
ROOT
HETATM    1  C   UNL     1      42.821  -7.444  13.236  1.00  0.00     0.001 A 
HETATM    2  C   UNL     1      42.263  -7.632  11.968  1.00  0.00     0.014 A 
HETATM    3  C   UNL     1      41.274  -8.606  11.776  1.00  0.00     0.006 A 
HETATM    4  C   UNL     1      40.866  -9.388  12.855  1.00  0.00     0.046 A 
HETATM    5  C   UNL     1      39.846 -10.427  12.642  1.00  0.00     0.272 A 
HETATM    6  O   UNL     1      39.456 -11.139  13.561  1.00  0.00    -0.266 OA
HETATM    7  N   UNL     1      39.369 -10.549  11.362  1.00  0.00    -0.243 N 
HETATM    8  N   UNL     1      39.730  -9.789  10.295  1.00  0.00    -0.175 NA
HETATM    9  C   UNL     1      40.620  -8.856  10.463  1.00  0.00     0.074 A 
HETATM   10  C   UNL     1      41.424  -9.199  14.125  1.00  0.00     0.018 A 
HETATM   11  C   UNL     1      42.400  -8.223  14.313  1.00  0.00     0.001 A 
HETATM   12  H   UNL     1      38.668 -11.268  11.197  1.00  0.00     0.192 HD
ENDROOT
BRANCH   9  13
HETATM   13  C   UNL     1      41.015  -7.993   9.283  1.00  0.00     0.165 C 
BRANCH  13  14
HETATM   14  C   UNL     1      42.235  -8.326   8.444  1.00  0.00     0.228 C 
HETATM   15  N   UNL     1      42.622  -9.647   8.428  1.00  0.00    -0.326 N 
HETATM   16  H   UNL     1      42.206 -10.246   9.143  1.00  0.00     0.169 HD
HETATM   17  O   UNL     1      42.747  -7.426   7.779  1.00  0.00    -0.273 OA
BRANCH  15  18
HETATM   18  C   UNL     1      43.628 -10.262   7.643  1.00  0.00     0.052 A 
HETATM   19  C   UNL     1      44.934 -10.358   8.160  1.00  0.00     0.037 A 
HETATM   20 BR   UNL     1      45.385  -9.681   9.880  1.00  0.00    -0.049 Br
HETATM   21  C   UNL     1      45.960 -10.966   7.425  1.00  0.00     0.021 A 
HETATM   22  C   UNL     1      45.693 -11.492   6.164  1.00  0.00     0.002 A 
HETATM   23  C   UNL     1      44.405 -11.409   5.642  1.00  0.00     0.002 A 
HETATM   24  C   UNL     1      43.381 -10.802   6.377  1.00  0.00     0.031 A 
ENDBRANCH  15  18
ENDBRANCH  13  14
ENDBRANCH   9  13
TORSDOF 3
ENDMDL
MODEL 6
REMARK VINA RESULT:      -7.9      1.932      2.297
REMARK  3 active torsions:
REMARK  status: ('A' for Active; 'I' for Inactive)
REMARK    1  A    between atoms: C_9  and  C_10 
REMARK    2  A    between atoms: C_10  and  C_11 
REMARK       I    between atoms: C_11  and  N_12 
REMARK    3  A    between atoms: N_12  and  C_13 
ROOT
HETATM    1  C   UNL     1      43.747 -18.691   2.643  1.00  0.00     0.001 A 
HETATM    2  C   UNL     1      42.699 -17.809   2.362  1.00  0.00     0.014 A 
HETATM    3  C   UNL     1      42.243 -16.926   3.350  1.00  0.00     0.006 A 
HETATM    4  C   UNL     1      42.836 -16.947   4.611  1.00  0.00     0.046 A 
HETATM    5  C   UNL     1      42.336 -16.037   5.653  1.00  0.00     0.272 A 
HETATM    6  O   UNL     1      42.825 -16.019   6.777  1.00  0.00    -0.266 OA
HETATM    7  N   UNL     1      41.294 -15.221   5.290  1.00  0.00    -0.243 N 
HETATM    8  N   UNL     1      40.710 -15.162   4.065  1.00  0.00    -0.175 NA
HETATM    9  C   UNL     1      41.145 -15.948   3.126  1.00  0.00     0.074 A 
HETATM   10  C   UNL     1      43.886 -17.829   4.892  1.00  0.00     0.018 A 
HETATM   11  C   UNL     1      44.342 -18.699   3.904  1.00  0.00     0.001 A 
HETATM   12  H   UNL     1      40.932 -14.591   6.002  1.00  0.00     0.192 HD
ENDROOT
BRANCH   9  13
HETATM   13  C   UNL     1      40.511 -15.876   1.751  1.00  0.00     0.165 C 
BRANCH  13  14
HETATM   14  C   UNL     1      40.639 -14.629   0.896  1.00  0.00     0.228 C 
HETATM   15  N   UNL     1      39.533 -14.280   0.156  1.00  0.00    -0.326 N 
HETATM   16  H   UNL     1      38.808 -14.995   0.066  1.00  0.00     0.169 HD
HETATM   17  O   UNL     1      41.677 -13.974   0.976  1.00  0.00    -0.273 OA
BRANCH  15  18
HETATM   18  C   UNL     1      39.321 -13.114  -0.619  1.00  0.00     0.052 A 
HETATM   19  C   UNL     1      38.953 -13.250  -1.972  1.00  0.00     0.037 A 
HETATM   20 BR   UNL     1      38.735 -14.957  -2.786  1.00  0.00    -0.049 Br
HETATM   21  C   UNL     1      38.724 -12.127  -2.775  1.00  0.00     0.021 A 
HETATM   22  C   UNL     1      38.855 -10.849  -2.237  1.00  0.00     0.002 A 
HETATM   23  C   UNL     1      39.212 -10.699  -0.901  1.00  0.00     0.002 A 
HETATM   24  C   UNL     1      39.441 -11.822  -0.099  1.00  0.00     0.031 A 
ENDBRANCH  15  18
ENDBRANCH  13  14
ENDBRANCH   9  13
TORSDOF 3
ENDMDL
MODEL 7
REMARK VINA RESULT:      -7.7      1.816      2.721
REMARK  3 active torsions:
REMARK  status: ('A' for Active; 'I' for Inactive)
REMARK    1  A    between atoms: C_9  and  C_10 
REMARK    2  A    between atoms: C_10  and  C_11 
REMARK       I    between atoms: C_11  and  N_12 
REMARK    3  A    between atoms: N_12  and  C_13 
ROOT
HETATM    1  C   UNL     1      41.932 -15.447   6.749  1.00  0.00     0.001 A 
HETATM    2  C   UNL     1      41.519 -15.542   5.417  1.00  0.00     0.014 A 
HETATM    3  C   UNL     1      42.131 -16.465   4.558  1.00  0.00     0.006 A 
HETATM    4  C   UNL     1      43.159 -17.271   5.042  1.00  0.00     0.046 A 
HETATM    5  C   UNL     1      43.817 -18.219   4.129  1.00  0.00     0.272 A 
HETATM    6  O   UNL     1      44.725 -18.949   4.510  1.00  0.00    -0.266 OA
HETATM    7  N   UNL     1      43.356 -18.229   2.837  1.00  0.00    -0.243 N 
HETATM    8  N   UNL     1      42.343 -17.472   2.341  1.00  0.00    -0.175 NA
HETATM    9  C   UNL     1      41.739 -16.637   3.133  1.00  0.00     0.074 A 
HETATM   10  C   UNL     1      43.573 -17.177   6.376  1.00  0.00     0.018 A 
HETATM   11  C   UNL     1      42.954 -16.266   7.230  1.00  0.00     0.001 A 
HETATM   12  H   UNL     1      43.805 -18.874   2.192  1.00  0.00     0.192 HD
ENDROOT
BRANCH   9  13
HETATM   13  C   UNL     1      40.596 -15.802   2.592  1.00  0.00     0.165 C 
BRANCH  13  14
HETATM   14  C   UNL     1      40.784 -14.917   1.374  1.00  0.00     0.228 C 
HETATM   15  N   UNL     1      39.692 -14.773   0.550  1.00  0.00    -0.326 N 
HETATM   16  H   UNL     1      38.929 -15.437   0.694  1.00  0.00     0.169 HD
HETATM   17  O   UNL     1      41.857 -14.328   1.243  1.00  0.00    -0.273 OA
BRANCH  15  18
HETATM   18  C   UNL     1      39.537 -13.919  -0.570  1.00  0.00     0.052 A 
HETATM   19  C   UNL     1      39.175 -12.575  -0.359  1.00  0.00     0.037 A 
HETATM   20 BR   UNL     1      38.886 -11.876   1.387  1.00  0.00    -0.049 Br
HETATM   21  C   UNL     1      39.019 -11.691  -1.433  1.00  0.00     0.021 A 
HETATM   22  C   UNL     1      39.226 -12.137  -2.736  1.00  0.00     0.002 A 
HETATM   23  C   UNL     1      39.590 -13.461  -2.960  1.00  0.00     0.002 A 
HETATM   24  C   UNL     1      39.746 -14.344  -1.886  1.00  0.00     0.031 A 
ENDBRANCH  15  18
ENDBRANCH  13  14
ENDBRANCH   9  13
TORSDOF 3
ENDMDL
MODEL 8
REMARK VINA RESULT:      -7.6      7.758      9.970
REMARK  3 active torsions:
REMARK  status: ('A' for Active; 'I' for Inactive)
REMARK    1  A    between atoms: C_9  and  C_10 
REMARK    2  A    between atoms: C_10  and  C_11 
REMARK       I    between atoms: C_11  and  N_12 
REMARK    3  A    between atoms: N_12  and  C_13 
ROOT
HETATM    1  C   UNL     1      43.215  -6.606   9.505  1.00  0.00     0.001 A 
HETATM    2  C   UNL     1      43.948  -7.783   9.327  1.00  0.00     0.014 A 
HETATM    3  C   UNL     1      43.743  -8.872  10.185  1.00  0.00     0.006 A 
HETATM    4  C   UNL     1      42.815  -8.762  11.219  1.00  0.00     0.046 A 
HETATM    5  C   UNL     1      42.624  -9.899  12.133  1.00  0.00     0.272 A 
HETATM    6  O   UNL     1      41.820  -9.849  13.057  1.00  0.00    -0.266 OA
HETATM    7  N   UNL     1      43.399 -11.005  11.890  1.00  0.00    -0.243 N 
HETATM    8  N   UNL     1      44.295 -11.150  10.879  1.00  0.00    -0.175 NA
HETATM    9  C   UNL     1      44.471 -10.163  10.051  1.00  0.00     0.074 A 
HETATM   10  C   UNL     1      42.081  -7.584  11.397  1.00  0.00     0.018 A 
HETATM   11  C   UNL     1      42.281  -6.507  10.536  1.00  0.00     0.001 A 
HETATM   12  H   UNL     1      43.283 -11.796  12.518  1.00  0.00     0.192 HD
ENDROOT
BRANCH   9  13
HETATM   13  C   UNL     1      45.455 -10.323   8.910  1.00  0.00     0.165 C 
BRANCH  13  14
HETATM   14  C   UNL     1      45.113 -11.166   7.696  1.00  0.00     0.228 C 
HETATM   15  N   UNL     1      43.928 -11.863   7.750  1.00  0.00    -0.326 N 
HETATM   16  H   UNL     1      43.492 -11.937   8.671  1.00  0.00     0.169 HD
HETATM   17  O   UNL     1      45.863 -11.112   6.722  1.00  0.00    -0.273 OA
BRANCH  15  18
HETATM   18  C   UNL     1      43.298 -12.615   6.728  1.00  0.00     0.052 A 
HETATM   19  C   UNL     1      42.276 -12.015   5.969  1.00  0.00     0.037 A 
HETATM   20 BR   UNL     1      41.716 -10.223   6.280  1.00  0.00    -0.049 Br
HETATM   21  C   UNL     1      41.631 -12.715   4.943  1.00  0.00     0.021 A 
HETATM   22  C   UNL     1      42.001 -14.027   4.657  1.00  0.00     0.002 A 
HETATM   23  C   UNL     1      43.014 -14.632   5.395  1.00  0.00     0.002 A 
HETATM   24  C   UNL     1      43.658 -13.931   6.421  1.00  0.00     0.031 A 
ENDBRANCH  15  18
ENDBRANCH  13  14
ENDBRANCH   9  13
TORSDOF 3
ENDMDL
MODEL 9
REMARK VINA RESULT:      -7.5      2.389      3.436
REMARK  3 active torsions:
REMARK  status: ('A' for Active; 'I' for Inactive)
REMARK    1  A    between atoms: C_9  and  C_10 
REMARK    2  A    between atoms: C_10  and  C_11 
REMARK       I    between atoms: C_11  and  N_12 
REMARK    3  A    between atoms: N_12  and  C_13 
ROOT
HETATM    1  C   UNL     1      43.819 -19.842   6.438  1.00  0.00     0.001 A 
HETATM    2  C   UNL     1      43.663 -18.589   5.835  1.00  0.00     0.014 A 
HETATM    3  C   UNL     1      43.564 -18.491   4.441  1.00  0.00     0.006 A 
HETATM    4  C   UNL     1      43.637 -19.647   3.667  1.00  0.00     0.046 A 
HETATM    5  C   UNL     1      43.561 -19.535   2.202  1.00  0.00     0.272 A 
HETATM    6  O   UNL     1      43.620 -20.524   1.480  1.00  0.00    -0.266 OA
HETATM    7  N   UNL     1      43.424 -18.265   1.702  1.00  0.00    -0.243 N 
HETATM    8  N   UNL     1      43.329 -17.122   2.430  1.00  0.00    -0.175 NA
HETATM    9  C   UNL     1      43.381 -17.199   3.726  1.00  0.00     0.074 A 
HETATM   10  C   UNL     1      43.793 -20.901   4.270  1.00  0.00     0.018 A 
HETATM   11  C   UNL     1      43.881 -20.996   5.657  1.00  0.00     0.001 A 
HETATM   12  H   UNL     1      43.377 -18.171   0.690  1.00  0.00     0.192 HD
ENDROOT
BRANCH   9  13
HETATM   13  C   UNL     1      43.257 -15.930   4.546  1.00  0.00     0.165 C 
BRANCH  13  14
HETATM   14  C   UNL     1      42.333 -14.808   4.114  1.00  0.00     0.228 C 
HETATM   15  N   UNL     1      42.504 -14.333   2.834  1.00  0.00    -0.326 N 
HETATM   16  H   UNL     1      43.368 -14.611   2.364  1.00  0.00     0.169 HD
HETATM   17  O   UNL     1      41.449 -14.450   4.892  1.00  0.00    -0.273 OA
BRANCH  15  18
HETATM   18  C   UNL     1      41.714 -13.395   2.126  1.00  0.00     0.052 A 
HETATM   19  C   UNL     1      40.569 -13.846   1.441  1.00  0.00     0.037 A 
HETATM   20 BR   UNL     1      40.057 -15.679   1.439  1.00  0.00    -0.049 Br
HETATM   21  C   UNL     1      39.751 -12.955   0.735  1.00  0.00     0.021 A 
HETATM   22  C   UNL     1      40.064 -11.599   0.707  1.00  0.00     0.002 A 
HETATM   23  C   UNL     1      41.190 -11.137   1.383  1.00  0.00     0.002 A 
HETATM   24  C   UNL     1      42.006 -12.028   2.088  1.00  0.00     0.031 A 
ENDBRANCH  15  18
ENDBRANCH  13  14
ENDBRANCH   9  13
TORSDOF 3
ENDMDL
MODEL 10
REMARK VINA RESULT:      -7.5      2.384      3.551
REMARK  3 active torsions:
REMARK  status: ('A' for Active; 'I' for Inactive)
REMARK    1  A    between atoms: C_9  and  C_10 
REMARK    2  A    between atoms: C_10  and  C_11 
REMARK       I    between atoms: C_11  and  N_12 
REMARK    3  A    between atoms: N_12  and  C_13 
ROOT
HETATM    1  C   UNL     1      43.473 -11.753   3.453  1.00  0.00     0.001 A 
HETATM    2  C   UNL     1      43.059 -12.927   2.818  1.00  0.00     0.014 A 
HETATM    3  C   UNL     1      42.765 -14.068   3.577  1.00  0.00     0.006 A 
HETATM    4  C   UNL     1      42.903 -14.020   4.963  1.00  0.00     0.046 A 
HETATM    5  C   UNL     1      42.618 -15.228   5.754  1.00  0.00     0.272 A 
HETATM    6  O   UNL     1      42.726 -15.234   6.975  1.00  0.00    -0.266 OA
HETATM    7  N   UNL     1      42.234 -16.337   5.042  1.00  0.00    -0.243 N 
HETATM    8  N   UNL     1      42.070 -16.408   3.696  1.00  0.00    -0.175 NA
HETATM    9  C   UNL     1      42.303 -15.349   2.979  1.00  0.00     0.074 A 
HETATM   10  C   UNL     1      43.317 -12.844   5.599  1.00  0.00     0.018 A 
HETATM   11  C   UNL     1      43.599 -11.709   4.841  1.00  0.00     0.001 A 
HETATM   12  H   UNL     1      42.041 -17.181   5.574  1.00  0.00     0.192 HD
ENDROOT
BRANCH   9  13
HETATM   13  C   UNL     1      42.105 -15.416   1.478  1.00  0.00     0.165 C 
BRANCH  13  14
HETATM   14  C   UNL     1      40.744 -15.162   0.857  1.00  0.00     0.228 C 
HETATM   15  N   UNL     1      40.718 -14.331  -0.239  1.00  0.00    -0.326 N 
HETATM   16  H   UNL     1      41.564 -13.783  -0.408  1.00  0.00     0.169 HD
HETATM   17  O   UNL     1      39.775 -15.768   1.314  1.00  0.00    -0.273 OA
BRANCH  15  18
HETATM   18  C   UNL     1      39.627 -14.024  -1.089  1.00  0.00     0.052 A 
HETATM   19  C   UNL     1      38.863 -12.870  -0.829  1.00  0.00     0.037 A 
HETATM   20 BR   UNL     1      39.253 -11.716   0.633  1.00  0.00    -0.049 Br
HETATM   21  C   UNL     1      37.781 -12.520  -1.646  1.00  0.00     0.021 A 
HETATM   22  C   UNL     1      37.450 -13.317  -2.739  1.00  0.00     0.002 A 
HETATM   23  C   UNL     1      38.200 -14.457  -3.012  1.00  0.00     0.002 A 
HETATM   24  C   UNL     1      39.281 -14.806  -2.195  1.00  0.00     0.031 A 
ENDBRANCH  15  18
ENDBRANCH  13  14
ENDBRANCH   9  13
TORSDOF 3
ENDMDL
