MODEL 1
REMARK VINA RESULT:      -8.6      0.000      0.000
REMARK  4 active torsions:
REMARK  status: ('A' for Active; 'I' for Inactive)
REMARK    1  A    between atoms: C_9  and  C_10 
REMARK    2  A    between atoms: C_13  and  O_14 
REMARK    3  A    between atoms: C_18  and  C_19 
REMARK       I    between atoms: C_19  and  N_20 
REMARK    4  A    between atoms: N_20  and  C_21 
ROOT
HETATM    1  C   UNL     1      44.352 -11.791   3.604  1.00  0.00     0.070 C 
HETATM    2  C   UNL     1      42.912 -11.920   3.175  1.00  0.00     0.037 C 
HETATM    3  N   UNL     1      42.127 -10.787   3.385  1.00  0.00    -0.192 N 
HETATM    4  C   UNL     1      40.779 -10.824   3.377  1.00  0.00     0.725 A 
HETATM    5  N   UNL     1      40.143 -11.954   2.938  1.00  0.00    -0.084 N 
HETATM    6  N   UNL     1      38.806 -11.858   3.099  1.00  0.00    -0.149 NA
HETATM    7  C   UNL     1      38.707 -10.617   3.589  1.00  0.00     0.275 A 
HETATM    8  N   UNL     1      39.892  -9.949   3.773  1.00  0.00    -0.054 NA
HETATM    9  C   UNL     1      40.839 -13.134   2.413  1.00  0.00     0.202 C 
HETATM   10  C   UNL     1      42.338 -13.054   2.698  1.00  0.00     0.062 C 
HETATM   11  H   UNL     1      42.567  -9.990   3.837  1.00  0.00     0.184 HD
ENDROOT
BRANCH  10  12
HETATM   12  C   UNL     1      43.041 -14.361   2.567  1.00  0.00     0.256 C 
HETATM   13  N   UNL     1      42.664 -15.302   3.500  1.00  0.00    -0.323 N 
HETATM   14  H   UNL     1      42.023 -15.001   4.224  1.00  0.00     0.169 HD
HETATM   15  O   UNL     1      43.889 -14.486   1.691  1.00  0.00    -0.267 OA
BRANCH  13  16
HETATM   16  C   UNL     1      43.013 -16.670   3.514  1.00  0.00     0.035 A 
HETATM   17  C   UNL     1      43.780 -17.270   4.515  1.00  0.00     0.031 A 
HETATM   18  C   UNL     1      44.129 -18.624   4.431  1.00  0.00     0.026 A 
HETATM   19  C   UNL     1      43.712 -19.382   3.342  1.00  0.00     0.034 A 
HETATM   20 CL   UNL     1      44.159 -21.040   3.229  1.00  0.00    -0.084 Cl
HETATM   21  C   UNL     1      42.942 -18.801   2.339  1.00  0.00     0.026 A 
HETATM   22  C   UNL     1      42.588 -17.450   2.429  1.00  0.00     0.031 A 
ENDBRANCH  13  16
ENDBRANCH  10  12
BRANCH   9  23
HETATM   23  C   UNL     1      40.541 -13.297   0.924  1.00  0.00    -0.028 A 
HETATM   24  C   UNL     1      39.893 -14.436   0.416  1.00  0.00     0.012 A 
HETATM   25  C   UNL     1      39.673 -14.574  -0.957  1.00  0.00     0.037 A 
HETATM   26  C   UNL     1      40.086 -13.584  -1.848  1.00  0.00     0.068 A 
HETATM   27  C   UNL     1      40.697 -12.433  -1.352  1.00  0.00     0.037 A 
HETATM   28  C   UNL     1      40.920 -12.290   0.023  1.00  0.00     0.012 A 
BRANCH  26  29
HETATM   29  O   UNL     1      39.831 -13.855  -3.164  1.00  0.00    -0.356 OA
HETATM   30  C   UNL     1      38.574 -14.452  -3.459  1.00  0.00     0.210 C 
ENDBRANCH  26  29
ENDBRANCH   9  23
TORSDOF 4
ENDMDL
MODEL 2
REMARK VINA RESULT:      -8.4      2.256      5.059
REMARK  4 active torsions:
REMARK  status: ('A' for Active; 'I' for Inactive)
REMARK    1  A    between atoms: C_9  and  C_10 
REMARK    2  A    between atoms: C_13  and  O_14 
REMARK    3  A    between atoms: C_18  and  C_19 
REMARK       I    between atoms: C_19  and  N_20 
REMARK    4  A    between atoms: N_20  and  C_21 
ROOT
HETATM    1  C   UNL     1      39.854 -15.694   1.027  1.00  0.00     0.070 C 
HETATM    2  C   UNL     1      40.450 -14.329   1.264  1.00  0.00     0.037 C 
HETATM    3  N   UNL     1      39.659 -13.257   0.856  1.00  0.00    -0.192 N 
HETATM    4  C   UNL     1      40.152 -12.014   0.682  1.00  0.00     0.725 A 
HETATM    5  N   UNL     1      41.416 -11.727   1.121  1.00  0.00    -0.084 N 
HETATM    6  N   UNL     1      41.785 -10.476   0.772  1.00  0.00    -0.149 NA
HETATM    7  C   UNL     1      40.668 -10.050   0.172  1.00  0.00     0.275 A 
HETATM    8  N   UNL     1      39.644 -10.960   0.098  1.00  0.00    -0.054 NA
HETATM    9  C   UNL     1      42.273 -12.683   1.832  1.00  0.00     0.202 C 
HETATM   10  C   UNL     1      41.697 -14.096   1.750  1.00  0.00     0.062 C 
HETATM   11  H   UNL     1      38.774 -13.473   0.403  1.00  0.00     0.184 HD
ENDROOT
BRANCH  10  12
HETATM   12  C   UNL     1      42.682 -15.162   2.083  1.00  0.00     0.256 C 
HETATM   13  N   UNL     1      42.305 -15.972   3.132  1.00  0.00    -0.323 N 
HETATM   14  H   UNL     1      41.456 -15.723   3.624  1.00  0.00     0.169 HD
HETATM   15  O   UNL     1      43.725 -15.218   1.443  1.00  0.00    -0.267 OA
BRANCH  13  16
HETATM   16  C   UNL     1      42.935 -17.165   3.552  1.00  0.00     0.035 A 
HETATM   17  C   UNL     1      43.220 -18.238   2.705  1.00  0.00     0.031 A 
HETATM   18  C   UNL     1      43.800 -19.409   3.208  1.00  0.00     0.026 A 
HETATM   19  C   UNL     1      44.095 -19.511   4.563  1.00  0.00     0.034 A 
HETATM   20 CL   UNL     1      44.789 -20.958   5.183  1.00  0.00    -0.084 Cl
HETATM   21  C   UNL     1      43.823 -18.449   5.419  1.00  0.00     0.026 A 
HETATM   22  C   UNL     1      43.250 -17.277   4.914  1.00  0.00     0.031 A 
ENDBRANCH  13  16
ENDBRANCH  10  12
BRANCH   9  23
HETATM   23  C   UNL     1      42.480 -12.226   3.275  1.00  0.00    -0.028 A 
HETATM   24  C   UNL     1      43.714 -11.728   3.726  1.00  0.00     0.012 A 
HETATM   25  C   UNL     1      43.884 -11.357   5.063  1.00  0.00     0.037 A 
HETATM   26  C   UNL     1      42.832 -11.471   5.973  1.00  0.00     0.068 A 
HETATM   27  C   UNL     1      41.593 -11.930   5.528  1.00  0.00     0.037 A 
HETATM   28  C   UNL     1      41.419 -12.301   4.190  1.00  0.00     0.012 A 
BRANCH  26  29
HETATM   29  O   UNL     1      43.139 -11.097   7.252  1.00  0.00    -0.356 OA
HETATM   30  C   UNL     1      44.472 -11.344   7.685  1.00  0.00     0.210 C 
ENDBRANCH  26  29
ENDBRANCH   9  23
TORSDOF 4
ENDMDL
MODEL 3
REMARK VINA RESULT:      -8.2      2.260      2.597
REMARK  4 active torsions:
REMARK  status: ('A' for Active; 'I' for Inactive)
REMARK    1  A    between atoms: C_9  and  C_10 
REMARK    2  A    between atoms: C_13  and  O_14 
REMARK    3  A    between atoms: C_18  and  C_19 
REMARK       I    between atoms: C_19  and  N_20 
REMARK    4  A    between atoms: N_20  and  C_21 
ROOT
HETATM    1  C   UNL     1      43.550 -13.634   6.984  1.00  0.00     0.070 C 
HETATM    2  C   UNL     1      42.397 -12.974   6.270  1.00  0.00     0.037 C 
HETATM    3  N   UNL     1      42.174 -11.641   6.609  1.00  0.00    -0.192 N 
HETATM    4  C   UNL     1      41.018 -11.004   6.335  1.00  0.00     0.725 A 
HETATM    5  N   UNL     1      40.104 -11.601   5.510  1.00  0.00    -0.084 N 
HETATM    6  N   UNL     1      38.967 -10.877   5.432  1.00  0.00    -0.149 NA
HETATM    7  C   UNL     1      39.292  -9.828   6.195  1.00  0.00     0.275 A 
HETATM    8  N   UNL     1      40.539  -9.865   6.765  1.00  0.00    -0.054 NA
HETATM    9  C   UNL     1      40.322 -12.890   4.843  1.00  0.00     0.202 C 
HETATM   10  C   UNL     1      41.546 -13.601   5.419  1.00  0.00     0.062 C 
HETATM   11  H   UNL     1      42.770 -11.234   7.326  1.00  0.00     0.184 HD
ENDROOT
BRANCH  10  12
HETATM   12  C   UNL     1      41.599 -15.054   5.094  1.00  0.00     0.256 C 
HETATM   13  N   UNL     1      42.514 -15.382   4.117  1.00  0.00    -0.323 N 
HETATM   14  H   UNL     1      42.993 -14.616   3.660  1.00  0.00     0.169 HD
HETATM   15  O   UNL     1      40.835 -15.814   5.677  1.00  0.00    -0.267 OA
BRANCH  13  16
HETATM   16  C   UNL     1      42.917 -16.680   3.734  1.00  0.00     0.035 A 
HETATM   17  C   UNL     1      43.859 -17.442   4.428  1.00  0.00     0.031 A 
HETATM   18  C   UNL     1      44.245 -18.702   3.955  1.00  0.00     0.026 A 
HETATM   19  C   UNL     1      43.691 -19.203   2.782  1.00  0.00     0.034 A 
HETATM   20 CL   UNL     1      44.181 -20.743   2.191  1.00  0.00    -0.084 Cl
HETATM   21  C   UNL     1      42.747 -18.459   2.082  1.00  0.00     0.026 A 
HETATM   22  C   UNL     1      42.356 -17.204   2.560  1.00  0.00     0.031 A 
ENDBRANCH  13  16
ENDBRANCH  10  12
BRANCH   9  23
HETATM   23  C   UNL     1      40.429 -12.685   3.333  1.00  0.00    -0.028 A 
HETATM   24  C   UNL     1      39.590 -13.359   2.430  1.00  0.00     0.012 A 
HETATM   25  C   UNL     1      39.741 -13.182   1.052  1.00  0.00     0.037 A 
HETATM   26  C   UNL     1      40.724 -12.331   0.546  1.00  0.00     0.068 A 
HETATM   27  C   UNL     1      41.539 -11.630   1.434  1.00  0.00     0.037 A 
HETATM   28  C   UNL     1      41.391 -11.803   2.815  1.00  0.00     0.012 A 
BRANCH  26  29
HETATM   29  O   UNL     1      40.780 -12.268  -0.818  1.00  0.00    -0.356 OA
HETATM   30  C   UNL     1      39.696 -12.855  -1.528  1.00  0.00     0.210 C 
ENDBRANCH  26  29
ENDBRANCH   9  23
TORSDOF 4
ENDMDL
MODEL 4
REMARK VINA RESULT:      -8.1      2.526      4.873
REMARK  4 active torsions:
REMARK  status: ('A' for Active; 'I' for Inactive)
REMARK    1  A    between atoms: C_9  and  C_10 
REMARK    2  A    between atoms: C_13  and  O_14 
REMARK    3  A    between atoms: C_18  and  C_19 
REMARK       I    between atoms: C_19  and  N_20 
REMARK    4  A    between atoms: N_20  and  C_21 
ROOT
HETATM    1  C   UNL     1      39.445 -14.843  -1.076  1.00  0.00     0.070 C 
HETATM    2  C   UNL     1      39.997 -13.755  -0.189  1.00  0.00     0.037 C 
HETATM    3  N   UNL     1      39.889 -12.462  -0.699  1.00  0.00    -0.192 N 
HETATM    4  C   UNL     1      40.607 -11.428  -0.217  1.00  0.00     0.725 A 
HETATM    5  N   UNL     1      41.309 -11.585   0.948  1.00  0.00    -0.084 N 
HETATM    6  N   UNL     1      42.052 -10.492   1.224  1.00  0.00    -0.149 NA
HETATM    7  C   UNL     1      41.702  -9.695   0.208  1.00  0.00     0.275 A 
HETATM    8  N   UNL     1      40.818 -10.229  -0.695  1.00  0.00    -0.054 NA
HETATM    9  C   UNL     1      41.291 -12.809   1.756  1.00  0.00     0.202 C 
HETATM   10  C   UNL     1      40.644 -13.961   0.987  1.00  0.00     0.062 C 
HETATM   11  H   UNL     1      39.489 -12.357  -1.628  1.00  0.00     0.184 HD
ENDROOT
BRANCH  10  12
HETATM   12  C   UNL     1      40.945 -15.303   1.558  1.00  0.00     0.256 C 
HETATM   13  N   UNL     1      42.285 -15.540   1.770  1.00  0.00    -0.323 N 
HETATM   14  H   UNL     1      42.934 -14.833   1.448  1.00  0.00     0.169 HD
HETATM   15  O   UNL     1      40.015 -16.075   1.762  1.00  0.00    -0.267 OA
BRANCH  13  16
HETATM   16  C   UNL     1      42.854 -16.632   2.462  1.00  0.00     0.035 A 
HETATM   17  C   UNL     1      43.014 -17.907   1.914  1.00  0.00     0.031 A 
HETATM   18  C   UNL     1      43.540 -18.952   2.682  1.00  0.00     0.026 A 
HETATM   19  C   UNL     1      43.906 -18.726   4.005  1.00  0.00     0.034 A 
HETATM   20 CL   UNL     1      44.533 -20.017   4.954  1.00  0.00    -0.084 Cl
HETATM   21  C   UNL     1      43.759 -17.461   4.564  1.00  0.00     0.026 A 
HETATM   22  C   UNL     1      43.240 -16.415   3.792  1.00  0.00     0.031 A 
ENDBRANCH  13  16
ENDBRANCH  10  12
BRANCH   9  23
HETATM   23  C   UNL     1      40.597 -12.544   3.091  1.00  0.00    -0.028 A 
HETATM   24  C   UNL     1      39.512 -11.659   3.201  1.00  0.00     0.012 A 
HETATM   25  C   UNL     1      38.926 -11.405   4.444  1.00  0.00     0.037 A 
HETATM   26  C   UNL     1      39.403 -12.029   5.598  1.00  0.00     0.068 A 
HETATM   27  C   UNL     1      40.456 -12.937   5.494  1.00  0.00     0.037 A 
HETATM   28  C   UNL     1      41.045 -13.195   4.251  1.00  0.00     0.012 A 
BRANCH  26  29
HETATM   29  O   UNL     1      38.756 -11.675   6.750  1.00  0.00    -0.356 OA
HETATM   30  C   UNL     1      39.168 -10.460   7.362  1.00  0.00     0.210 C 
ENDBRANCH  26  29
ENDBRANCH   9  23
TORSDOF 4
ENDMDL
MODEL 5
REMARK VINA RESULT:      -7.9      3.722      7.239
REMARK  4 active torsions:
REMARK  status: ('A' for Active; 'I' for Inactive)
REMARK    1  A    between atoms: C_9  and  C_10 
REMARK    2  A    between atoms: C_13  and  O_14 
REMARK    3  A    between atoms: C_18  and  C_19 
REMARK       I    between atoms: C_19  and  N_20 
REMARK    4  A    between atoms: N_20  and  C_21 
ROOT
HETATM    1  C   UNL     1      43.151 -16.338   1.550  1.00  0.00     0.070 C 
HETATM    2  C   UNL     1      42.797 -16.017   2.981  1.00  0.00     0.037 C 
HETATM    3  N   UNL     1      43.734 -16.422   3.929  1.00  0.00    -0.192 N 
HETATM    4  C   UNL     1      43.444 -16.521   5.242  1.00  0.00     0.725 A 
HETATM    5  N   UNL     1      42.264 -16.007   5.708  1.00  0.00    -0.084 N 
HETATM    6  N   UNL     1      42.090 -16.287   7.017  1.00  0.00    -0.149 NA
HETATM    7  C   UNL     1      43.234 -16.926   7.285  1.00  0.00     0.275 A 
HETATM    8  N   UNL     1      44.091 -17.089   6.227  1.00  0.00    -0.054 NA
HETATM    9  C   UNL     1      41.295 -15.291   4.870  1.00  0.00     0.202 C 
HETATM   10  C   UNL     1      41.628 -15.458   3.388  1.00  0.00     0.062 C 
HETATM   11  H   UNL     1      44.551 -16.928   3.594  1.00  0.00     0.184 HD
ENDROOT
BRANCH  10  12
HETATM   12  C   UNL     1      40.497 -15.117   2.481  1.00  0.00     0.256 C 
HETATM   13  N   UNL     1      40.699 -13.979   1.731  1.00  0.00    -0.323 N 
HETATM   14  H   UNL     1      41.537 -13.444   1.921  1.00  0.00     0.169 HD
HETATM   15  O   UNL     1      39.501 -15.830   2.490  1.00  0.00    -0.267 OA
BRANCH  13  16
HETATM   16  C   UNL     1      39.898 -13.513   0.664  1.00  0.00     0.035 A 
HETATM   17  C   UNL     1      39.157 -12.330   0.702  1.00  0.00     0.031 A 
HETATM   18  C   UNL     1      38.346 -11.962  -0.378  1.00  0.00     0.026 A 
HETATM   19  C   UNL     1      38.271 -12.780  -1.500  1.00  0.00     0.034 A 
HETATM   20 CL   UNL     1      37.258 -12.337  -2.819  1.00  0.00    -0.084 Cl
HETATM   21  C   UNL     1      39.007 -13.959  -1.557  1.00  0.00     0.026 A 
HETATM   22  C   UNL     1      39.824 -14.321  -0.480  1.00  0.00     0.031 A 
ENDBRANCH  13  16
ENDBRANCH  10  12
BRANCH   9  23
HETATM   23  C   UNL     1      41.230 -13.822   5.286  1.00  0.00    -0.028 A 
HETATM   24  C   UNL     1      42.358 -12.987   5.243  1.00  0.00     0.012 A 
HETATM   25  C   UNL     1      42.276 -11.659   5.670  1.00  0.00     0.037 A 
HETATM   26  C   UNL     1      41.071 -11.136   6.142  1.00  0.00     0.068 A 
HETATM   27  C   UNL     1      39.936 -11.945   6.155  1.00  0.00     0.037 A 
HETATM   28  C   UNL     1      40.015 -13.276   5.728  1.00  0.00     0.012 A 
BRANCH  26  29
HETATM   29  O   UNL     1      41.134  -9.832   6.550  1.00  0.00    -0.356 OA
HETATM   30  C   UNL     1      42.098  -9.523   7.549  1.00  0.00     0.210 C 
ENDBRANCH  26  29
ENDBRANCH   9  23
TORSDOF 4
ENDMDL
MODEL 6
REMARK VINA RESULT:      -7.9      3.536      6.803
REMARK  4 active torsions:
REMARK  status: ('A' for Active; 'I' for Inactive)
REMARK    1  A    between atoms: C_9  and  C_10 
REMARK    2  A    between atoms: C_13  and  O_14 
REMARK    3  A    between atoms: C_18  and  C_19 
REMARK       I    between atoms: C_19  and  N_20 
REMARK    4  A    between atoms: N_20  and  C_21 
ROOT
HETATM    1  C   UNL     1      39.768 -10.449   6.307  1.00  0.00     0.070 C 
HETATM    2  C   UNL     1      41.110 -11.138   6.289  1.00  0.00     0.037 C 
HETATM    3  N   UNL     1      42.034 -10.661   7.218  1.00  0.00    -0.192 N 
HETATM    4  C   UNL     1      43.355 -10.916   7.126  1.00  0.00     0.725 A 
HETATM    5  N   UNL     1      43.797 -11.846   6.225  1.00  0.00    -0.084 N 
HETATM    6  N   UNL     1      45.145 -11.895   6.192  1.00  0.00    -0.149 NA
HETATM    7  C   UNL     1      45.446 -11.003   7.143  1.00  0.00     0.275 A 
HETATM    8  N   UNL     1      44.379 -10.382   7.741  1.00  0.00    -0.054 NA
HETATM    9  C   UNL     1      42.910 -12.644   5.370  1.00  0.00     0.202 C 
HETATM   10  C   UNL     1      41.484 -12.095   5.402  1.00  0.00     0.062 C 
HETATM   11  H   UNL     1      41.751  -9.875   7.798  1.00  0.00     0.184 HD
ENDROOT
BRANCH  10  12
HETATM   12  C   UNL     1      40.634 -12.579   4.279  1.00  0.00     0.256 C 
HETATM   13  N   UNL     1      41.173 -12.367   3.029  1.00  0.00    -0.323 N 
HETATM   14  H   UNL     1      42.036 -11.839   2.983  1.00  0.00     0.169 HD
HETATM   15  O   UNL     1      39.548 -13.084   4.541  1.00  0.00    -0.267 OA
BRANCH  13  16
HETATM   16  C   UNL     1      40.694 -12.875   1.801  1.00  0.00     0.035 A 
HETATM   17  C   UNL     1      40.036 -12.105   0.840  1.00  0.00     0.031 A 
HETATM   18  C   UNL     1      39.545 -12.694  -0.331  1.00  0.00     0.026 A 
HETATM   19  C   UNL     1      39.707 -14.058  -0.544  1.00  0.00     0.034 A 
HETATM   20 CL   UNL     1      39.084 -14.784  -1.974  1.00  0.00    -0.084 Cl
HETATM   21  C   UNL     1      40.365 -14.839   0.401  1.00  0.00     0.026 A 
HETATM   22  C   UNL     1      40.863 -14.248   1.567  1.00  0.00     0.031 A 
ENDBRANCH  13  16
ENDBRANCH  10  12
BRANCH   9  23
HETATM   23  C   UNL     1      42.973 -14.114   5.781  1.00  0.00    -0.028 A 
HETATM   24  C   UNL     1      42.879 -14.515   7.124  1.00  0.00     0.012 A 
HETATM   25  C   UNL     1      42.982 -15.865   7.470  1.00  0.00     0.037 A 
HETATM   26  C   UNL     1      43.176 -16.840   6.491  1.00  0.00     0.068 A 
HETATM   27  C   UNL     1      43.234 -16.456   5.152  1.00  0.00     0.037 A 
HETATM   28  C   UNL     1      43.130 -15.106   4.800  1.00  0.00     0.012 A 
BRANCH  26  29
HETATM   29  O   UNL     1      43.284 -18.117   6.967  1.00  0.00    -0.356 OA
HETATM   30  C   UNL     1      43.574 -19.130   6.012  1.00  0.00     0.210 C 
ENDBRANCH  26  29
ENDBRANCH   9  23
TORSDOF 4
ENDMDL
MODEL 7
REMARK VINA RESULT:      -7.7      3.121      6.364
REMARK  4 active torsions:
REMARK  status: ('A' for Active; 'I' for Inactive)
REMARK    1  A    between atoms: C_9  and  C_10 
REMARK    2  A    between atoms: C_13  and  O_14 
REMARK    3  A    between atoms: C_18  and  C_19 
REMARK       I    between atoms: C_19  and  N_20 
REMARK    4  A    between atoms: N_20  and  C_21 
ROOT
HETATM    1  C   UNL     1      39.037 -11.582   5.786  1.00  0.00     0.070 C 
HETATM    2  C   UNL     1      40.463 -11.961   5.475  1.00  0.00     0.037 C 
HETATM    3  N   UNL     1      41.407 -11.540   6.410  1.00  0.00    -0.192 N 
HETATM    4  C   UNL     1      42.727 -11.493   6.140  1.00  0.00     0.725 A 
HETATM    5  N   UNL     1      43.198 -12.076   4.995  1.00  0.00    -0.084 N 
HETATM    6  N   UNL     1      44.518 -11.843   4.832  1.00  0.00    -0.149 NA
HETATM    7  C   UNL     1      44.785 -11.158   5.951  1.00  0.00     0.275 A 
HETATM    8  N   UNL     1      43.717 -10.924   6.779  1.00  0.00    -0.054 NA
HETATM    9  C   UNL     1      42.356 -12.812   4.045  1.00  0.00     0.202 C 
HETATM   10  C   UNL     1      40.874 -12.586   4.341  1.00  0.00     0.062 C 
HETATM   11  H   UNL     1      41.073 -10.986   7.195  1.00  0.00     0.184 HD
ENDROOT
BRANCH  10  12
HETATM   12  C   UNL     1      39.977 -12.954   3.211  1.00  0.00     0.256 C 
HETATM   13  N   UNL     1      40.359 -12.433   1.994  1.00  0.00    -0.323 N 
HETATM   14  H   UNL     1      41.145 -11.795   1.992  1.00  0.00     0.169 HD
HETATM   15  O   UNL     1      38.990 -13.640   3.445  1.00  0.00    -0.267 OA
BRANCH  13  16
HETATM   16  C   UNL     1      39.821 -12.754   0.728  1.00  0.00     0.035 A 
HETATM   17  C   UNL     1      38.921 -11.942   0.033  1.00  0.00     0.031 A 
HETATM   18  C   UNL     1      38.391 -12.355  -1.196  1.00  0.00     0.026 A 
HETATM   19  C   UNL     1      38.759 -13.583  -1.733  1.00  0.00     0.034 A 
HETATM   20 CL   UNL     1      38.092 -14.098  -3.233  1.00  0.00    -0.084 Cl
HETATM   21  C   UNL     1      39.658 -14.401  -1.057  1.00  0.00     0.026 A 
HETATM   22  C   UNL     1      40.193 -13.984   0.167  1.00  0.00     0.031 A 
ENDBRANCH  13  16
ENDBRANCH  10  12
BRANCH   9  23
HETATM   23  C   UNL     1      42.728 -14.294   4.056  1.00  0.00    -0.028 A 
HETATM   24  C   UNL     1      42.899 -15.008   5.254  1.00  0.00     0.012 A 
HETATM   25  C   UNL     1      43.281 -16.352   5.230  1.00  0.00     0.037 A 
HETATM   26  C   UNL     1      43.496 -17.011   4.020  1.00  0.00     0.068 A 
HETATM   27  C   UNL     1      43.294 -16.322   2.825  1.00  0.00     0.037 A 
HETATM   28  C   UNL     1      42.911 -14.976   2.843  1.00  0.00     0.012 A 
BRANCH  26  29
HETATM   29  O   UNL     1      43.888 -18.316   4.139  1.00  0.00    -0.356 OA
HETATM   30  C   UNL     1      44.065 -19.040   2.928  1.00  0.00     0.210 C 
ENDBRANCH  26  29
ENDBRANCH   9  23
TORSDOF 4
ENDMDL
MODEL 8
REMARK VINA RESULT:      -7.4      3.673      6.384
REMARK  4 active torsions:
REMARK  status: ('A' for Active; 'I' for Inactive)
REMARK    1  A    between atoms: C_9  and  C_10 
REMARK    2  A    between atoms: C_13  and  O_14 
REMARK    3  A    between atoms: C_18  and  C_19 
REMARK       I    between atoms: C_19  and  N_20 
REMARK    4  A    between atoms: N_20  and  C_21 
ROOT
HETATM    1  C   UNL     1      41.512 -10.184  -0.102  1.00  0.00     0.070 C 
HETATM    2  C   UNL     1      41.082 -11.625  -0.218  1.00  0.00     0.037 C 
HETATM    3  N   UNL     1      41.052 -12.133  -1.515  1.00  0.00    -0.192 N 
HETATM    4  C   UNL     1      40.391 -13.263  -1.839  1.00  0.00     0.725 A 
HETATM    5  N   UNL     1      39.907 -14.065  -0.842  1.00  0.00    -0.084 N 
HETATM    6  N   UNL     1      39.183 -15.089  -1.343  1.00  0.00    -0.149 NA
HETATM    7  C   UNL     1      39.323 -14.867  -2.655  1.00  0.00     0.275 A 
HETATM    8  N   UNL     1      40.056 -13.761  -3.001  1.00  0.00    -0.054 NA
HETATM    9  C   UNL     1      40.109 -13.806   0.588  1.00  0.00     0.202 C 
HETATM   10  C   UNL     1      40.655 -12.397   0.815  1.00  0.00     0.062 C 
HETATM   11  H   UNL     1      41.282 -11.495  -2.273  1.00  0.00     0.184 HD
ENDROOT
BRANCH  10  12
HETATM   12  C   UNL     1      40.507 -11.919   2.218  1.00  0.00     0.256 C 
HETATM   13  N   UNL     1      41.694 -11.831   2.913  1.00  0.00    -0.323 N 
HETATM   14  H   UNL     1      42.526 -12.171   2.447  1.00  0.00     0.169 HD
HETATM   15  O   UNL     1      39.383 -11.676   2.640  1.00  0.00    -0.267 OA
BRANCH  13  16
HETATM   16  C   UNL     1      41.893 -11.242   4.181  1.00  0.00     0.035 A 
HETATM   17  C   UNL     1      41.577  -9.916   4.485  1.00  0.00     0.031 A 
HETATM   18  C   UNL     1      41.852  -9.391   5.754  1.00  0.00     0.026 A 
HETATM   19  C   UNL     1      42.447 -10.191   6.723  1.00  0.00     0.034 A 
HETATM   20 CL   UNL     1      42.803  -9.539   8.274  1.00  0.00    -0.084 Cl
HETATM   21  C   UNL     1      42.762 -11.516   6.439  1.00  0.00     0.026 A 
HETATM   22  C   UNL     1      42.479 -12.042   5.173  1.00  0.00     0.031 A 
ENDBRANCH  13  16
ENDBRANCH  10  12
BRANCH   9  23
HETATM   23  C   UNL     1      41.012 -14.880   1.191  1.00  0.00    -0.028 A 
HETATM   24  C   UNL     1      40.494 -15.960   1.925  1.00  0.00     0.012 A 
HETATM   25  C   UNL     1      41.350 -16.904   2.500  1.00  0.00     0.037 A 
HETATM   26  C   UNL     1      42.733 -16.795   2.352  1.00  0.00     0.068 A 
HETATM   27  C   UNL     1      43.256 -15.748   1.596  1.00  0.00     0.037 A 
HETATM   28  C   UNL     1      42.403 -14.801   1.018  1.00  0.00     0.012 A 
BRANCH  26  29
HETATM   29  O   UNL     1      43.455 -17.770   2.984  1.00  0.00    -0.356 OA
HETATM   30  C   UNL     1      43.748 -17.554   4.359  1.00  0.00     0.210 C 
ENDBRANCH  26  29
ENDBRANCH   9  23
TORSDOF 4
ENDMDL
MODEL 9
REMARK VINA RESULT:      -7.4      3.621      6.536
REMARK  4 active torsions:
REMARK  status: ('A' for Active; 'I' for Inactive)
REMARK    1  A    between atoms: C_9  and  C_10 
REMARK    2  A    between atoms: C_13  and  O_14 
REMARK    3  A    between atoms: C_18  and  C_19 
REMARK       I    between atoms: C_19  and  N_20 
REMARK    4  A    between atoms: N_20  and  C_21 
ROOT
HETATM    1  C   UNL     1      41.831 -10.244  -0.703  1.00  0.00     0.070 C 
HETATM    2  C   UNL     1      41.271 -11.642  -0.618  1.00  0.00     0.037 C 
HETATM    3  N   UNL     1      41.141 -12.305  -1.838  1.00  0.00    -0.192 N 
HETATM    4  C   UNL     1      40.370 -13.400  -1.992  1.00  0.00     0.725 A 
HETATM    5  N   UNL     1      39.861 -14.022  -0.885  1.00  0.00    -0.084 N 
HETATM    6  N   UNL     1      39.029 -15.029  -1.227  1.00  0.00    -0.149 NA
HETATM    7  C   UNL     1      39.131 -14.989  -2.561  1.00  0.00     0.275 A 
HETATM    8  N   UNL     1      39.943 -14.007  -3.069  1.00  0.00    -0.054 NA
HETATM    9  C   UNL     1      40.146 -13.605   0.492  1.00  0.00     0.202 C 
HETATM   10  C   UNL     1      40.823 -12.235   0.518  1.00  0.00     0.062 C 
HETATM   11  H   UNL     1      41.393 -11.791  -2.679  1.00  0.00     0.184 HD
ENDROOT
BRANCH  10  12
HETATM   12  C   UNL     1      40.778 -11.573   1.851  1.00  0.00     0.256 C 
HETATM   13  N   UNL     1      39.623 -11.812   2.563  1.00  0.00    -0.323 N 
HETATM   14  H   UNL     1      38.892 -12.331   2.093  1.00  0.00     0.169 HD
HETATM   15  O   UNL     1      41.723 -10.870   2.189  1.00  0.00    -0.267 OA
BRANCH  13  16
HETATM   16  C   UNL     1      39.373 -11.476   3.912  1.00  0.00     0.035 A 
HETATM   17  C   UNL     1      38.709 -10.317   4.319  1.00  0.00     0.031 A 
HETATM   18  C   UNL     1      38.546 -10.030   5.680  1.00  0.00     0.026 A 
HETATM   19  C   UNL     1      39.050 -10.901   6.639  1.00  0.00     0.034 A 
HETATM   20 CL   UNL     1      38.866 -10.536   8.310  1.00  0.00    -0.084 Cl
HETATM   21  C   UNL     1      39.708 -12.063   6.251  1.00  0.00     0.026 A 
HETATM   22  C   UNL     1      39.864 -12.353   4.890  1.00  0.00     0.031 A 
ENDBRANCH  13  16
ENDBRANCH  10  12
BRANCH   9  23
HETATM   23  C   UNL     1      40.977 -14.674   1.200  1.00  0.00    -0.028 A 
HETATM   24  C   UNL     1      42.319 -14.915   0.864  1.00  0.00     0.012 A 
HETATM   25  C   UNL     1      43.040 -15.929   1.501  1.00  0.00     0.037 A 
HETATM   26  C   UNL     1      42.443 -16.717   2.486  1.00  0.00     0.068 A 
HETATM   27  C   UNL     1      41.122 -16.463   2.853  1.00  0.00     0.037 A 
HETATM   28  C   UNL     1      40.397 -15.448   2.218  1.00  0.00     0.012 A 
BRANCH  26  29
HETATM   29  O   UNL     1      43.251 -17.688   3.011  1.00  0.00    -0.356 OA
HETATM   30  C   UNL     1      43.284 -18.930   2.320  1.00  0.00     0.210 C 
ENDBRANCH  26  29
ENDBRANCH   9  23
TORSDOF 4
ENDMDL
MODEL 10
REMARK VINA RESULT:      -7.4      3.883      7.745
REMARK  4 active torsions:
REMARK  status: ('A' for Active; 'I' for Inactive)
REMARK    1  A    between atoms: C_9  and  C_10 
REMARK    2  A    between atoms: C_13  and  O_14 
REMARK    3  A    between atoms: C_18  and  C_19 
REMARK       I    between atoms: C_19  and  N_20 
REMARK    4  A    between atoms: N_20  and  C_21 
ROOT
HETATM    1  C   UNL     1      43.462 -15.669   1.537  1.00  0.00     0.070 C 
HETATM    2  C   UNL     1      43.157 -15.426   2.994  1.00  0.00     0.037 C 
HETATM    3  N   UNL     1      43.612 -16.411   3.868  1.00  0.00    -0.192 N 
HETATM    4  C   UNL     1      43.153 -16.532   5.130  1.00  0.00     0.725 A 
HETATM    5  N   UNL     1      42.377 -15.536   5.659  1.00  0.00    -0.084 N 
HETATM    6  N   UNL     1      41.920 -15.869   6.885  1.00  0.00    -0.149 NA
HETATM    7  C   UNL     1      42.510 -17.058   7.051  1.00  0.00     0.275 A 
HETATM    8  N   UNL     1      43.275 -17.500   6.001  1.00  0.00    -0.054 NA
HETATM    9  C   UNL     1      42.047 -14.293   4.952  1.00  0.00     0.202 C 
HETATM   10  C   UNL     1      42.421 -14.391   3.474  1.00  0.00     0.062 C 
HETATM   11  H   UNL     1      44.072 -17.222   3.461  1.00  0.00     0.184 HD
ENDROOT
BRANCH  10  12
HETATM   12  C   UNL     1      41.765 -13.359   2.623  1.00  0.00     0.256 C 
HETATM   13  N   UNL     1      40.471 -13.664   2.262  1.00  0.00    -0.323 N 
HETATM   14  H   UNL     1      40.121 -14.576   2.528  1.00  0.00     0.169 HD
HETATM   15  O   UNL     1      42.410 -12.370   2.298  1.00  0.00    -0.267 OA
BRANCH  13  16
HETATM   16  C   UNL     1      39.545 -12.810   1.624  1.00  0.00     0.035 A 
HETATM   17  C   UNL     1      38.633 -11.999   2.304  1.00  0.00     0.031 A 
HETATM   18  C   UNL     1      37.710 -11.217   1.598  1.00  0.00     0.026 A 
HETATM   19  C   UNL     1      37.695 -11.246   0.208  1.00  0.00     0.034 A 
HETATM   20 CL   UNL     1      36.547 -10.300  -0.657  1.00  0.00    -0.084 Cl
HETATM   21  C   UNL     1      38.600 -12.043  -0.485  1.00  0.00     0.026 A 
HETATM   22  C   UNL     1      39.527 -12.818   0.222  1.00  0.00     0.031 A 
ENDBRANCH  13  16
ENDBRANCH  10  12
BRANCH   9  23
HETATM   23  C   UNL     1      42.717 -13.106   5.642  1.00  0.00    -0.028 A 
HETATM   24  C   UNL     1      44.057 -13.151   6.062  1.00  0.00     0.012 A 
HETATM   25  C   UNL     1      44.628 -12.063   6.728  1.00  0.00     0.037 A 
HETATM   26  C   UNL     1      43.883 -10.912   6.984  1.00  0.00     0.068 A 
HETATM   27  C   UNL     1      42.563 -10.843   6.539  1.00  0.00     0.037 A 
HETATM   28  C   UNL     1      41.987 -11.930   5.871  1.00  0.00     0.012 A 
BRANCH  26  29
HETATM   29  O   UNL     1      44.555  -9.934   7.663  1.00  0.00    -0.356 OA
HETATM   30  C   UNL     1      45.802 -10.301   8.238  1.00  0.00     0.210 C 
ENDBRANCH  26  29
ENDBRANCH   9  23
TORSDOF 4
ENDMDL
