MODEL 1
REMARK VINA RESULT:      -8.4      0.000      0.000
REMARK  1 active torsions:
REMARK  status: ('A' for Active; 'I' for Inactive)
REMARK    1  A    between atoms: C_8  and  C_9 
ROOT
HETATM    1  C   UNL     1      40.201 -16.077   5.679  1.00  0.00     0.073 C 
HETATM    2  C   UNL     1      40.427 -14.645   6.011  1.00  0.00     0.062 A 
HETATM    3  N   UNL     1      39.379 -13.863   6.283  1.00  0.00    -0.178 NA
HETATM    4  N   UNL     1      39.928 -12.685   6.579  1.00  0.00    -0.262 N 
HETATM    5  H   UNL     1      39.308 -11.929   6.845  1.00  0.00     0.191 HD
HETATM    6  C   UNL     1      41.292 -12.645   6.451  1.00  0.00     0.134 A 
HETATM    7  C   UNL     1      41.675 -13.929   6.095  1.00  0.00     0.032 A 
HETATM    8  C   UNL     1      43.025 -14.568   5.941  1.00  0.00     0.120 C 
HETATM    9  S   UNL     1      44.454 -13.600   6.483  1.00  0.00    -0.141 SA
HETATM   10  C   UNL     1      44.133 -12.032   5.626  1.00  0.00     0.136 C 
HETATM   11  C   UNL     1      45.480 -11.364   5.343  1.00  0.00     0.031 C 
HETATM   12  C   UNL     1      43.247 -11.130   6.475  1.00  0.00     0.236 C 
HETATM   13  O   UNL     1      43.627 -10.027   6.884  1.00  0.00    -0.272 OA
HETATM   14  N   UNL     1      41.946 -11.464   6.723  1.00  0.00    -0.311 N 
HETATM   15  H   UNL     1      41.440 -10.709   7.173  1.00  0.00     0.170 HD
ENDROOT
BRANCH   8  16
HETATM   16  C   UNL     1      43.168 -15.138   4.526  1.00  0.00    -0.029 A 
HETATM   17  C   UNL     1      43.484 -16.525   4.319  1.00  0.00    -0.018 A 
HETATM   18  C   UNL     1      43.550 -17.023   2.990  1.00  0.00    -0.025 A 
HETATM   19  C   UNL     1      43.733 -17.461   5.357  1.00  0.00     0.013 A 
HETATM   20  C   UNL     1      43.815 -18.381   2.747  1.00  0.00     0.012 A 
HETATM   21  C   UNL     1      43.348 -16.164   1.904  1.00  0.00     0.012 A 
HETATM   22  C   UNL     1      44.028 -19.272   3.794  1.00  0.00     0.001 A 
HETATM   23  C   UNL     1      43.994 -18.810   5.100  1.00  0.00     0.001 A 
HETATM   24  C   UNL     1      43.073 -14.818   2.101  1.00  0.00     0.002 A 
HETATM   25  C   UNL     1      42.981 -14.314   3.394  1.00  0.00     0.009 A 
ENDBRANCH   8  16
TORSDOF 1
ENDMDL
MODEL 2
REMARK VINA RESULT:      -7.7      3.155      4.815
REMARK  1 active torsions:
REMARK  status: ('A' for Active; 'I' for Inactive)
REMARK    1  A    between atoms: C_8  and  C_9 
ROOT
HETATM    1  C   UNL     1      43.890 -12.115   5.343  1.00  0.00     0.073 C 
HETATM    2  C   UNL     1      43.119 -11.732   4.129  1.00  0.00     0.062 A 
HETATM    3  N   UNL     1      42.880 -10.441   3.886  1.00  0.00    -0.178 NA
HETATM    4  N   UNL     1      42.227 -10.451   2.723  1.00  0.00    -0.262 N 
HETATM    5  H   UNL     1      41.959  -9.559   2.324  1.00  0.00     0.191 HD
HETATM    6  C   UNL     1      41.975 -11.702   2.223  1.00  0.00     0.134 A 
HETATM    7  C   UNL     1      42.565 -12.589   3.110  1.00  0.00     0.032 A 
HETATM    8  C   UNL     1      42.763 -14.077   3.061  1.00  0.00     0.120 C 
HETATM    9  S   UNL     1      42.347 -14.906   1.509  1.00  0.00    -0.141 SA
HETATM   10  C   UNL     1      40.683 -14.241   1.217  1.00  0.00     0.136 C 
HETATM   11  C   UNL     1      39.889 -15.286   0.430  1.00  0.00     0.031 C 
HETATM   12  C   UNL     1      40.759 -12.926   0.451  1.00  0.00     0.236 C 
HETATM   13  O   UNL     1      40.256 -12.786  -0.669  1.00  0.00    -0.272 OA
HETATM   14  N   UNL     1      41.294 -11.812   1.031  1.00  0.00    -0.311 N 
HETATM   15  H   UNL     1      41.147 -10.982   0.466  1.00  0.00     0.170 HD
ENDROOT
BRANCH   8  16
HETATM   16  C   UNL     1      42.125 -14.723   4.296  1.00  0.00    -0.029 A 
HETATM   17  C   UNL     1      42.666 -15.930   4.859  1.00  0.00    -0.018 A 
HETATM   18  C   UNL     1      42.077 -16.462   6.037  1.00  0.00    -0.025 A 
HETATM   19  C   UNL     1      43.772 -16.645   4.327  1.00  0.00     0.013 A 
HETATM   20  C   UNL     1      42.603 -17.616   6.642  1.00  0.00     0.012 A 
HETATM   21  C   UNL     1      40.964 -15.838   6.613  1.00  0.00     0.012 A 
HETATM   22  C   UNL     1      43.704 -18.273   6.104  1.00  0.00     0.001 A 
HETATM   23  C   UNL     1      44.285 -17.791   4.941  1.00  0.00     0.001 A 
HETATM   24  C   UNL     1      40.420 -14.691   6.052  1.00  0.00     0.002 A 
HETATM   25  C   UNL     1      40.995 -14.140   4.912  1.00  0.00     0.009 A 
ENDBRANCH   8  16
TORSDOF 1
ENDMDL
MODEL 3
REMARK VINA RESULT:      -7.6     15.995     17.483
REMARK  1 active torsions:
REMARK  status: ('A' for Active; 'I' for Inactive)
REMARK    1  A    between atoms: C_8  and  C_9 
ROOT
HETATM    1  C   UNL     1      44.028 -29.594   0.525  1.00  0.00     0.073 C 
HETATM    2  C   UNL     1      45.430 -29.457   1.003  1.00  0.00     0.062 A 
HETATM    3  N   UNL     1      45.667 -28.864   2.176  1.00  0.00    -0.178 NA
HETATM    4  N   UNL     1      46.990 -28.952   2.317  1.00  0.00    -0.262 N 
HETATM    5  H   UNL     1      47.400 -28.579   3.165  1.00  0.00     0.191 HD
HETATM    6  C   UNL     1      47.638 -29.525   1.254  1.00  0.00     0.134 A 
HETATM    7  C   UNL     1      46.644 -29.896   0.362  1.00  0.00     0.032 A 
HETATM    8  C   UNL     1      46.685 -30.684  -0.916  1.00  0.00     0.120 C 
HETATM    9  S   UNL     1      48.252 -31.484  -1.333  1.00  0.00    -0.141 SA
HETATM   10  C   UNL     1      49.396 -30.088  -1.137  1.00  0.00     0.136 C 
HETATM   11  C   UNL     1      50.574 -30.306  -2.089  1.00  0.00     0.031 C 
HETATM   12  C   UNL     1      49.875 -29.987   0.305  1.00  0.00     0.236 C 
HETATM   13  O   UNL     1      51.066 -30.106   0.615  1.00  0.00    -0.272 OA
HETATM   14  N   UNL     1      49.009 -29.646   1.304  1.00  0.00    -0.311 N 
HETATM   15  H   UNL     1      49.490 -29.476   2.182  1.00  0.00     0.170 HD
ENDROOT
BRANCH   8  16
HETATM   16  C   UNL     1      46.097 -29.847  -2.057  1.00  0.00    -0.029 A 
HETATM   17  C   UNL     1      45.411 -30.474  -3.154  1.00  0.00    -0.018 A 
HETATM   18  C   UNL     1      44.832 -29.655  -4.160  1.00  0.00    -0.025 A 
HETATM   19  C   UNL     1      45.252 -31.876  -3.312  1.00  0.00     0.013 A 
HETATM   20  C   UNL     1      44.116 -30.227  -5.225  1.00  0.00     0.012 A 
HETATM   21  C   UNL     1      44.965 -28.263  -4.100  1.00  0.00     0.012 A 
HETATM   22  C   UNL     1      43.962 -31.605  -5.330  1.00  0.00     0.001 A 
HETATM   23  C   UNL     1      44.536 -32.431  -4.377  1.00  0.00     0.001 A 
HETATM   24  C   UNL     1      45.655 -27.657  -3.058  1.00  0.00     0.002 A 
HETATM   25  C   UNL     1      46.209 -28.438  -2.050  1.00  0.00     0.009 A 
ENDBRANCH   8  16
TORSDOF 1
ENDMDL
MODEL 4
REMARK VINA RESULT:      -7.6      2.482      3.940
REMARK  1 active torsions:
REMARK  status: ('A' for Active; 'I' for Inactive)
REMARK    1  A    between atoms: C_8  and  C_9 
ROOT
HETATM    1  C   UNL     1      44.583 -13.547   6.519  1.00  0.00     0.073 C 
HETATM    2  C   UNL     1      43.786 -12.341   6.869  1.00  0.00     0.062 A 
HETATM    3  N   UNL     1      44.030 -11.707   8.019  1.00  0.00    -0.178 NA
HETATM    4  N   UNL     1      43.195 -10.668   7.994  1.00  0.00    -0.262 N 
HETATM    5  H   UNL     1      43.222 -10.021   8.773  1.00  0.00     0.191 HD
HETATM    6  C   UNL     1      42.367 -10.630   6.902  1.00  0.00     0.134 A 
HETATM    7  C   UNL     1      42.734 -11.709   6.113  1.00  0.00     0.032 A 
HETATM    8  C   UNL     1      42.312 -12.137   4.736  1.00  0.00     0.120 C 
HETATM    9  S   UNL     1      41.280 -10.983   3.803  1.00  0.00    -0.141 SA
HETATM   10  C   UNL     1      39.994 -10.622   5.033  1.00  0.00     0.136 C 
HETATM   11  C   UNL     1      38.703 -10.290   4.282  1.00  0.00     0.031 C 
HETATM   12  C   UNL     1      40.418  -9.463   5.926  1.00  0.00     0.236 C 
HETATM   13  O   UNL     1      39.784  -8.403   5.975  1.00  0.00    -0.272 OA
HETATM   14  N   UNL     1      41.460  -9.600   6.796  1.00  0.00    -0.311 N 
HETATM   15  H   UNL     1      41.536  -8.806   7.425  1.00  0.00     0.170 HD
ENDROOT
BRANCH   8  16
HETATM   16  C   UNL     1      41.751 -13.562   4.789  1.00  0.00    -0.029 A 
HETATM   17  C   UNL     1      42.141 -14.544   3.814  1.00  0.00    -0.018 A 
HETATM   18  C   UNL     1      41.641 -15.868   3.935  1.00  0.00    -0.025 A 
HETATM   19  C   UNL     1      43.013 -14.296   2.721  1.00  0.00     0.013 A 
HETATM   20  C   UNL     1      42.031 -16.867   3.027  1.00  0.00     0.012 A 
HETATM   21  C   UNL     1      40.752 -16.195   4.965  1.00  0.00     0.012 A 
HETATM   22  C   UNL     1      42.908 -16.588   1.983  1.00  0.00     0.001 A 
HETATM   23  C   UNL     1      43.393 -15.300   1.826  1.00  0.00     0.001 A 
HETATM   24  C   UNL     1      40.350 -15.240   5.889  1.00  0.00     0.002 A 
HETATM   25  C   UNL     1      40.845 -13.944   5.803  1.00  0.00     0.009 A 
ENDBRANCH   8  16
TORSDOF 1
ENDMDL
MODEL 5
REMARK VINA RESULT:      -7.4     16.033     17.250
REMARK  1 active torsions:
REMARK  status: ('A' for Active; 'I' for Inactive)
REMARK    1  A    between atoms: C_8  and  C_9 
ROOT
HETATM    1  C   UNL     1      47.282 -29.612   0.098  1.00  0.00     0.073 C 
HETATM    2  C   UNL     1      46.597 -30.100   1.325  1.00  0.00     0.062 A 
HETATM    3  N   UNL     1      47.328 -30.549   2.348  1.00  0.00    -0.178 NA
HETATM    4  N   UNL     1      46.423 -30.852   3.279  1.00  0.00    -0.262 N 
HETATM    5  H   UNL     1      46.760 -31.198   4.170  1.00  0.00     0.191 HD
HETATM    6  C   UNL     1      45.122 -30.677   2.885  1.00  0.00     0.134 A 
HETATM    7  C   UNL     1      45.184 -30.159   1.601  1.00  0.00     0.032 A 
HETATM    8  C   UNL     1      44.122 -29.628   0.680  1.00  0.00     0.120 C 
HETATM    9  S   UNL     1      42.465 -29.424   1.375  1.00  0.00    -0.141 SA
HETATM   10  C   UNL     1      42.222 -31.057   2.131  1.00  0.00     0.136 C 
HETATM   11  C   UNL     1      40.722 -31.360   2.124  1.00  0.00     0.031 C 
HETATM   12  C   UNL     1      42.774 -31.077   3.550  1.00  0.00     0.236 C 
HETATM   13  O   UNL     1      42.055 -31.284   4.534  1.00  0.00    -0.272 OA
HETATM   14  N   UNL     1      44.116 -30.977   3.776  1.00  0.00    -0.311 N 
HETATM   15  H   UNL     1      44.351 -31.151   4.748  1.00  0.00     0.170 HD
ENDROOT
BRANCH   8  16
HETATM   16  C   UNL     1      44.146 -30.409  -0.639  1.00  0.00    -0.029 A 
HETATM   17  C   UNL     1      44.463 -29.752  -1.878  1.00  0.00    -0.018 A 
HETATM   18  C   UNL     1      44.529 -30.526  -3.067  1.00  0.00    -0.025 A 
HETATM   19  C   UNL     1      44.731 -28.364  -2.012  1.00  0.00     0.013 A 
HETATM   20  C   UNL     1      44.878 -29.931  -4.291  1.00  0.00     0.012 A 
HETATM   21  C   UNL     1      44.251 -31.898  -3.033  1.00  0.00     0.012 A 
HETATM   22  C   UNL     1      45.158 -28.570  -4.375  1.00  0.00     0.001 A 
HETATM   23  C   UNL     1      45.078 -27.785  -3.236  1.00  0.00     0.001 A 
HETATM   24  C   UNL     1      43.913 -32.527  -1.843  1.00  0.00     0.002 A 
HETATM   25  C   UNL     1      43.865 -31.793  -0.663  1.00  0.00     0.009 A 
ENDBRANCH   8  16
TORSDOF 1
ENDMDL
MODEL 6
REMARK VINA RESULT:      -7.2      5.465      9.488
REMARK  1 active torsions:
REMARK  status: ('A' for Active; 'I' for Inactive)
REMARK    1  A    between atoms: C_8  and  C_9 
ROOT
HETATM    1  C   UNL     1      39.152  -8.131  10.079  1.00  0.00     0.073 C 
HETATM    2  C   UNL     1      39.747  -9.036   9.059  1.00  0.00     0.062 A 
HETATM    3  N   UNL     1      38.949  -9.839   8.352  1.00  0.00    -0.178 NA
HETATM    4  N   UNL     1      39.782 -10.461   7.516  1.00  0.00    -0.262 N 
HETATM    5  H   UNL     1      39.384 -11.116   6.854  1.00  0.00     0.191 HD
HETATM    6  C   UNL     1      41.104 -10.143   7.689  1.00  0.00     0.134 A 
HETATM    7  C   UNL     1      41.133  -9.184   8.690  1.00  0.00     0.032 A 
HETATM    8  C   UNL     1      42.247  -8.341   9.241  1.00  0.00     0.120 C 
HETATM    9  S   UNL     1      43.827  -8.398   8.363  1.00  0.00    -0.141 SA
HETATM   10  C   UNL     1      44.073 -10.193   8.246  1.00  0.00     0.136 C 
HETATM   11  C   UNL     1      45.578 -10.462   8.219  1.00  0.00     0.031 C 
HETATM   12  C   UNL     1      43.400 -10.745   6.996  1.00  0.00     0.236 C 
HETATM   13  O   UNL     1      44.038 -11.299   6.094  1.00  0.00    -0.272 OA
HETATM   14  N   UNL     1      42.040 -10.746   6.879  1.00  0.00    -0.311 N 
HETATM   15  H   UNL     1      41.729 -11.271   6.068  1.00  0.00     0.170 HD
ENDROOT
BRANCH   8  16
HETATM   16  C   UNL     1      42.372  -8.574  10.751  1.00  0.00    -0.029 A 
HETATM   17  C   UNL     1      42.354  -7.469  11.671  1.00  0.00    -0.018 A 
HETATM   18  C   UNL     1      42.415  -7.736  13.065  1.00  0.00    -0.025 A 
HETATM   19  C   UNL     1      42.270  -6.103  11.292  1.00  0.00     0.013 A 
HETATM   20  C   UNL     1      42.358  -6.687  13.998  1.00  0.00     0.012 A 
HETATM   21  C   UNL     1      42.529  -9.052  13.527  1.00  0.00     0.012 A 
HETATM   22  C   UNL     1      42.250  -5.363  13.586  1.00  0.00     0.001 A 
HETATM   23  C   UNL     1      42.213  -5.070  12.232  1.00  0.00     0.001 A 
HETATM   24  C   UNL     1      42.578 -10.118  12.638  1.00  0.00     0.002 A 
HETATM   25  C   UNL     1      42.497  -9.881  11.271  1.00  0.00     0.009 A 
ENDBRANCH   8  16
TORSDOF 1
ENDMDL
MODEL 7
REMARK VINA RESULT:      -6.9     15.548     17.109
REMARK  1 active torsions:
REMARK  status: ('A' for Active; 'I' for Inactive)
REMARK    1  A    between atoms: C_8  and  C_9 
ROOT
HETATM    1  C   UNL     1      48.952 -29.519  -1.045  1.00  0.00     0.073 C 
HETATM    2  C   UNL     1      47.531 -29.077  -1.025  1.00  0.00     0.062 A 
HETATM    3  N   UNL     1      47.125 -28.142  -1.887  1.00  0.00    -0.178 NA
HETATM    4  N   UNL     1      45.821 -28.022  -1.637  1.00  0.00    -0.262 N 
HETATM    5  H   UNL     1      45.290 -27.370  -2.202  1.00  0.00     0.191 HD
HETATM    6  C   UNL     1      45.367 -28.799  -0.603  1.00  0.00     0.134 A 
HETATM    7  C   UNL     1      46.461 -29.534  -0.175  1.00  0.00     0.032 A 
HETATM    8  C   UNL     1      46.593 -30.651   0.820  1.00  0.00     0.120 C 
HETATM    9  S   UNL     1      45.059 -31.341   1.483  1.00  0.00    -0.141 SA
HETATM   10  C   UNL     1      44.208 -29.820   1.993  1.00  0.00     0.136 C 
HETATM   11  C   UNL     1      43.296 -30.163   3.173  1.00  0.00     0.031 C 
HETATM   12  C   UNL     1      43.405 -29.243   0.836  1.00  0.00     0.236 C 
HETATM   13  O   UNL     1      42.176 -29.119   0.883  1.00  0.00    -0.272 OA
HETATM   14  N   UNL     1      44.034 -28.732  -0.263  1.00  0.00    -0.311 N 
HETATM   15  H   UNL     1      43.388 -28.253  -0.882  1.00  0.00     0.170 HD
ENDROOT
BRANCH   8  16
HETATM   16  C   UNL     1      47.612 -30.264   1.898  1.00  0.00    -0.029 A 
HETATM   17  C   UNL     1      48.637 -31.185   2.308  1.00  0.00    -0.018 A 
HETATM   18  C   UNL     1      49.594 -30.763   3.269  1.00  0.00    -0.025 A 
HETATM   19  C   UNL     1      48.780 -32.508   1.812  1.00  0.00     0.013 A 
HETATM   20  C   UNL     1      50.637 -31.618   3.664  1.00  0.00     0.012 A 
HETATM   21  C   UNL     1      49.512 -29.484   3.833  1.00  0.00     0.012 A 
HETATM   22  C   UNL     1      50.757 -32.899   3.136  1.00  0.00     0.001 A 
HETATM   23  C   UNL     1      49.824 -33.347   2.215  1.00  0.00     0.001 A 
HETATM   24  C   UNL     1      48.503 -28.606   3.461  1.00  0.00     0.002 A 
HETATM   25  C   UNL     1      47.570 -28.989   2.506  1.00  0.00     0.009 A 
ENDBRANCH   8  16
TORSDOF 1
ENDMDL
MODEL 8
REMARK VINA RESULT:      -6.8     15.381     17.867
REMARK  1 active torsions:
REMARK  status: ('A' for Active; 'I' for Inactive)
REMARK    1  A    between atoms: C_8  and  C_9 
ROOT
HETATM    1  C   UNL     1      43.361 -33.159  -1.430  1.00  0.00     0.073 C 
HETATM    2  C   UNL     1      43.671 -32.188  -0.347  1.00  0.00     0.062 A 
HETATM    3  N   UNL     1      42.875 -32.125   0.723  1.00  0.00    -0.178 NA
HETATM    4  N   UNL     1      43.456 -31.210   1.500  1.00  0.00    -0.262 N 
HETATM    5  H   UNL     1      43.027 -31.010   2.396  1.00  0.00     0.191 HD
HETATM    6  C   UNL     1      44.569 -30.625   0.955  1.00  0.00     0.134 A 
HETATM    7  C   UNL     1      44.766 -31.254  -0.264  1.00  0.00     0.032 A 
HETATM    8  C   UNL     1      45.879 -31.170  -1.270  1.00  0.00     0.120 C 
HETATM    9  S   UNL     1      47.351 -30.238  -0.784  1.00  0.00    -0.141 SA
HETATM   10  C   UNL     1      46.588 -28.697  -0.201  1.00  0.00     0.136 C 
HETATM   11  C   UNL     1      47.586 -27.561  -0.429  1.00  0.00     0.031 C 
HETATM   12  C   UNL     1      46.216 -28.807   1.272  1.00  0.00     0.236 C 
HETATM   13  O   UNL     1      46.711 -28.072   2.133  1.00  0.00    -0.272 OA
HETATM   14  N   UNL     1      45.229 -29.658   1.679  1.00  0.00    -0.311 N 
HETATM   15  H   UNL     1      44.990 -29.521   2.656  1.00  0.00     0.170 HD
ENDROOT
BRANCH   8  16
HETATM   16  C   UNL     1      45.312 -30.759  -2.633  1.00  0.00    -0.029 A 
HETATM   17  C   UNL     1      45.830 -31.326  -3.848  1.00  0.00    -0.018 A 
HETATM   18  C   UNL     1      45.235 -30.959  -5.085  1.00  0.00    -0.025 A 
HETATM   19  C   UNL     1      46.905 -32.251  -3.914  1.00  0.00     0.013 A 
HETATM   20  C   UNL     1      45.685 -31.524  -6.291  1.00  0.00     0.012 A 
HETATM   21  C   UNL     1      44.189 -30.030  -5.117  1.00  0.00     0.012 A 
HETATM   22  C   UNL     1      46.726 -32.447  -6.310  1.00  0.00     0.001 A 
HETATM   23  C   UNL     1      47.341 -32.805  -5.122  1.00  0.00     0.001 A 
HETATM   24  C   UNL     1      43.709 -29.458  -3.947  1.00  0.00     0.002 A 
HETATM   25  C   UNL     1      44.260 -29.820  -2.724  1.00  0.00     0.009 A 
ENDBRANCH   8  16
TORSDOF 1
ENDMDL
MODEL 9
REMARK VINA RESULT:      -6.5      8.349     11.958
REMARK  1 active torsions:
REMARK  status: ('A' for Active; 'I' for Inactive)
REMARK    1  A    between atoms: C_8  and  C_9 
ROOT
HETATM    1  C   UNL     1      43.180  -7.858  13.547  1.00  0.00     0.073 C 
HETATM    2  C   UNL     1      42.598  -8.635  12.419  1.00  0.00     0.062 A 
HETATM    3  N   UNL     1      43.154  -9.798  12.071  1.00  0.00    -0.178 NA
HETATM    4  N   UNL     1      42.373 -10.242  11.085  1.00  0.00    -0.262 N 
HETATM    5  H   UNL     1      42.597 -11.141  10.674  1.00  0.00     0.191 HD
HETATM    6  C   UNL     1      41.362  -9.387  10.731  1.00  0.00     0.134 A 
HETATM    7  C   UNL     1      41.456  -8.312  11.602  1.00  0.00     0.032 A 
HETATM    8  C   UNL     1      40.569  -7.120  11.825  1.00  0.00     0.120 C 
HETATM    9  S   UNL     1      38.977  -7.114  10.969  1.00  0.00    -0.141 SA
HETATM   10  C   UNL     1      39.512  -7.493   9.276  1.00  0.00     0.136 C 
HETATM   11  C   UNL     1      38.516  -6.848   8.311  1.00  0.00     0.031 C 
HETATM   12  C   UNL     1      39.580  -8.999   9.061  1.00  0.00     0.236 C 
HETATM   13  O   UNL     1      38.877  -9.578   8.225  1.00  0.00    -0.272 OA
HETATM   14  N   UNL     1      40.512  -9.755   9.713  1.00  0.00    -0.311 N 
HETATM   15  H   UNL     1      40.537 -10.708   9.366  1.00  0.00     0.170 HD
ENDROOT
BRANCH   8  16
HETATM   16  C   UNL     1      41.378  -5.833  11.632  1.00  0.00    -0.029 A 
HETATM   17  C   UNL     1      41.397  -4.815  12.648  1.00  0.00    -0.018 A 
HETATM   18  C   UNL     1      42.206  -3.664  12.451  1.00  0.00    -0.025 A 
HETATM   19  C   UNL     1      40.664  -4.872  13.863  1.00  0.00     0.013 A 
HETATM   20  C   UNL     1      42.285  -2.667  13.438  1.00  0.00     0.012 A 
HETATM   21  C   UNL     1      42.939  -3.511  11.269  1.00  0.00     0.012 A 
HETATM   22  C   UNL     1      41.569  -2.772  14.626  1.00  0.00     0.001 A 
HETATM   23  C   UNL     1      40.753  -3.872  14.836  1.00  0.00     0.001 A 
HETATM   24  C   UNL     1      42.897  -4.478  10.274  1.00  0.00     0.002 A 
HETATM   25  C   UNL     1      42.131  -5.623  10.455  1.00  0.00     0.009 A 
ENDBRANCH   8  16
TORSDOF 1
ENDMDL
MODEL 10
REMARK VINA RESULT:      -6.5      3.330      5.773
REMARK  1 active torsions:
REMARK  status: ('A' for Active; 'I' for Inactive)
REMARK    1  A    between atoms: C_8  and  C_9 
ROOT
HETATM    1  C   UNL     1      40.834 -10.654   4.499  1.00  0.00     0.073 C 
HETATM    2  C   UNL     1      40.121 -11.662   3.669  1.00  0.00     0.062 A 
HETATM    3  N   UNL     1      38.835 -11.469   3.366  1.00  0.00    -0.178 NA
HETATM    4  N   UNL     1      38.530 -12.509   2.589  1.00  0.00    -0.262 N 
HETATM    5  H   UNL     1      37.590 -12.559   2.214  1.00  0.00     0.191 HD
HETATM    6  C   UNL     1      39.549 -13.410   2.419  1.00  0.00     0.134 A 
HETATM    7  C   UNL     1      40.635 -12.883   3.101  1.00  0.00     0.032 A 
HETATM    8  C   UNL     1      42.072 -13.313   3.185  1.00  0.00     0.120 C 
HETATM    9  S   UNL     1      42.595 -14.642   2.076  1.00  0.00    -0.141 SA
HETATM   10  C   UNL     1      41.300 -15.872   2.404  1.00  0.00     0.136 C 
HETATM   11  C   UNL     1      41.898 -17.260   2.170  1.00  0.00     0.031 C 
HETATM   12  C   UNL     1      40.098 -15.638   1.497  1.00  0.00     0.236 C 
HETATM   13  O   UNL     1      39.719 -16.480   0.675  1.00  0.00    -0.272 OA
HETATM   14  N   UNL     1      39.323 -14.524   1.642  1.00  0.00    -0.311 N 
HETATM   15  H   UNL     1      38.482 -14.571   1.076  1.00  0.00     0.170 HD
ENDROOT
BRANCH   8  16
HETATM   16  C   UNL     1      42.455 -13.547   4.651  1.00  0.00    -0.029 A 
HETATM   17  C   UNL     1      43.496 -12.775   5.273  1.00  0.00    -0.018 A 
HETATM   18  C   UNL     1      43.778 -12.986   6.649  1.00  0.00    -0.025 A 
HETATM   19  C   UNL     1      44.277 -11.790   4.612  1.00  0.00     0.013 A 
HETATM   20  C   UNL     1      44.759 -12.222   7.304  1.00  0.00     0.012 A 
HETATM   21  C   UNL     1      43.077 -13.958   7.372  1.00  0.00     0.012 A 
HETATM   22  C   UNL     1      45.485 -11.248   6.626  1.00  0.00     0.001 A 
HETATM   23  C   UNL     1      45.249 -11.037   5.277  1.00  0.00     0.001 A 
HETATM   24  C   UNL     1      42.093 -14.726   6.765  1.00  0.00     0.002 A 
HETATM   25  C   UNL     1      41.785 -14.520   5.425  1.00  0.00     0.009 A 
ENDBRANCH   8  16
TORSDOF 1
ENDMDL
