MODEL 1
REMARK VINA RESULT:      -8.4      0.000      0.000
REMARK  10 active torsions:
REMARK  status: ('A' for Active; 'I' for Inactive)
REMARK    1  A    between atoms: C_2  and  O_3 
REMARK    2  A    between atoms: O_3  and  C_4 
REMARK    3  A    between atoms: C_9  and  C_10 
REMARK    4  A    between atoms: C_10  and  O_11 
REMARK    5  A    between atoms: O_11  and  C_12 
REMARK    6  A    between atoms: C_12  and  C_13 
REMARK       I    between atoms: C_13  and  N_14 
REMARK    7  A    between atoms: N_14  and  C_15 
REMARK    8  A    between atoms: C_16  and  C_17 
REMARK       I    between atoms: C_17  and  N_18 
REMARK    9  A    between atoms: N_18  and  C_19 
REMARK   10  A    between atoms: C_19  and  C_20 
ROOT
HETATM    1  C   UNL     1      42.688 -11.536   4.800  1.00  0.00     0.050 A 
HETATM    2  C   UNL     1      42.407 -12.844   4.351  1.00  0.00     0.058 A 
HETATM    3  C   UNL     1      41.960 -13.071   3.039  1.00  0.00     0.019 A 
HETATM    4  C   UNL     1      41.749 -12.001   2.175  1.00  0.00     0.001 A 
HETATM    5  C   UNL     1      41.981 -10.704   2.621  1.00  0.00     0.002 A 
HETATM    6  C   UNL     1      42.447 -10.473   3.921  1.00  0.00     0.030 A 
ENDROOT
BRANCH   1   7
HETATM    7  N   UNL     1      43.276 -11.339   6.078  1.00  0.00    -0.324 N 
HETATM    8  C   UNL     1      44.625 -11.243   6.374  1.00  0.00     0.246 C 
HETATM    9  O   UNL     1      45.531 -11.107   5.555  1.00  0.00    -0.271 OA
HETATM   10  H   UNL     1      42.634 -11.400   6.867  1.00  0.00     0.169 HD
BRANCH   8  11
HETATM   11  C   UNL     1      44.931 -11.314   7.876  1.00  0.00     0.282 C 
BRANCH  11  12
HETATM   12  O   UNL     1      45.807 -10.268   8.294  1.00  0.00    -0.308 OA
BRANCH  12  13
HETATM   13  C   UNL     1      45.183  -9.105   8.588  1.00  0.00     0.298 C 
HETATM   14  O   UNL     1      45.528  -8.005   8.178  1.00  0.00    -0.259 OA
BRANCH  13  15
HETATM   15  C   UNL     1      44.060  -9.281   9.534  1.00  0.00     0.092 A 
HETATM   16  C   UNL     1      42.712  -9.241   9.187  1.00  0.00     0.180 A 
HETATM   17  N   UNL     1      41.711  -9.389  10.095  1.00  0.00    -0.236 NA
HETATM   18  C   UNL     1      42.060  -9.568  11.386  1.00  0.00     0.119 A 
HETATM   19  C   UNL     1      43.369  -9.607  11.829  1.00  0.00     0.020 A 
HETATM   20  C   UNL     1      44.381  -9.459  10.887  1.00  0.00     0.023 A 
BRANCH  16  21
HETATM   21  O   UNL     1      42.361  -8.996   7.878  1.00  0.00    -0.334 OA
BRANCH  21  22
HETATM   22  C   UNL     1      41.412  -7.942   7.709  1.00  0.00     0.173 C 
HETATM   23  C   UNL     1      42.165  -6.624   7.756  1.00  0.00     0.034 C 
ENDBRANCH  21  22
ENDBRANCH  16  21
ENDBRANCH  13  15
ENDBRANCH  12  13
ENDBRANCH  11  12
ENDBRANCH   8  11
ENDBRANCH   1   7
BRANCH   2  24
HETATM   24  C   UNL     1      42.490 -14.041   5.229  1.00  0.00     0.254 C 
HETATM   25  N   UNL     1      43.223 -15.092   4.720  1.00  0.00    -0.349 N 
HETATM   26  H   UNL     1      43.643 -15.001   3.803  1.00  0.00     0.163 HD
HETATM   27  O   UNL     1      41.978 -14.035   6.341  1.00  0.00    -0.268 OA
BRANCH  25  28
HETATM   28  C   UNL     1      43.390 -16.344   5.436  1.00  0.00     0.114 C 
HETATM   29  C   UNL     1      44.602 -16.258   6.367  1.00  0.00     0.037 C 
BRANCH  28  30
HETATM   30  C   UNL     1      43.451 -17.493   4.444  1.00  0.00    -0.036 A 
HETATM   31  C   UNL     1      44.033 -18.734   4.746  1.00  0.00     0.009 A 
HETATM   32  C   UNL     1      44.066 -19.756   3.792  1.00  0.00     0.001 A 
HETATM   33  C   UNL     1      43.530 -19.549   2.523  1.00  0.00     0.000 A 
HETATM   34  C   UNL     1      42.967 -18.318   2.200  1.00  0.00     0.001 A 
HETATM   35  C   UNL     1      42.934 -17.297   3.151  1.00  0.00     0.009 A 
ENDBRANCH  28  30
ENDBRANCH  25  28
ENDBRANCH   2  24
TORSDOF 10
ENDMDL
MODEL 2
REMARK VINA RESULT:      -8.4      1.513      2.085
REMARK  10 active torsions:
REMARK  status: ('A' for Active; 'I' for Inactive)
REMARK    1  A    between atoms: C_2  and  O_3 
REMARK    2  A    between atoms: O_3  and  C_4 
REMARK    3  A    between atoms: C_9  and  C_10 
REMARK    4  A    between atoms: C_10  and  O_11 
REMARK    5  A    between atoms: O_11  and  C_12 
REMARK    6  A    between atoms: C_12  and  C_13 
REMARK       I    between atoms: C_13  and  N_14 
REMARK    7  A    between atoms: N_14  and  C_15 
REMARK    8  A    between atoms: C_16  and  C_17 
REMARK       I    between atoms: C_17  and  N_18 
REMARK    9  A    between atoms: N_18  and  C_19 
REMARK   10  A    between atoms: C_19  and  C_20 
ROOT
HETATM    1  C   UNL     1      42.135 -11.840   5.498  1.00  0.00     0.050 A 
HETATM    2  C   UNL     1      41.714 -12.719   4.478  1.00  0.00     0.058 A 
HETATM    3  C   UNL     1      40.349 -12.967   4.262  1.00  0.00     0.019 A 
HETATM    4  C   UNL     1      39.391 -12.377   5.082  1.00  0.00     0.001 A 
HETATM    5  C   UNL     1      39.796 -11.543   6.119  1.00  0.00     0.002 A 
HETATM    6  C   UNL     1      41.154 -11.276   6.325  1.00  0.00     0.030 A 
ENDROOT
BRANCH   1   7
HETATM    7  N   UNL     1      43.506 -11.489   5.608  1.00  0.00    -0.324 N 
HETATM    8  C   UNL     1      44.397 -11.882   6.592  1.00  0.00     0.246 C 
HETATM    9  O   UNL     1      44.202 -12.766   7.424  1.00  0.00    -0.271 OA
HETATM   10  H   UNL     1      43.826 -10.773   4.957  1.00  0.00     0.169 HD
BRANCH   8  11
HETATM   11  C   UNL     1      45.719 -11.103   6.572  1.00  0.00     0.282 C 
BRANCH  11  12
HETATM   12  O   UNL     1      46.140 -10.728   7.883  1.00  0.00    -0.308 OA
BRANCH  12  13
HETATM   13  C   UNL     1      45.702  -9.511   8.279  1.00  0.00     0.298 C 
HETATM   14  O   UNL     1      46.222  -8.448   7.968  1.00  0.00    -0.259 OA
BRANCH  13  15
HETATM   15  C   UNL     1      44.554  -9.590   9.207  1.00  0.00     0.092 A 
HETATM   16  C   UNL     1      43.257  -9.180   8.906  1.00  0.00     0.180 A 
HETATM   17  N   UNL     1      42.234  -9.252   9.799  1.00  0.00    -0.236 NA
HETATM   18  C   UNL     1      42.510  -9.734  11.029  1.00  0.00     0.119 A 
HETATM   19  C   UNL     1      43.767 -10.151  11.425  1.00  0.00     0.020 A 
HETATM   20  C   UNL     1      44.802 -10.075  10.498  1.00  0.00     0.023 A 
BRANCH  16  21
HETATM   21  O   UNL     1      42.994  -8.631   7.670  1.00  0.00    -0.334 OA
BRANCH  21  22
HETATM   22  C   UNL     1      42.244  -7.417   7.712  1.00  0.00     0.173 C 
HETATM   23  C   UNL     1      41.073  -7.558   6.755  1.00  0.00     0.034 C 
ENDBRANCH  21  22
ENDBRANCH  16  21
ENDBRANCH  13  15
ENDBRANCH  12  13
ENDBRANCH  11  12
ENDBRANCH   8  11
ENDBRANCH   1   7
BRANCH   2  24
HETATM   24  C   UNL     1      42.660 -13.486   3.624  1.00  0.00     0.254 C 
HETATM   25  N   UNL     1      42.438 -14.846   3.579  1.00  0.00    -0.349 N 
HETATM   26  H   UNL     1      41.677 -15.239   4.119  1.00  0.00     0.163 HD
HETATM   27  O   UNL     1      43.525 -12.908   2.979  1.00  0.00    -0.268 OA
BRANCH  25  28
HETATM   28  C   UNL     1      43.278 -15.747   2.810  1.00  0.00     0.114 C 
HETATM   29  C   UNL     1      42.663 -15.987   1.430  1.00  0.00     0.037 C 
BRANCH  28  30
HETATM   30  C   UNL     1      43.526 -17.016   3.608  1.00  0.00    -0.036 A 
HETATM   31  C   UNL     1      43.567 -17.041   5.011  1.00  0.00     0.009 A 
HETATM   32  C   UNL     1      43.804 -18.238   5.695  1.00  0.00     0.001 A 
HETATM   33  C   UNL     1      44.016 -19.420   4.988  1.00  0.00     0.000 A 
HETATM   34  C   UNL     1      43.999 -19.409   3.597  1.00  0.00     0.001 A 
HETATM   35  C   UNL     1      43.763 -18.215   2.913  1.00  0.00     0.009 A 
ENDBRANCH  28  30
ENDBRANCH  25  28
ENDBRANCH   2  24
TORSDOF 10
ENDMDL
MODEL 3
REMARK VINA RESULT:      -8.1      2.442      5.409
REMARK  10 active torsions:
REMARK  status: ('A' for Active; 'I' for Inactive)
REMARK    1  A    between atoms: C_2  and  O_3 
REMARK    2  A    between atoms: O_3  and  C_4 
REMARK    3  A    between atoms: C_9  and  C_10 
REMARK    4  A    between atoms: C_10  and  O_11 
REMARK    5  A    between atoms: O_11  and  C_12 
REMARK    6  A    between atoms: C_12  and  C_13 
REMARK       I    between atoms: C_13  and  N_14 
REMARK    7  A    between atoms: N_14  and  C_15 
REMARK    8  A    between atoms: C_16  and  C_17 
REMARK       I    between atoms: C_17  and  N_18 
REMARK    9  A    between atoms: N_18  and  C_19 
REMARK   10  A    between atoms: C_19  and  C_20 
ROOT
HETATM    1  C   UNL     1      43.558 -16.672   4.216  1.00  0.00     0.050 A 
HETATM    2  C   UNL     1      43.019 -16.401   2.941  1.00  0.00     0.058 A 
HETATM    3  C   UNL     1      42.850 -17.430   2.000  1.00  0.00     0.019 A 
HETATM    4  C   UNL     1      43.253 -18.728   2.301  1.00  0.00     0.001 A 
HETATM    5  C   UNL     1      43.826 -18.998   3.540  1.00  0.00     0.002 A 
HETATM    6  C   UNL     1      43.976 -17.980   4.489  1.00  0.00     0.030 A 
ENDROOT
BRANCH   1   7
HETATM    7  N   UNL     1      43.585 -15.651   5.202  1.00  0.00    -0.324 N 
HETATM    8  C   UNL     1      42.770 -15.538   6.316  1.00  0.00     0.246 C 
HETATM    9  O   UNL     1      42.022 -16.412   6.748  1.00  0.00    -0.271 OA
HETATM   10  H   UNL     1      44.189 -14.858   4.992  1.00  0.00     0.169 HD
BRANCH   8  11
HETATM   11  C   UNL     1      42.873 -14.177   7.018  1.00  0.00     0.282 C 
BRANCH  11  12
HETATM   12  O   UNL     1      44.133 -13.550   6.788  1.00  0.00    -0.308 OA
BRANCH  12  13
HETATM   13  C   UNL     1      44.056 -12.380   6.113  1.00  0.00     0.298 C 
HETATM   14  O   UNL     1      43.726 -12.272   4.940  1.00  0.00    -0.259 OA
BRANCH  13  15
HETATM   15  C   UNL     1      44.490 -11.222   6.924  1.00  0.00     0.092 A 
HETATM   16  C   UNL     1      43.637 -10.267   7.470  1.00  0.00     0.180 A 
HETATM   17  N   UNL     1      44.082  -9.205   8.194  1.00  0.00    -0.236 NA
HETATM   18  C   UNL     1      45.415  -9.083   8.368  1.00  0.00     0.119 A 
HETATM   19  C   UNL     1      46.341  -9.971   7.853  1.00  0.00     0.020 A 
HETATM   20  C   UNL     1      45.868 -11.054   7.119  1.00  0.00     0.023 A 
BRANCH  16  21
HETATM   21  O   UNL     1      42.282 -10.362   7.237  1.00  0.00    -0.334 OA
BRANCH  21  22
HETATM   22  C   UNL     1      41.705  -9.203   6.635  1.00  0.00     0.173 C 
HETATM   23  C   UNL     1      41.667  -9.426   5.134  1.00  0.00     0.034 C 
ENDBRANCH  21  22
ENDBRANCH  16  21
ENDBRANCH  13  15
ENDBRANCH  12  13
ENDBRANCH  11  12
ENDBRANCH   8  11
ENDBRANCH   1   7
BRANCH   2  24
HETATM   24  C   UNL     1      42.665 -15.032   2.480  1.00  0.00     0.254 C 
HETATM   25  N   UNL     1      41.316 -14.792   2.335  1.00  0.00    -0.349 N 
HETATM   26  H   UNL     1      40.659 -15.538   2.531  1.00  0.00     0.163 HD
HETATM   27  O   UNL     1      43.536 -14.189   2.308  1.00  0.00    -0.268 OA
BRANCH  25  28
HETATM   28  C   UNL     1      40.796 -13.517   1.875  1.00  0.00     0.114 C 
HETATM   29  C   UNL     1      39.630 -13.076   2.764  1.00  0.00     0.037 C 
BRANCH  28  30
HETATM   30  C   UNL     1      40.451 -13.610   0.399  1.00  0.00    -0.036 A 
HETATM   31  C   UNL     1      39.805 -14.720  -0.167  1.00  0.00     0.009 A 
HETATM   32  C   UNL     1      39.516 -14.755  -1.534  1.00  0.00     0.001 A 
HETATM   33  C   UNL     1      39.877 -13.690  -2.356  1.00  0.00     0.000 A 
HETATM   34  C   UNL     1      40.536 -12.590  -1.815  1.00  0.00     0.001 A 
HETATM   35  C   UNL     1      40.826 -12.554  -0.451  1.00  0.00     0.009 A 
ENDBRANCH  28  30
ENDBRANCH  25  28
ENDBRANCH   2  24
TORSDOF 10
ENDMDL
MODEL 4
REMARK VINA RESULT:      -8.0      4.384      8.708
REMARK  10 active torsions:
REMARK  status: ('A' for Active; 'I' for Inactive)
REMARK    1  A    between atoms: C_2  and  O_3 
REMARK    2  A    between atoms: O_3  and  C_4 
REMARK    3  A    between atoms: C_9  and  C_10 
REMARK    4  A    between atoms: C_10  and  O_11 
REMARK    5  A    between atoms: O_11  and  C_12 
REMARK    6  A    between atoms: C_12  and  C_13 
REMARK       I    between atoms: C_13  and  N_14 
REMARK    7  A    between atoms: N_14  and  C_15 
REMARK    8  A    between atoms: C_16  and  C_17 
REMARK       I    between atoms: C_17  and  N_18 
REMARK    9  A    between atoms: N_18  and  C_19 
REMARK   10  A    between atoms: C_19  and  C_20 
ROOT
HETATM    1  C   UNL     1      43.469 -18.255   3.159  1.00  0.00     0.050 A 
HETATM    2  C   UNL     1      43.686 -18.414   4.544  1.00  0.00     0.058 A 
HETATM    3  C   UNL     1      44.010 -19.672   5.080  1.00  0.00     0.019 A 
HETATM    4  C   UNL     1      44.080 -20.789   4.253  1.00  0.00     0.001 A 
HETATM    5  C   UNL     1      43.825 -20.652   2.893  1.00  0.00     0.002 A 
HETATM    6  C   UNL     1      43.524 -19.397   2.350  1.00  0.00     0.030 A 
ENDROOT
BRANCH   1   7
HETATM    7  N   UNL     1      43.288 -16.955   2.617  1.00  0.00    -0.324 N 
HETATM    8  C   UNL     1      42.089 -16.320   2.344  1.00  0.00     0.246 C 
HETATM    9  O   UNL     1      40.978 -16.695   2.716  1.00  0.00    -0.271 OA
HETATM   10  H   UNL     1      44.137 -16.501   2.284  1.00  0.00     0.169 HD
BRANCH   8  11
HETATM   11  C   UNL     1      42.245 -15.044   1.507  1.00  0.00     0.282 C 
BRANCH  11  12
HETATM   12  O   UNL     1      41.099 -14.791   0.697  1.00  0.00    -0.308 OA
BRANCH  12  13
HETATM   13  C   UNL     1      40.341 -13.752   1.116  1.00  0.00     0.298 C 
HETATM   14  O   UNL     1      39.658 -13.752   2.132  1.00  0.00    -0.259 OA
BRANCH  13  15
HETATM   15  C   UNL     1      40.354 -12.615   0.171  1.00  0.00     0.092 A 
HETATM   16  C   UNL     1      39.640 -12.563  -1.023  1.00  0.00     0.180 A 
HETATM   17  N   UNL     1      39.698 -11.504  -1.874  1.00  0.00    -0.236 NA
HETATM   18  C   UNL     1      40.500 -10.473  -1.534  1.00  0.00     0.119 A 
HETATM   19  C   UNL     1      41.258 -10.439  -0.379  1.00  0.00     0.020 A 
HETATM   20  C   UNL     1      41.183 -11.529   0.483  1.00  0.00     0.023 A 
BRANCH  16  21
HETATM   21  O   UNL     1      38.872 -13.645  -1.396  1.00  0.00    -0.334 OA
BRANCH  21  22
HETATM   22  C   UNL     1      39.409 -14.404  -2.479  1.00  0.00     0.173 C 
HETATM   23  C   UNL     1      38.276 -14.706  -3.444  1.00  0.00     0.034 C 
ENDBRANCH  21  22
ENDBRANCH  16  21
ENDBRANCH  13  15
ENDBRANCH  12  13
ENDBRANCH  11  12
ENDBRANCH   8  11
ENDBRANCH   1   7
BRANCH   2  24
HETATM   24  C   UNL     1      43.522 -17.310   5.526  1.00  0.00     0.254 C 
HETATM   25  N   UNL     1      42.233 -16.845   5.675  1.00  0.00    -0.349 N 
HETATM   26  H   UNL     1      41.493 -17.258   5.121  1.00  0.00     0.163 HD
HETATM   27  O   UNL     1      44.478 -16.907   6.176  1.00  0.00    -0.268 OA
BRANCH  25  28
HETATM   28  C   UNL     1      41.896 -15.757   6.577  1.00  0.00     0.114 C 
HETATM   29  C   UNL     1      40.379 -15.683   6.764  1.00  0.00     0.037 C 
BRANCH  28  30
HETATM   30  C   UNL     1      42.523 -14.468   6.074  1.00  0.00    -0.036 A 
HETATM   31  C   UNL     1      43.525 -13.780   6.777  1.00  0.00     0.009 A 
HETATM   32  C   UNL     1      44.064 -12.594   6.270  1.00  0.00     0.001 A 
HETATM   33  C   UNL     1      43.600 -12.072   5.064  1.00  0.00     0.000 A 
HETATM   34  C   UNL     1      42.593 -12.729   4.365  1.00  0.00     0.001 A 
HETATM   35  C   UNL     1      42.054 -13.913   4.870  1.00  0.00     0.009 A 
ENDBRANCH  28  30
ENDBRANCH  25  28
ENDBRANCH   2  24
TORSDOF 10
ENDMDL
MODEL 5
REMARK VINA RESULT:      -7.9      2.122      3.476
REMARK  10 active torsions:
REMARK  status: ('A' for Active; 'I' for Inactive)
REMARK    1  A    between atoms: C_2  and  O_3 
REMARK    2  A    between atoms: O_3  and  C_4 
REMARK    3  A    between atoms: C_9  and  C_10 
REMARK    4  A    between atoms: C_10  and  O_11 
REMARK    5  A    between atoms: O_11  and  C_12 
REMARK    6  A    between atoms: C_12  and  C_13 
REMARK       I    between atoms: C_13  and  N_14 
REMARK    7  A    between atoms: N_14  and  C_15 
REMARK    8  A    between atoms: C_16  and  C_17 
REMARK       I    between atoms: C_17  and  N_18 
REMARK    9  A    between atoms: N_18  and  C_19 
REMARK   10  A    between atoms: C_19  and  C_20 
ROOT
HETATM    1  C   UNL     1      40.761 -13.807   3.208  1.00  0.00     0.050 A 
HETATM    2  C   UNL     1      40.956 -15.201   3.108  1.00  0.00     0.058 A 
HETATM    3  C   UNL     1      40.640 -15.886   1.924  1.00  0.00     0.019 A 
HETATM    4  C   UNL     1      40.091 -15.202   0.844  1.00  0.00     0.001 A 
HETATM    5  C   UNL     1      39.854 -13.836   0.946  1.00  0.00     0.002 A 
HETATM    6  C   UNL     1      40.186 -13.144   2.116  1.00  0.00     0.030 A 
ENDROOT
BRANCH   1   7
HETATM    7  N   UNL     1      41.220 -13.110   4.357  1.00  0.00    -0.324 N 
HETATM    8  C   UNL     1      40.458 -12.638   5.412  1.00  0.00     0.246 C 
HETATM    9  O   UNL     1      39.282 -12.922   5.631  1.00  0.00    -0.271 OA
HETATM   10  H   UNL     1      42.198 -12.825   4.331  1.00  0.00     0.169 HD
BRANCH   8  11
HETATM   11  C   UNL     1      41.221 -11.689   6.346  1.00  0.00     0.282 C 
BRANCH  11  12
HETATM   12  O   UNL     1      42.595 -11.568   5.980  1.00  0.00    -0.308 OA
BRANCH  12  13
HETATM   13  C   UNL     1      43.459 -12.076   6.889  1.00  0.00     0.298 C 
HETATM   14  O   UNL     1      43.426 -13.221   7.317  1.00  0.00    -0.259 OA
BRANCH  13  15
HETATM   15  C   UNL     1      44.423 -11.071   7.385  1.00  0.00     0.092 A 
HETATM   16  C   UNL     1      44.102 -10.001   8.217  1.00  0.00     0.180 A 
HETATM   17  N   UNL     1      45.019  -9.088   8.633  1.00  0.00    -0.236 NA
HETATM   18  C   UNL     1      46.289  -9.234   8.199  1.00  0.00     0.119 A 
HETATM   19  C   UNL     1      46.700 -10.253   7.360  1.00  0.00     0.020 A 
HETATM   20  C   UNL     1      45.751 -11.182   6.947  1.00  0.00     0.023 A 
BRANCH  16  21
HETATM   21  O   UNL     1      42.793  -9.821   8.607  1.00  0.00    -0.334 OA
BRANCH  21  22
HETATM   22  C   UNL     1      42.337  -8.470   8.532  1.00  0.00     0.173 C 
HETATM   23  C   UNL     1      42.041  -8.157   7.076  1.00  0.00     0.034 C 
ENDBRANCH  21  22
ENDBRANCH  16  21
ENDBRANCH  13  15
ENDBRANCH  12  13
ENDBRANCH  11  12
ENDBRANCH   8  11
ENDBRANCH   1   7
BRANCH   2  24
HETATM   24  C   UNL     1      41.428 -16.040   4.242  1.00  0.00     0.254 C 
HETATM   25  N   UNL     1      42.775 -16.334   4.233  1.00  0.00    -0.349 N 
HETATM   26  H   UNL     1      43.350 -15.985   3.476  1.00  0.00     0.163 HD
HETATM   27  O   UNL     1      40.656 -16.378   5.130  1.00  0.00    -0.268 OA
BRANCH  25  28
HETATM   28  C   UNL     1      43.400 -17.157   5.253  1.00  0.00     0.114 C 
HETATM   29  C   UNL     1      44.668 -16.475   5.772  1.00  0.00     0.037 C 
BRANCH  28  30
HETATM   30  C   UNL     1      43.626 -18.557   4.708  1.00  0.00    -0.036 A 
HETATM   31  C   UNL     1      43.662 -18.847   3.336  1.00  0.00     0.009 A 
HETATM   32  C   UNL     1      43.870 -20.156   2.890  1.00  0.00     0.001 A 
HETATM   33  C   UNL     1      44.030 -21.192   3.807  1.00  0.00     0.000 A 
HETATM   34  C   UNL     1      43.976 -20.926   5.171  1.00  0.00     0.001 A 
HETATM   35  C   UNL     1      43.769 -19.620   5.617  1.00  0.00     0.009 A 
ENDBRANCH  28  30
ENDBRANCH  25  28
ENDBRANCH   2  24
TORSDOF 10
ENDMDL
MODEL 6
REMARK VINA RESULT:      -7.9      3.848      7.818
REMARK  10 active torsions:
REMARK  status: ('A' for Active; 'I' for Inactive)
REMARK    1  A    between atoms: C_2  and  O_3 
REMARK    2  A    between atoms: O_3  and  C_4 
REMARK    3  A    between atoms: C_9  and  C_10 
REMARK    4  A    between atoms: C_10  and  O_11 
REMARK    5  A    between atoms: O_11  and  C_12 
REMARK    6  A    between atoms: C_12  and  C_13 
REMARK       I    between atoms: C_13  and  N_14 
REMARK    7  A    between atoms: N_14  and  C_15 
REMARK    8  A    between atoms: C_16  and  C_17 
REMARK       I    between atoms: C_17  and  N_18 
REMARK    9  A    between atoms: N_18  and  C_19 
REMARK   10  A    between atoms: C_19  and  C_20 
ROOT
HETATM    1  C   UNL     1      42.110 -11.706   4.944  1.00  0.00     0.050 A 
HETATM    2  C   UNL     1      42.941 -12.841   4.845  1.00  0.00     0.058 A 
HETATM    3  C   UNL     1      43.841 -13.164   5.874  1.00  0.00     0.019 A 
HETATM    4  C   UNL     1      43.953 -12.342   6.991  1.00  0.00     0.001 A 
HETATM    5  C   UNL     1      43.169 -11.196   7.080  1.00  0.00     0.002 A 
HETATM    6  C   UNL     1      42.255 -10.881   6.067  1.00  0.00     0.030 A 
ENDROOT
BRANCH   1   7
HETATM    7  N   UNL     1      41.107 -11.477   3.966  1.00  0.00    -0.324 N 
HETATM    8  C   UNL     1      39.836 -12.025   3.923  1.00  0.00     0.246 C 
HETATM    9  O   UNL     1      39.291 -12.643   4.835  1.00  0.00    -0.271 OA
HETATM   10  H   UNL     1      41.408 -10.949   3.149  1.00  0.00     0.169 HD
BRANCH   8  11
HETATM   11  C   UNL     1      39.110 -11.792   2.591  1.00  0.00     0.282 C 
BRANCH  11  12
HETATM   12  O   UNL     1      39.280 -12.885   1.690  1.00  0.00    -0.308 OA
BRANCH  12  13
HETATM   13  C   UNL     1      40.137 -12.639   0.673  1.00  0.00     0.298 C 
HETATM   14  O   UNL     1      41.229 -12.101   0.796  1.00  0.00    -0.259 OA
BRANCH  13  15
HETATM   15  C   UNL     1      39.586 -13.020  -0.645  1.00  0.00     0.092 A 
HETATM   16  C   UNL     1      39.046 -12.130  -1.571  1.00  0.00     0.180 A 
HETATM   17  N   UNL     1      38.531 -12.528  -2.764  1.00  0.00    -0.236 NA
HETATM   18  C   UNL     1      38.541 -13.850  -3.040  1.00  0.00     0.119 A 
HETATM   19  C   UNL     1      39.041 -14.809  -2.180  1.00  0.00     0.020 A 
HETATM   20  C   UNL     1      39.569 -14.385  -0.964  1.00  0.00     0.023 A 
BRANCH  16  21
HETATM   21  O   UNL     1      38.982 -10.790  -1.258  1.00  0.00    -0.334 OA
BRANCH  21  22
HETATM   22  C   UNL     1      39.559  -9.928  -2.238  1.00  0.00     0.173 C 
HETATM   23  C   UNL     1      41.034  -9.773  -1.915  1.00  0.00     0.034 C 
ENDBRANCH  21  22
ENDBRANCH  16  21
ENDBRANCH  13  15
ENDBRANCH  12  13
ENDBRANCH  11  12
ENDBRANCH   8  11
ENDBRANCH   1   7
BRANCH   2  24
HETATM   24  C   UNL     1      42.981 -13.718   3.644  1.00  0.00     0.254 C 
HETATM   25  N   UNL     1      42.308 -14.915   3.770  1.00  0.00    -0.349 N 
HETATM   26  H   UNL     1      41.848 -15.132   4.645  1.00  0.00     0.163 HD
HETATM   27  O   UNL     1      43.534 -13.344   2.618  1.00  0.00    -0.268 OA
BRANCH  25  28
HETATM   28  C   UNL     1      42.262 -15.898   2.702  1.00  0.00     0.114 C 
HETATM   29  C   UNL     1      40.820 -16.085   2.225  1.00  0.00     0.037 C 
BRANCH  28  30
HETATM   30  C   UNL     1      42.935 -17.180   3.161  1.00  0.00    -0.036 A 
HETATM   31  C   UNL     1      43.134 -18.284   2.317  1.00  0.00     0.009 A 
HETATM   32  C   UNL     1      43.756 -19.442   2.794  1.00  0.00     0.001 A 
HETATM   33  C   UNL     1      44.174 -19.518   4.121  1.00  0.00     0.000 A 
HETATM   34  C   UNL     1      43.967 -18.440   4.976  1.00  0.00     0.001 A 
HETATM   35  C   UNL     1      43.346 -17.284   4.502  1.00  0.00     0.009 A 
ENDBRANCH  28  30
ENDBRANCH  25  28
ENDBRANCH   2  24
TORSDOF 10
ENDMDL
MODEL 7
REMARK VINA RESULT:      -7.8      4.845      8.947
REMARK  10 active torsions:
REMARK  status: ('A' for Active; 'I' for Inactive)
REMARK    1  A    between atoms: C_2  and  O_3 
REMARK    2  A    between atoms: O_3  and  C_4 
REMARK    3  A    between atoms: C_9  and  C_10 
REMARK    4  A    between atoms: C_10  and  O_11 
REMARK    5  A    between atoms: O_11  and  C_12 
REMARK    6  A    between atoms: C_12  and  C_13 
REMARK       I    between atoms: C_13  and  N_14 
REMARK    7  A    between atoms: N_14  and  C_15 
REMARK    8  A    between atoms: C_16  and  C_17 
REMARK       I    between atoms: C_17  and  N_18 
REMARK    9  A    between atoms: N_18  and  C_19 
REMARK   10  A    between atoms: C_19  and  C_20 
ROOT
HETATM    1  C   UNL     1      43.308 -18.106   2.877  1.00  0.00     0.050 A 
HETATM    2  C   UNL     1      43.566 -18.095   4.264  1.00  0.00     0.058 A 
HETATM    3  C   UNL     1      43.946 -19.271   4.932  1.00  0.00     0.019 A 
HETATM    4  C   UNL     1      44.034 -20.474   4.239  1.00  0.00     0.001 A 
HETATM    5  C   UNL     1      43.739 -20.505   2.880  1.00  0.00     0.002 A 
HETATM    6  C   UNL     1      43.380 -19.333   2.204  1.00  0.00     0.030 A 
ENDROOT
BRANCH   1   7
HETATM    7  N   UNL     1      43.068 -16.885   2.193  1.00  0.00    -0.324 N 
HETATM    8  C   UNL     1      41.853 -16.241   2.027  1.00  0.00     0.246 C 
HETATM    9  O   UNL     1      40.811 -16.513   2.620  1.00  0.00    -0.271 OA
HETATM   10  H   UNL     1      43.859 -16.517   1.668  1.00  0.00     0.169 HD
BRANCH   8  11
HETATM   11  C   UNL     1      41.897 -15.098   1.005  1.00  0.00     0.282 C 
BRANCH  11  12
HETATM   12  O   UNL     1      40.607 -14.534   0.776  1.00  0.00    -0.308 OA
BRANCH  12  13
HETATM   13  C   UNL     1      40.611 -13.450  -0.034  1.00  0.00     0.298 C 
HETATM   14  O   UNL     1      41.372 -12.499   0.077  1.00  0.00    -0.259 OA
BRANCH  13  15
HETATM   15  C   UNL     1      39.533 -13.489  -1.045  1.00  0.00     0.092 A 
HETATM   16  C   UNL     1      38.378 -12.711  -1.010  1.00  0.00     0.180 A 
HETATM   17  N   UNL     1      37.402 -12.794  -1.952  1.00  0.00    -0.236 NA
HETATM   18  C   UNL     1      37.572 -13.686  -2.951  1.00  0.00     0.119 A 
HETATM   19  C   UNL     1      38.675 -14.512  -3.063  1.00  0.00     0.020 A 
HETATM   20  C   UNL     1      39.667 -14.410  -2.093  1.00  0.00     0.023 A 
BRANCH  16  21
HETATM   21  O   UNL     1      38.181 -11.847   0.045  1.00  0.00    -0.334 OA
BRANCH  21  22
HETATM   22  C   UNL     1      38.139 -10.468  -0.322  1.00  0.00     0.173 C 
HETATM   23  C   UNL     1      39.199  -9.738   0.484  1.00  0.00     0.034 C 
ENDBRANCH  21  22
ENDBRANCH  16  21
ENDBRANCH  13  15
ENDBRANCH  12  13
ENDBRANCH  11  12
ENDBRANCH   8  11
ENDBRANCH   1   7
BRANCH   2  24
HETATM   24  C   UNL     1      43.389 -16.889   5.114  1.00  0.00     0.254 C 
HETATM   25  N   UNL     1      42.092 -16.436   5.228  1.00  0.00    -0.349 N 
HETATM   26  H   UNL     1      41.355 -16.924   4.734  1.00  0.00     0.163 HD
HETATM   27  O   UNL     1      44.344 -16.395   5.701  1.00  0.00    -0.268 OA
BRANCH  25  28
HETATM   28  C   UNL     1      41.743 -15.259   6.003  1.00  0.00     0.114 C 
HETATM   29  C   UNL     1      40.487 -15.533   6.834  1.00  0.00     0.037 C 
BRANCH  28  30
HETATM   30  C   UNL     1      41.627 -14.057   5.081  1.00  0.00    -0.036 A 
HETATM   31  C   UNL     1      42.741 -13.408   4.526  1.00  0.00     0.009 A 
HETATM   32  C   UNL     1      42.576 -12.303   3.686  1.00  0.00     0.001 A 
HETATM   33  C   UNL     1      41.300 -11.824   3.400  1.00  0.00     0.000 A 
HETATM   34  C   UNL     1      40.185 -12.443   3.957  1.00  0.00     0.001 A 
HETATM   35  C   UNL     1      40.348 -13.546   4.795  1.00  0.00     0.009 A 
ENDBRANCH  28  30
ENDBRANCH  25  28
ENDBRANCH   2  24
TORSDOF 10
ENDMDL
MODEL 8
REMARK VINA RESULT:      -7.8      2.328      9.177
REMARK  10 active torsions:
REMARK  status: ('A' for Active; 'I' for Inactive)
REMARK    1  A    between atoms: C_2  and  O_3 
REMARK    2  A    between atoms: O_3  and  C_4 
REMARK    3  A    between atoms: C_9  and  C_10 
REMARK    4  A    between atoms: C_10  and  O_11 
REMARK    5  A    between atoms: O_11  and  C_12 
REMARK    6  A    between atoms: C_12  and  C_13 
REMARK       I    between atoms: C_13  and  N_14 
REMARK    7  A    between atoms: N_14  and  C_15 
REMARK    8  A    between atoms: C_16  and  C_17 
REMARK       I    between atoms: C_17  and  N_18 
REMARK    9  A    between atoms: N_18  and  C_19 
REMARK   10  A    between atoms: C_19  and  C_20 
ROOT
HETATM    1  C   UNL     1      43.918 -10.763   7.505  1.00  0.00     0.050 A 
HETATM    2  C   UNL     1      44.002  -9.599   8.296  1.00  0.00     0.058 A 
HETATM    3  C   UNL     1      45.244  -8.999   8.561  1.00  0.00     0.019 A 
HETATM    4  C   UNL     1      46.416  -9.572   8.077  1.00  0.00     0.001 A 
HETATM    5  C   UNL     1      46.349 -10.744   7.332  1.00  0.00     0.002 A 
HETATM    6  C   UNL     1      45.112 -11.334   7.047  1.00  0.00     0.030 A 
ENDROOT
BRANCH   1   7
HETATM    7  N   UNL     1      42.647 -11.271   7.127  1.00  0.00    -0.324 N 
HETATM    8  C   UNL     1      41.998 -11.093   5.916  1.00  0.00     0.246 C 
HETATM    9  O   UNL     1      42.503 -10.637   4.893  1.00  0.00    -0.271 OA
HETATM   10  H   UNL     1      42.111 -11.706   7.876  1.00  0.00     0.169 HD
BRANCH   8  11
HETATM   11  C   UNL     1      40.528 -11.533   5.936  1.00  0.00     0.282 C 
BRANCH  11  12
HETATM   12  O   UNL     1      40.262 -12.553   4.975  1.00  0.00    -0.308 OA
BRANCH  12  13
HETATM   13  C   UNL     1      40.327 -13.811   5.468  1.00  0.00     0.298 C 
HETATM   14  O   UNL     1      39.823 -14.174   6.522  1.00  0.00    -0.259 OA
BRANCH  13  15
HETATM   15  C   UNL     1      41.150 -14.711   4.632  1.00  0.00     0.092 A 
HETATM   16  C   UNL     1      42.526 -14.881   4.760  1.00  0.00     0.180 A 
HETATM   17  N   UNL     1      43.247 -15.706   3.955  1.00  0.00    -0.236 NA
HETATM   18  C   UNL     1      42.583 -16.370   2.986  1.00  0.00     0.119 A 
HETATM   19  C   UNL     1      41.222 -16.255   2.771  1.00  0.00     0.020 A 
HETATM   20  C   UNL     1      40.499 -15.411   3.607  1.00  0.00     0.023 A 
BRANCH  16  21
HETATM   21  O   UNL     1      43.209 -14.154   5.711  1.00  0.00    -0.334 OA
BRANCH  21  22
HETATM   22  C   UNL     1      43.928 -14.946   6.656  1.00  0.00     0.173 C 
HETATM   23  C   UNL     1      42.962 -15.358   7.752  1.00  0.00     0.034 C 
ENDBRANCH  21  22
ENDBRANCH  16  21
ENDBRANCH  13  15
ENDBRANCH  12  13
ENDBRANCH  11  12
ENDBRANCH   8  11
ENDBRANCH   1   7
BRANCH   2  24
HETATM   24  C   UNL     1      42.823  -8.975   8.954  1.00  0.00     0.254 C 
HETATM   25  N   UNL     1      43.101  -7.877   9.740  1.00  0.00    -0.349 N 
HETATM   26  H   UNL     1      44.062  -7.570   9.834  1.00  0.00     0.163 HD
HETATM   27  O   UNL     1      41.694  -9.401   8.743  1.00  0.00    -0.268 OA
BRANCH  25  28
HETATM   28  C   UNL     1      42.072  -7.160  10.470  1.00  0.00     0.114 C 
HETATM   29  C   UNL     1      42.369  -5.659  10.456  1.00  0.00     0.037 C 
BRANCH  28  30
HETATM   30  C   UNL     1      41.930  -7.751  11.862  1.00  0.00    -0.036 A 
HETATM   31  C   UNL     1      40.890  -8.624  12.220  1.00  0.00     0.009 A 
HETATM   32  C   UNL     1      40.805  -9.135  13.518  1.00  0.00     0.001 A 
HETATM   33  C   UNL     1      41.747  -8.772  14.479  1.00  0.00     0.000 A 
HETATM   34  C   UNL     1      42.772  -7.891  14.147  1.00  0.00     0.001 A 
HETATM   35  C   UNL     1      42.858  -7.380  12.852  1.00  0.00     0.009 A 
ENDBRANCH  28  30
ENDBRANCH  25  28
ENDBRANCH   2  24
TORSDOF 10
ENDMDL
MODEL 9
REMARK VINA RESULT:      -7.6      3.750      7.692
REMARK  10 active torsions:
REMARK  status: ('A' for Active; 'I' for Inactive)
REMARK    1  A    between atoms: C_2  and  O_3 
REMARK    2  A    between atoms: O_3  and  C_4 
REMARK    3  A    between atoms: C_9  and  C_10 
REMARK    4  A    between atoms: C_10  and  O_11 
REMARK    5  A    between atoms: O_11  and  C_12 
REMARK    6  A    between atoms: C_12  and  C_13 
REMARK       I    between atoms: C_13  and  N_14 
REMARK    7  A    between atoms: N_14  and  C_15 
REMARK    8  A    between atoms: C_16  and  C_17 
REMARK       I    between atoms: C_17  and  N_18 
REMARK    9  A    between atoms: N_18  and  C_19 
REMARK   10  A    between atoms: C_19  and  C_20 
ROOT
HETATM    1  C   UNL     1      42.980 -12.823   4.724  1.00  0.00     0.050 A 
HETATM    2  C   UNL     1      43.180 -13.588   5.893  1.00  0.00     0.058 A 
HETATM    3  C   UNL     1      44.034 -13.133   6.911  1.00  0.00     0.019 A 
HETATM    4  C   UNL     1      44.729 -11.937   6.760  1.00  0.00     0.001 A 
HETATM    5  C   UNL     1      44.574 -11.196   5.593  1.00  0.00     0.002 A 
HETATM    6  C   UNL     1      43.707 -11.633   4.586  1.00  0.00     0.030 A 
ENDROOT
BRANCH   1   7
HETATM    7  N   UNL     1      42.004 -13.225   3.775  1.00  0.00    -0.324 N 
HETATM    8  C   UNL     1      40.637 -13.018   3.838  1.00  0.00     0.246 C 
HETATM    9  O   UNL     1      40.060 -12.271   4.626  1.00  0.00    -0.271 OA
HETATM   10  H   UNL     1      42.343 -13.838   3.035  1.00  0.00     0.169 HD
BRANCH   8  11
HETATM   11  C   UNL     1      39.844 -13.820   2.797  1.00  0.00     0.282 C 
BRANCH  11  12
HETATM   12  O   UNL     1      39.438 -13.012   1.693  1.00  0.00    -0.308 OA
BRANCH  12  13
HETATM   13  C   UNL     1      40.234 -13.119   0.605  1.00  0.00     0.298 C 
HETATM   14  O   UNL     1      41.451 -12.995   0.616  1.00  0.00    -0.259 OA
BRANCH  13  15
HETATM   15  C   UNL     1      39.470 -13.329  -0.643  1.00  0.00     0.092 A 
HETATM   16  C   UNL     1      38.702 -12.358  -1.281  1.00  0.00     0.180 A 
HETATM   17  N   UNL     1      37.998 -12.601  -2.418  1.00  0.00    -0.236 NA
HETATM   18  C   UNL     1      38.049 -13.850  -2.929  1.00  0.00     0.119 A 
HETATM   19  C   UNL     1      38.770 -14.883  -2.361  1.00  0.00     0.020 A 
HETATM   20  C   UNL     1      39.489 -14.616  -1.200  1.00  0.00     0.023 A 
BRANCH  16  21
HETATM   21  O   UNL     1      38.604 -11.103  -0.721  1.00  0.00    -0.334 OA
BRANCH  21  22
HETATM   22  C   UNL     1      37.265 -10.643  -0.535  1.00  0.00     0.173 C 
HETATM   23  C   UNL     1      36.855 -10.962   0.892  1.00  0.00     0.034 C 
ENDBRANCH  21  22
ENDBRANCH  16  21
ENDBRANCH  13  15
ENDBRANCH  12  13
ENDBRANCH  11  12
ENDBRANCH   8  11
ENDBRANCH   1   7
BRANCH   2  24
HETATM   24  C   UNL     1      42.576 -14.931   6.099  1.00  0.00     0.254 C 
HETATM   25  N   UNL     1      43.415 -15.996   5.851  1.00  0.00    -0.349 N 
HETATM   26  H   UNL     1      44.362 -15.815   5.542  1.00  0.00     0.163 HD
HETATM   27  O   UNL     1      41.429 -15.041   6.514  1.00  0.00    -0.268 OA
BRANCH  25  28
HETATM   28  C   UNL     1      42.983 -17.376   5.984  1.00  0.00     0.114 C 
HETATM   29  C   UNL     1      43.645 -18.017   7.206  1.00  0.00     0.037 C 
BRANCH  28  30
HETATM   30  C   UNL     1      43.236 -18.116   4.682  1.00  0.00    -0.036 A 
HETATM   31  C   UNL     1      42.912 -17.583   3.424  1.00  0.00     0.009 A 
HETATM   32  C   UNL     1      43.163 -18.310   2.256  1.00  0.00     0.001 A 
HETATM   33  C   UNL     1      43.728 -19.582   2.330  1.00  0.00     0.000 A 
HETATM   34  C   UNL     1      44.036 -20.133   3.569  1.00  0.00     0.001 A 
HETATM   35  C   UNL     1      43.786 -19.409   4.735  1.00  0.00     0.009 A 
ENDBRANCH  28  30
ENDBRANCH  25  28
ENDBRANCH   2  24
TORSDOF 10
ENDMDL
MODEL 10
REMARK VINA RESULT:      -7.6      2.133      5.522
REMARK  10 active torsions:
REMARK  status: ('A' for Active; 'I' for Inactive)
REMARK    1  A    between atoms: C_2  and  O_3 
REMARK    2  A    between atoms: O_3  and  C_4 
REMARK    3  A    between atoms: C_9  and  C_10 
REMARK    4  A    between atoms: C_10  and  O_11 
REMARK    5  A    between atoms: O_11  and  C_12 
REMARK    6  A    between atoms: C_12  and  C_13 
REMARK       I    between atoms: C_13  and  N_14 
REMARK    7  A    between atoms: N_14  and  C_15 
REMARK    8  A    between atoms: C_16  and  C_17 
REMARK       I    between atoms: C_17  and  N_18 
REMARK    9  A    between atoms: N_18  and  C_19 
REMARK   10  A    between atoms: C_19  and  C_20 
ROOT
HETATM    1  C   UNL     1      43.568 -16.909   4.288  1.00  0.00     0.050 A 
HETATM    2  C   UNL     1      42.934 -16.945   3.028  1.00  0.00     0.058 A 
HETATM    3  C   UNL     1      42.940 -18.118   2.255  1.00  0.00     0.019 A 
HETATM    4  C   UNL     1      43.609 -19.252   2.707  1.00  0.00     0.001 A 
HETATM    5  C   UNL     1      44.275 -19.213   3.928  1.00  0.00     0.002 A 
HETATM    6  C   UNL     1      44.254 -18.054   4.712  1.00  0.00     0.030 A 
ENDROOT
BRANCH   1   7
HETATM    7  N   UNL     1      43.427 -15.764   5.116  1.00  0.00    -0.324 N 
HETATM    8  C   UNL     1      42.704 -15.664   6.293  1.00  0.00     0.246 C 
HETATM    9  O   UNL     1      42.230 -16.606   6.925  1.00  0.00    -0.271 OA
HETATM   10  H   UNL     1      43.800 -14.898   4.730  1.00  0.00     0.169 HD
BRANCH   8  11
HETATM   11  C   UNL     1      42.530 -14.221   6.787  1.00  0.00     0.282 C 
BRANCH  11  12
HETATM   12  O   UNL     1      43.780 -13.546   6.919  1.00  0.00    -0.308 OA
BRANCH  12  13
HETATM   13  C   UNL     1      43.896 -12.437   6.154  1.00  0.00     0.298 C 
HETATM   14  O   UNL     1      43.733 -12.406   4.941  1.00  0.00    -0.259 OA
BRANCH  13  15
HETATM   15  C   UNL     1      44.321 -11.251   6.927  1.00  0.00     0.092 A 
HETATM   16  C   UNL     1      43.466 -10.254   7.392  1.00  0.00     0.180 A 
HETATM   17  N   UNL     1      43.904  -9.168   8.082  1.00  0.00    -0.236 NA
HETATM   18  C   UNL     1      45.231  -9.063   8.306  1.00  0.00     0.119 A 
HETATM   19  C   UNL     1      46.159  -9.992   7.872  1.00  0.00     0.020 A 
HETATM   20  C   UNL     1      45.693 -11.100   7.171  1.00  0.00     0.023 A 
BRANCH  16  21
HETATM   21  O   UNL     1      42.121 -10.334   7.107  1.00  0.00    -0.334 OA
BRANCH  21  22
HETATM   22  C   UNL     1      41.328  -9.312   7.710  1.00  0.00     0.173 C 
HETATM   23  C   UNL     1      39.894  -9.808   7.772  1.00  0.00     0.034 C 
ENDBRANCH  21  22
ENDBRANCH  16  21
ENDBRANCH  13  15
ENDBRANCH  12  13
ENDBRANCH  11  12
ENDBRANCH   8  11
ENDBRANCH   1   7
BRANCH   2  24
HETATM   24  C   UNL     1      42.292 -15.757   2.405  1.00  0.00     0.254 C 
HETATM   25  N   UNL     1      40.919 -15.820   2.300  1.00  0.00    -0.349 N 
HETATM   26  H   UNL     1      40.437 -16.648   2.630  1.00  0.00     0.163 HD
HETATM   27  O   UNL     1      42.963 -14.789   2.074  1.00  0.00    -0.268 OA
BRANCH  25  28
HETATM   28  C   UNL     1      40.133 -14.757   1.700  1.00  0.00     0.114 C 
HETATM   29  C   UNL     1      40.544 -14.563   0.238  1.00  0.00     0.037 C 
BRANCH  28  30
HETATM   30  C   UNL     1      40.245 -13.501   2.548  1.00  0.00    -0.036 A 
HETATM   31  C   UNL     1      40.630 -12.257   2.025  1.00  0.00     0.009 A 
HETATM   32  C   UNL     1      40.721 -11.134   2.852  1.00  0.00     0.001 A 
HETATM   33  C   UNL     1      40.443 -11.241   4.213  1.00  0.00     0.000 A 
HETATM   34  C   UNL     1      40.079 -12.471   4.752  1.00  0.00     0.001 A 
HETATM   35  C   UNL     1      39.988 -13.593   3.927  1.00  0.00     0.009 A 
ENDBRANCH  28  30
ENDBRANCH  25  28
ENDBRANCH   2  24
TORSDOF 10
ENDMDL
