MODEL 1
REMARK VINA RESULT:      -8.2      0.000      0.000
REMARK  5 active torsions:
REMARK  status: ('A' for Active; 'I' for Inactive)
REMARK    1  A    between atoms: C_6  and  C_7 
REMARK    2  A    between atoms: N_10  and  C_12 
REMARK    3  A    between atoms: C_12  and  C_13 
REMARK    4  A    between atoms: C_14  and  N_15 
REMARK    5  A    between atoms: N_15  and  C_16 
ROOT
HETATM    1  C   UNL     1      42.660 -15.997   4.911  1.00  0.00    -0.006 A 
HETATM    2  C   UNL     1      42.630 -15.955   3.497  1.00  0.00     0.038 A 
HETATM    3  C   UNL     1      43.200 -17.026   2.781  1.00  0.00     0.030 A 
HETATM    4  C   UNL     1      43.701 -18.152   3.432  1.00  0.00     0.002 A 
HETATM    5  C   UNL     1      43.633 -18.236   4.814  1.00  0.00     0.001 A 
HETATM    6  C   UNL     1      43.112 -17.172   5.549  1.00  0.00     0.011 A 
ENDROOT
BRANCH   1   7
HETATM    7  C   UNL     1      42.216 -14.802   5.729  1.00  0.00     0.275 C 
BRANCH   7   8
HETATM    8  N   UNL     1      43.119 -13.572   5.666  1.00  0.00    -0.067 N 
HETATM    9  C   UNL     1      42.394 -12.326   5.215  1.00  0.00     0.236 C 
HETATM   10  C   UNL     1      43.392 -11.185   5.040  1.00  0.00     0.038 C 
HETATM   11  C   UNL     1      44.297 -10.935   6.257  1.00  0.00     0.040 C 
HETATM   12  C   UNL     1      44.868 -12.252   6.803  1.00  0.00     0.038 C 
HETATM   13  C   UNL     1      43.811 -13.332   6.987  1.00  0.00     0.236 C 
HETATM   14  H   UNL     1      43.847 -13.782   4.977  1.00  0.00     0.280 HD
BRANCH  11  15
HETATM   15  C   UNL     1      43.640 -10.125   7.344  1.00  0.00     0.035 A 
HETATM   16  N   UNL     1      44.360  -9.365   8.251  1.00  0.00    -0.278 N 
HETATM   17  C   UNL     1      45.789  -9.140   8.301  1.00  0.00     0.179 C 
HETATM   18  N   UNL     1      43.588  -8.785   9.183  1.00  0.00    -0.185 NA
HETATM   19  C   UNL     1      42.346  -9.062   8.805  1.00  0.00     0.141 A 
HETATM   20  C   UNL     1      42.316  -9.893   7.672  1.00  0.00     0.048 A 
ENDBRANCH  11  15
ENDBRANCH   7   8
ENDBRANCH   1   7
BRANCH   2  21
HETATM   21  N   UNL     1      42.011 -14.881   2.814  1.00  0.00    -0.380 N 
HETATM   22  C   UNL     1      42.874 -14.251   1.809  1.00  0.00     0.150 C 
BRANCH  21  23
HETATM   23  C   UNL     1      40.544 -15.051   2.577  1.00  0.00     0.087 C 
HETATM   24  C   UNL     1      40.145 -15.685   1.236  1.00  0.00     0.053 C 
HETATM   25  C   UNL     1      40.102 -14.703   0.083  1.00  0.00     0.236 C 
HETATM   26  N   UNL     1      39.163 -13.576   0.426  1.00  0.00    -0.075 N 
HETATM   27  H   UNL     1      38.232 -13.981   0.605  1.00  0.00     0.279 HD
HETATM   28  C   UNL     1      38.967 -12.644  -0.748  1.00  0.00     0.269 C 
HETATM   29  C   UNL     1      39.595 -12.832   1.660  1.00  0.00     0.236 C 
HETATM   30  C   UNL     1      39.720 -13.781   2.847  1.00  0.00     0.053 C 
ENDBRANCH  21  23
ENDBRANCH   2  21
TORSDOF 5
ENDMDL
MODEL 2
REMARK VINA RESULT:      -7.8      3.178      7.096
REMARK  5 active torsions:
REMARK  status: ('A' for Active; 'I' for Inactive)
REMARK    1  A    between atoms: C_6  and  C_7 
REMARK    2  A    between atoms: N_10  and  C_12 
REMARK    3  A    between atoms: C_12  and  C_13 
REMARK    4  A    between atoms: C_14  and  N_15 
REMARK    5  A    between atoms: N_15  and  C_16 
ROOT
HETATM    1  C   UNL     1      39.982 -13.432  -0.649  1.00  0.00    -0.006 A 
HETATM    2  C   UNL     1      39.138 -12.334  -0.360  1.00  0.00     0.038 A 
HETATM    3  C   UNL     1      37.970 -12.164  -1.131  1.00  0.00     0.030 A 
HETATM    4  C   UNL     1      37.591 -13.097  -2.094  1.00  0.00     0.002 A 
HETATM    5  C   UNL     1      38.367 -14.227  -2.301  1.00  0.00     0.001 A 
HETATM    6  C   UNL     1      39.549 -14.399  -1.582  1.00  0.00     0.011 A 
ENDROOT
BRANCH   1   7
HETATM    7  C   UNL     1      41.328 -13.571   0.030  1.00  0.00     0.275 C 
BRANCH   7   8
HETATM    8  N   UNL     1      41.313 -14.165   1.437  1.00  0.00    -0.067 N 
HETATM    9  C   UNL     1      40.645 -15.518   1.503  1.00  0.00     0.236 C 
HETATM   10  C   UNL     1      40.543 -15.971   2.956  1.00  0.00     0.038 C 
HETATM   11  C   UNL     1      41.868 -15.927   3.734  1.00  0.00     0.040 C 
HETATM   12  C   UNL     1      42.610 -14.605   3.490  1.00  0.00     0.038 C 
HETATM   13  C   UNL     1      42.706 -14.235   2.018  1.00  0.00     0.236 C 
HETATM   14  H   UNL     1      40.775 -13.516   2.020  1.00  0.00     0.280 HD
BRANCH  11  15
HETATM   15  C   UNL     1      42.759 -17.115   3.480  1.00  0.00     0.035 A 
HETATM   16  N   UNL     1      43.629 -17.617   4.433  1.00  0.00    -0.278 N 
HETATM   17  C   UNL     1      43.803 -17.190   5.805  1.00  0.00     0.179 C 
HETATM   18  N   UNL     1      44.384 -18.628   3.978  1.00  0.00    -0.185 NA
HETATM   19  C   UNL     1      43.914 -18.873   2.760  1.00  0.00     0.141 A 
HETATM   20  C   UNL     1      42.907 -17.964   2.396  1.00  0.00     0.048 A 
ENDBRANCH  11  15
ENDBRANCH   7   8
ENDBRANCH   1   7
BRANCH   2  21
HETATM   21  N   UNL     1      39.436 -11.445   0.700  1.00  0.00    -0.380 N 
HETATM   22  C   UNL     1      40.061 -10.194   0.257  1.00  0.00     0.150 C 
BRANCH  21  23
HETATM   23  C   UNL     1      38.454 -11.462   1.828  1.00  0.00     0.087 C 
HETATM   24  C   UNL     1      38.272 -10.138   2.585  1.00  0.00     0.053 C 
HETATM   25  C   UNL     1      39.320  -9.894   3.652  1.00  0.00     0.236 C 
HETATM   26  N   UNL     1      39.323 -11.050   4.617  1.00  0.00    -0.075 N 
HETATM   27  H   UNL     1      38.382 -11.123   5.031  1.00  0.00     0.279 HD
HETATM   28  C   UNL     1      40.247 -10.790   5.786  1.00  0.00     0.269 C 
HETATM   29  C   UNL     1      39.640 -12.355   3.940  1.00  0.00     0.236 C 
HETATM   30  C   UNL     1      38.655 -12.629   2.809  1.00  0.00     0.053 C 
ENDBRANCH  21  23
ENDBRANCH   2  21
TORSDOF 5
ENDMDL
MODEL 3
REMARK VINA RESULT:      -7.8      3.828      6.774
REMARK  5 active torsions:
REMARK  status: ('A' for Active; 'I' for Inactive)
REMARK    1  A    between atoms: C_6  and  C_7 
REMARK    2  A    between atoms: N_10  and  C_12 
REMARK    3  A    between atoms: C_12  and  C_13 
REMARK    4  A    between atoms: C_14  and  N_15 
REMARK    5  A    between atoms: N_15  and  C_16 
ROOT
HETATM    1  C   UNL     1      39.746 -13.760  -0.500  1.00  0.00    -0.006 A 
HETATM    2  C   UNL     1      39.695 -12.502  -1.148  1.00  0.00     0.038 A 
HETATM    3  C   UNL     1      39.366 -12.466  -2.518  1.00  0.00     0.030 A 
HETATM    4  C   UNL     1      39.005 -13.620  -3.211  1.00  0.00     0.002 A 
HETATM    5  C   UNL     1      38.954 -14.835  -2.546  1.00  0.00     0.001 A 
HETATM    6  C   UNL     1      39.315 -14.906  -1.201  1.00  0.00     0.011 A 
ENDROOT
BRANCH   1   7
HETATM    7  C   UNL     1      40.254 -13.876   0.921  1.00  0.00     0.275 C 
BRANCH   7   8
HETATM    8  N   UNL     1      41.276 -14.980   1.181  1.00  0.00    -0.067 N 
HETATM    9  C   UNL     1      42.633 -14.451   1.581  1.00  0.00     0.236 C 
HETATM   10  C   UNL     1      43.627 -15.605   1.679  1.00  0.00     0.038 C 
HETATM   11  C   UNL     1      43.164 -16.774   2.562  1.00  0.00     0.040 C 
HETATM   12  C   UNL     1      41.710 -17.161   2.252  1.00  0.00     0.038 C 
HETATM   13  C   UNL     1      40.770 -15.966   2.207  1.00  0.00     0.236 C 
HETATM   14  H   UNL     1      41.382 -15.490   0.299  1.00  0.00     0.280 HD
BRANCH  11  15
HETATM   15  C   UNL     1      43.371 -16.540   4.035  1.00  0.00     0.035 A 
HETATM   16  N   UNL     1      43.884 -17.507   4.883  1.00  0.00    -0.278 N 
HETATM   17  C   UNL     1      44.368 -18.829   4.550  1.00  0.00     0.179 C 
HETATM   18  N   UNL     1      43.915 -17.120   6.168  1.00  0.00    -0.185 NA
HETATM   19  C   UNL     1      43.541 -15.846   6.140  1.00  0.00     0.141 A 
HETATM   20  C   UNL     1      43.188 -15.432   4.845  1.00  0.00     0.048 A 
ENDBRANCH  11  15
ENDBRANCH   7   8
ENDBRANCH   1   7
BRANCH   2  21
HETATM   21  N   UNL     1      39.932 -11.305  -0.433  1.00  0.00    -0.380 N 
HETATM   22  C   UNL     1      41.180 -10.634  -0.813  1.00  0.00     0.150 C 
BRANCH  21  23
HETATM   23  C   UNL     1      38.704 -10.521  -0.096  1.00  0.00     0.087 C 
HETATM   24  C   UNL     1      38.935  -9.095   0.426  1.00  0.00     0.053 C 
HETATM   25  C   UNL     1      39.245  -9.028   1.908  1.00  0.00     0.236 C 
HETATM   26  N   UNL     1      38.132  -9.691   2.677  1.00  0.00    -0.075 N 
HETATM   27  H   UNL     1      37.255  -9.197   2.459  1.00  0.00     0.279 HD
HETATM   28  C   UNL     1      38.318  -9.523   4.168  1.00  0.00     0.269 C 
HETATM   29  C   UNL     1      37.963 -11.137   2.299  1.00  0.00     0.236 C 
HETATM   30  C   UNL     1      37.711 -11.277   0.802  1.00  0.00     0.053 C 
ENDBRANCH  21  23
ENDBRANCH   2  21
TORSDOF 5
ENDMDL
MODEL 4
REMARK VINA RESULT:      -7.6      3.404      6.750
REMARK  5 active torsions:
REMARK  status: ('A' for Active; 'I' for Inactive)
REMARK    1  A    between atoms: C_6  and  C_7 
REMARK    2  A    between atoms: N_10  and  C_12 
REMARK    3  A    between atoms: C_12  and  C_13 
REMARK    4  A    between atoms: C_14  and  N_15 
REMARK    5  A    between atoms: N_15  and  C_16 
ROOT
HETATM    1  C   UNL     1      40.446 -11.790   3.505  1.00  0.00    -0.006 A 
HETATM    2  C   UNL     1      39.888 -11.024   2.453  1.00  0.00     0.038 A 
HETATM    3  C   UNL     1      40.127  -9.635   2.433  1.00  0.00     0.030 A 
HETATM    4  C   UNL     1      40.967  -9.028   3.365  1.00  0.00     0.002 A 
HETATM    5  C   UNL     1      41.596  -9.799   4.330  1.00  0.00     0.001 A 
HETATM    6  C   UNL     1      41.345 -11.168   4.398  1.00  0.00     0.011 A 
ENDROOT
BRANCH   1   7
HETATM    7  C   UNL     1      40.087 -13.251   3.671  1.00  0.00     0.275 C 
BRANCH   7   8
HETATM    8  N   UNL     1      40.921 -14.244   2.864  1.00  0.00    -0.067 N 
HETATM    9  C   UNL     1      42.407 -14.076   3.071  1.00  0.00     0.236 C 
HETATM   10  C   UNL     1      43.166 -15.003   2.125  1.00  0.00     0.038 C 
HETATM   11  C   UNL     1      42.723 -16.473   2.179  1.00  0.00     0.040 C 
HETATM   12  C   UNL     1      41.192 -16.593   2.155  1.00  0.00     0.038 C 
HETATM   13  C   UNL     1      40.505 -15.668   3.149  1.00  0.00     0.236 C 
HETATM   14  H   UNL     1      40.715 -14.061   1.878  1.00  0.00     0.280 HD
BRANCH  11  15
HETATM   15  C   UNL     1      43.319 -17.244   3.328  1.00  0.00     0.035 A 
HETATM   16  N   UNL     1      43.569 -18.605   3.269  1.00  0.00    -0.278 N 
HETATM   17  C   UNL     1      43.396 -19.502   2.147  1.00  0.00     0.179 C 
HETATM   18  N   UNL     1      44.029 -19.108   4.425  1.00  0.00    -0.185 NA
HETATM   19  C   UNL     1      44.203 -18.046   5.203  1.00  0.00     0.141 A 
HETATM   20  C   UNL     1      43.777 -16.862   4.578  1.00  0.00     0.048 A 
ENDBRANCH  11  15
ENDBRANCH   7   8
ENDBRANCH   1   7
BRANCH   2  21
HETATM   21  N   UNL     1      39.137 -11.640   1.424  1.00  0.00    -0.380 N 
HETATM   22  C   UNL     1      37.687 -11.476   1.578  1.00  0.00     0.150 C 
BRANCH  21  23
HETATM   23  C   UNL     1      39.779 -11.608   0.074  1.00  0.00     0.087 C 
HETATM   24  C   UNL     1      38.827 -11.481  -1.125  1.00  0.00     0.053 C 
HETATM   25  C   UNL     1      38.223 -12.798  -1.569  1.00  0.00     0.236 C 
HETATM   26  N   UNL     1      39.330 -13.770  -1.884  1.00  0.00    -0.075 N 
HETATM   27  H   UNL     1      39.913 -13.359  -2.628  1.00  0.00     0.279 HD
HETATM   28  C   UNL     1      38.786 -15.052  -2.474  1.00  0.00     0.269 C 
HETATM   29  C   UNL     1      40.209 -14.036  -0.692  1.00  0.00     0.236 C 
HETATM   30  C   UNL     1      40.799 -12.737  -0.156  1.00  0.00     0.053 C 
ENDBRANCH  21  23
ENDBRANCH   2  21
TORSDOF 5
ENDMDL
MODEL 5
REMARK VINA RESULT:      -7.6      2.162      6.925
REMARK  5 active torsions:
REMARK  status: ('A' for Active; 'I' for Inactive)
REMARK    1  A    between atoms: C_6  and  C_7 
REMARK    2  A    between atoms: N_10  and  C_12 
REMARK    3  A    between atoms: C_12  and  C_13 
REMARK    4  A    between atoms: C_14  and  N_15 
REMARK    5  A    between atoms: N_15  and  C_16 
ROOT
HETATM    1  C   UNL     1      41.615 -16.077   3.341  1.00  0.00    -0.006 A 
HETATM    2  C   UNL     1      42.374 -15.635   4.451  1.00  0.00     0.038 A 
HETATM    3  C   UNL     1      43.507 -16.384   4.831  1.00  0.00     0.030 A 
HETATM    4  C   UNL     1      43.937 -17.481   4.087  1.00  0.00     0.002 A 
HETATM    5  C   UNL     1      43.251 -17.847   2.939  1.00  0.00     0.001 A 
HETATM    6  C   UNL     1      42.104 -17.149   2.564  1.00  0.00     0.011 A 
ENDROOT
BRANCH   1   7
HETATM    7  C   UNL     1      40.301 -15.412   2.992  1.00  0.00     0.275 C 
BRANCH   7   8
HETATM    8  N   UNL     1      40.397 -14.079   2.252  1.00  0.00    -0.067 N 
HETATM    9  C   UNL     1      40.934 -14.217   0.847  1.00  0.00     0.236 C 
HETATM   10  C   UNL     1      41.136 -12.834   0.235  1.00  0.00     0.038 C 
HETATM   11  C   UNL     1      39.905 -11.916   0.311  1.00  0.00     0.040 C 
HETATM   12  C   UNL     1      39.274 -11.949   1.711  1.00  0.00     0.038 C 
HETATM   13  C   UNL     1      39.069 -13.360   2.242  1.00  0.00     0.236 C 
HETATM   14  H   UNL     1      41.051 -13.499   2.786  1.00  0.00     0.280 HD
BRANCH  11  15
HETATM   15  C   UNL     1      38.882 -12.185  -0.762  1.00  0.00     0.035 A 
HETATM   16  N   UNL     1      38.058 -11.198  -1.276  1.00  0.00    -0.278 N 
HETATM   17  C   UNL     1      38.053  -9.784  -0.972  1.00  0.00     0.179 C 
HETATM   18  N   UNL     1      37.168 -11.664  -2.165  1.00  0.00    -0.185 NA
HETATM   19  C   UNL     1      37.499 -12.940  -2.329  1.00  0.00     0.141 A 
HETATM   20  C   UNL     1      38.553 -13.321  -1.482  1.00  0.00     0.048 A 
ENDBRANCH  11  15
ENDBRANCH   7   8
ENDBRANCH   1   7
BRANCH   2  21
HETATM   21  N   UNL     1      42.029 -14.451   5.144  1.00  0.00    -0.380 N 
HETATM   22  C   UNL     1      41.170 -14.684   6.310  1.00  0.00     0.150 C 
BRANCH  21  23
HETATM   23  C   UNL     1      43.097 -13.403   5.166  1.00  0.00     0.087 C 
HETATM   24  C   UNL     1      42.992 -12.356   6.285  1.00  0.00     0.053 C 
HETATM   25  C   UNL     1      42.041 -11.218   5.970  1.00  0.00     0.236 C 
HETATM   26  N   UNL     1      42.461 -10.563   4.680  1.00  0.00    -0.075 N 
HETATM   27  H   UNL     1      43.426 -10.220   4.797  1.00  0.00     0.279 HD
HETATM   28  C   UNL     1      41.636  -9.328   4.395  1.00  0.00     0.269 C 
HETATM   29  C   UNL     1      42.441 -11.524   3.523  1.00  0.00     0.236 C 
HETATM   30  C   UNL     1      43.333 -12.728   3.805  1.00  0.00     0.053 C 
ENDBRANCH  21  23
ENDBRANCH   2  21
TORSDOF 5
ENDMDL
MODEL 6
REMARK VINA RESULT:      -7.5      1.684      4.550
REMARK  5 active torsions:
REMARK  status: ('A' for Active; 'I' for Inactive)
REMARK    1  A    between atoms: C_6  and  C_7 
REMARK    2  A    between atoms: N_10  and  C_12 
REMARK    3  A    between atoms: C_12  and  C_13 
REMARK    4  A    between atoms: C_14  and  N_15 
REMARK    5  A    between atoms: N_15  and  C_16 
ROOT
HETATM    1  C   UNL     1      41.756 -14.074   2.103  1.00  0.00    -0.006 A 
HETATM    2  C   UNL     1      41.398 -15.321   2.670  1.00  0.00     0.038 A 
HETATM    3  C   UNL     1      40.395 -16.083   2.038  1.00  0.00     0.030 A 
HETATM    4  C   UNL     1      39.824 -15.678   0.833  1.00  0.00     0.002 A 
HETATM    5  C   UNL     1      40.253 -14.507   0.227  1.00  0.00     0.001 A 
HETATM    6  C   UNL     1      41.214 -13.714   0.850  1.00  0.00     0.011 A 
ENDROOT
BRANCH   1   7
HETATM    7  C   UNL     1      42.703 -13.140   2.827  1.00  0.00     0.275 C 
BRANCH   7   8
HETATM    8  N   UNL     1      42.060 -12.144   3.790  1.00  0.00    -0.067 N 
HETATM    9  C   UNL     1      41.861 -12.704   5.178  1.00  0.00     0.236 C 
HETATM   10  C   UNL     1      41.086 -11.703   6.030  1.00  0.00     0.038 C 
HETATM   11  C   UNL     1      41.674 -10.283   6.043  1.00  0.00     0.040 C 
HETATM   12  C   UNL     1      42.038  -9.821   4.624  1.00  0.00     0.038 C 
HETATM   13  C   UNL     1      42.842 -10.853   3.847  1.00  0.00     0.236 C 
HETATM   14  H   UNL     1      41.138 -11.922   3.402  1.00  0.00     0.280 HD
BRANCH  11  15
HETATM   15  C   UNL     1      42.832 -10.116   6.992  1.00  0.00     0.035 A 
HETATM   16  N   UNL     1      43.033  -8.963   7.732  1.00  0.00    -0.278 N 
HETATM   17  C   UNL     1      42.195  -7.786   7.808  1.00  0.00     0.179 C 
HETATM   18  N   UNL     1      44.163  -8.991   8.455  1.00  0.00    -0.185 NA
HETATM   19  C   UNL     1      44.636 -10.220   8.286  1.00  0.00     0.141 A 
HETATM   20  C   UNL     1      43.853 -10.963   7.386  1.00  0.00     0.048 A 
ENDBRANCH  11  15
ENDBRANCH   7   8
ENDBRANCH   1   7
BRANCH   2  21
HETATM   21  N   UNL     1      42.055 -15.812   3.823  1.00  0.00    -0.380 N 
HETATM   22  C   UNL     1      41.151 -16.455   4.782  1.00  0.00     0.150 C 
BRANCH  21  23
HETATM   23  C   UNL     1      43.433 -16.342   3.582  1.00  0.00     0.087 C 
HETATM   24  C   UNL     1      43.608 -17.230   2.341  1.00  0.00     0.053 C 
HETATM   25  C   UNL     1      43.213 -18.677   2.563  1.00  0.00     0.236 C 
HETATM   26  N   UNL     1      44.003 -19.234   3.719  1.00  0.00    -0.075 N 
HETATM   27  H   UNL     1      45.004 -19.153   3.489  1.00  0.00     0.279 HD
HETATM   28  C   UNL     1      43.757 -20.716   3.890  1.00  0.00     0.269 C 
HETATM   29  C   UNL     1      43.752 -18.479   4.995  1.00  0.00     0.236 C 
HETATM   30  C   UNL     1      44.070 -16.999   4.818  1.00  0.00     0.053 C 
ENDBRANCH  21  23
ENDBRANCH   2  21
TORSDOF 5
ENDMDL
MODEL 7
REMARK VINA RESULT:      -7.5      4.229      6.978
REMARK  5 active torsions:
REMARK  status: ('A' for Active; 'I' for Inactive)
REMARK    1  A    between atoms: C_6  and  C_7 
REMARK    2  A    between atoms: N_10  and  C_12 
REMARK    3  A    between atoms: C_12  and  C_13 
REMARK    4  A    between atoms: C_14  and  N_15 
REMARK    5  A    between atoms: N_15  and  C_16 
ROOT
HETATM    1  C   UNL     1      40.216 -13.845  -0.593  1.00  0.00    -0.006 A 
HETATM    2  C   UNL     1      40.487 -12.509  -0.213  1.00  0.00     0.038 A 
HETATM    3  C   UNL     1      40.869 -11.590  -1.211  1.00  0.00     0.030 A 
HETATM    4  C   UNL     1      40.894 -11.947  -2.558  1.00  0.00     0.002 A 
HETATM    5  C   UNL     1      40.526 -13.229  -2.937  1.00  0.00     0.001 A 
HETATM    6  C   UNL     1      40.183 -14.169  -1.967  1.00  0.00     0.011 A 
ENDROOT
BRANCH   1   7
HETATM    7  C   UNL     1      39.966 -14.910   0.453  1.00  0.00     0.275 C 
BRANCH   7   8
HETATM    8  N   UNL     1      40.946 -14.946   1.624  1.00  0.00    -0.067 N 
HETATM    9  C   UNL     1      40.484 -15.829   2.758  1.00  0.00     0.236 C 
HETATM   10  C   UNL     1      41.442 -15.695   3.938  1.00  0.00     0.038 C 
HETATM   11  C   UNL     1      42.923 -15.909   3.586  1.00  0.00     0.040 C 
HETATM   12  C   UNL     1      43.308 -15.139   2.314  1.00  0.00     0.038 C 
HETATM   13  C   UNL     1      42.329 -15.349   1.169  1.00  0.00     0.236 C 
HETATM   14  H   UNL     1      41.012 -13.986   1.975  1.00  0.00     0.280 HD
BRANCH  11  15
HETATM   15  C   UNL     1      43.321 -17.359   3.495  1.00  0.00     0.035 A 
HETATM   16  N   UNL     1      43.829 -18.065   4.573  1.00  0.00    -0.278 N 
HETATM   17  C   UNL     1      44.005 -17.619   5.938  1.00  0.00     0.179 C 
HETATM   18  N   UNL     1      44.191 -19.319   4.258  1.00  0.00    -0.185 NA
HETATM   19  C   UNL     1      43.796 -19.473   2.999  1.00  0.00     0.141 A 
HETATM   20  C   UNL     1      43.252 -18.289   2.473  1.00  0.00     0.048 A 
ENDBRANCH  11  15
ENDBRANCH   7   8
ENDBRANCH   1   7
BRANCH   2  21
HETATM   21  N   UNL     1      40.344 -12.092   1.132  1.00  0.00    -0.380 N 
HETATM   22  C   UNL     1      41.319 -11.073   1.535  1.00  0.00     0.150 C 
BRANCH  21  23
HETATM   23  C   UNL     1      38.935 -12.054   1.631  1.00  0.00     0.087 C 
HETATM   24  C   UNL     1      37.926 -11.299   0.752  1.00  0.00     0.053 C 
HETATM   25  C   UNL     1      37.924  -9.800   0.974  1.00  0.00     0.236 C 
HETATM   26  N   UNL     1      37.662  -9.515   2.429  1.00  0.00    -0.075 N 
HETATM   27  H   UNL     1      36.751  -9.929   2.677  1.00  0.00     0.279 HD
HETATM   28  C   UNL     1      37.501  -8.032   2.680  1.00  0.00     0.269 C 
HETATM   29  C   UNL     1      38.710 -10.119   3.324  1.00  0.00     0.236 C 
HETATM   30  C   UNL     1      38.808 -11.624   3.102  1.00  0.00     0.053 C 
ENDBRANCH  21  23
ENDBRANCH   2  21
TORSDOF 5
ENDMDL
MODEL 8
REMARK VINA RESULT:      -7.3      3.931      6.901
REMARK  5 active torsions:
REMARK  status: ('A' for Active; 'I' for Inactive)
REMARK    1  A    between atoms: C_6  and  C_7 
REMARK    2  A    between atoms: N_10  and  C_12 
REMARK    3  A    between atoms: C_12  and  C_13 
REMARK    4  A    between atoms: C_14  and  N_15 
REMARK    5  A    between atoms: N_15  and  C_16 
ROOT
HETATM    1  C   UNL     1      39.585 -13.723  -0.396  1.00  0.00    -0.006 A 
HETATM    2  C   UNL     1      39.117 -12.490  -0.909  1.00  0.00     0.038 A 
HETATM    3  C   UNL     1      38.732 -12.429  -2.264  1.00  0.00     0.030 A 
HETATM    4  C   UNL     1      38.715 -13.567  -3.068  1.00  0.00     0.002 A 
HETATM    5  C   UNL     1      39.074 -14.794  -2.532  1.00  0.00     0.001 A 
HETATM    6  C   UNL     1      39.500 -14.876  -1.206  1.00  0.00     0.011 A 
ENDROOT
BRANCH   1   7
HETATM    7  C   UNL     1      40.168 -13.808   0.999  1.00  0.00     0.275 C 
BRANCH   7   8
HETATM    8  N   UNL     1      41.184 -14.924   1.236  1.00  0.00    -0.067 N 
HETATM    9  C   UNL     1      42.560 -14.410   1.585  1.00  0.00     0.236 C 
HETATM   10  C   UNL     1      43.540 -15.577   1.661  1.00  0.00     0.038 C 
HETATM   11  C   UNL     1      43.091 -16.731   2.571  1.00  0.00     0.040 C 
HETATM   12  C   UNL     1      41.623 -17.100   2.315  1.00  0.00     0.038 C 
HETATM   13  C   UNL     1      40.698 -15.892   2.289  1.00  0.00     0.236 C 
HETATM   14  H   UNL     1      41.252 -15.444   0.356  1.00  0.00     0.280 HD
BRANCH  11  15
HETATM   15  C   UNL     1      43.351 -16.485   4.035  1.00  0.00     0.035 A 
HETATM   16  N   UNL     1      43.934 -17.430   4.862  1.00  0.00    -0.278 N 
HETATM   17  C   UNL     1      44.452 -18.735   4.511  1.00  0.00     0.179 C 
HETATM   18  N   UNL     1      44.004 -17.038   6.144  1.00  0.00    -0.185 NA
HETATM   19  C   UNL     1      43.583 -15.779   6.130  1.00  0.00     0.141 A 
HETATM   20  C   UNL     1      43.161 -15.381   4.850  1.00  0.00     0.048 A 
ENDBRANCH  11  15
ENDBRANCH   7   8
ENDBRANCH   1   7
BRANCH   2  21
HETATM   21  N   UNL     1      39.004 -11.351  -0.077  1.00  0.00    -0.380 N 
HETATM   22  C   UNL     1      37.822 -11.377   0.792  1.00  0.00     0.150 C 
BRANCH  21  23
HETATM   23  C   UNL     1      40.305 -10.792   0.403  1.00  0.00     0.087 C 
HETATM   24  C   UNL     1      40.213  -9.619   1.390  1.00  0.00     0.053 C 
HETATM   25  C   UNL     1      40.011  -8.273   0.725  1.00  0.00     0.236 C 
HETATM   26  N   UNL     1      41.122  -8.036  -0.263  1.00  0.00    -0.075 N 
HETATM   27  H   UNL     1      42.016  -8.066   0.249  1.00  0.00     0.279 HD
HETATM   28  C   UNL     1      41.052  -6.643  -0.848  1.00  0.00     0.269 C 
HETATM   29  C   UNL     1      41.162  -9.088  -1.338  1.00  0.00     0.236 C 
HETATM   30  C   UNL     1      41.300 -10.478  -0.727  1.00  0.00     0.053 C 
ENDBRANCH  21  23
ENDBRANCH   2  21
TORSDOF 5
ENDMDL
MODEL 9
REMARK VINA RESULT:      -7.2     16.542     20.250
REMARK  5 active torsions:
REMARK  status: ('A' for Active; 'I' for Inactive)
REMARK    1  A    between atoms: C_6  and  C_7 
REMARK    2  A    between atoms: N_10  and  C_12 
REMARK    3  A    between atoms: C_12  and  C_13 
REMARK    4  A    between atoms: C_14  and  N_15 
REMARK    5  A    between atoms: N_15  and  C_16 
ROOT
HETATM    1  C   UNL     1      48.876 -30.713   1.695  1.00  0.00    -0.006 A 
HETATM    2  C   UNL     1      47.849 -29.739   1.691  1.00  0.00     0.038 A 
HETATM    3  C   UNL     1      47.855 -28.753   2.699  1.00  0.00     0.030 A 
HETATM    4  C   UNL     1      48.890 -28.669   3.629  1.00  0.00     0.002 A 
HETATM    5  C   UNL     1      49.948 -29.562   3.564  1.00  0.00     0.001 A 
HETATM    6  C   UNL     1      49.947 -30.572   2.603  1.00  0.00     0.011 A 
ENDROOT
BRANCH   1   7
HETATM    7  C   UNL     1      48.827 -31.889   0.742  1.00  0.00     0.275 C 
BRANCH   7   8
HETATM    8  N   UNL     1      49.475 -31.674  -0.624  1.00  0.00    -0.067 N 
HETATM    9  C   UNL     1      50.602 -30.668  -0.595  1.00  0.00     0.236 C 
HETATM   10  C   UNL     1      51.093 -30.406  -2.016  1.00  0.00     0.038 C 
HETATM   11  C   UNL     1      51.448 -31.670  -2.813  1.00  0.00     0.040 C 
HETATM   12  C   UNL     1      50.361 -32.744  -2.664  1.00  0.00     0.038 C 
HETATM   13  C   UNL     1      49.947 -32.979  -1.219  1.00  0.00     0.236 C 
HETATM   14  H   UNL     1      48.740 -31.310  -1.238  1.00  0.00     0.280 HD
BRANCH  11  15
HETATM   15  C   UNL     1      52.815 -32.221  -2.498  1.00  0.00     0.035 A 
HETATM   16  N   UNL     1      53.751 -32.510  -3.478  1.00  0.00    -0.278 N 
HETATM   17  C   UNL     1      53.655 -32.290  -4.904  1.00  0.00     0.179 C 
HETATM   18  N   UNL     1      54.872 -33.063  -2.989  1.00  0.00    -0.185 NA
HETATM   19  C   UNL     1      54.719 -33.015  -1.671  1.00  0.00     0.141 A 
HETATM   20  C   UNL     1      53.461 -32.506  -1.307  1.00  0.00     0.048 A 
ENDBRANCH  11  15
ENDBRANCH   7   8
ENDBRANCH   1   7
BRANCH   2  21
HETATM   21  N   UNL     1      46.859 -29.728   0.681  1.00  0.00    -0.380 N 
HETATM   22  C   UNL     1      45.604 -30.373   1.083  1.00  0.00     0.150 C 
BRANCH  21  23
HETATM   23  C   UNL     1      46.859 -28.508  -0.185  1.00  0.00     0.087 C 
HETATM   24  C   UNL     1      45.480 -27.945  -0.559  1.00  0.00     0.053 C 
HETATM   25  C   UNL     1      44.833 -28.643  -1.739  1.00  0.00     0.236 C 
HETATM   26  N   UNL     1      45.761 -28.578  -2.923  1.00  0.00    -0.075 N 
HETATM   27  H   UNL     1      45.942 -27.585  -3.132  1.00  0.00     0.279 HD
HETATM   28  C   UNL     1      45.104 -29.128  -4.169  1.00  0.00     0.269 C 
HETATM   29  C   UNL     1      47.081 -29.246  -2.649  1.00  0.00     0.236 C 
HETATM   30  C   UNL     1      47.755 -28.630  -1.429  1.00  0.00     0.053 C 
ENDBRANCH  21  23
ENDBRANCH   2  21
TORSDOF 5
ENDMDL
MODEL 10
REMARK VINA RESULT:      -7.2      1.918      2.835
REMARK  5 active torsions:
REMARK  status: ('A' for Active; 'I' for Inactive)
REMARK    1  A    between atoms: C_6  and  C_7 
REMARK    2  A    between atoms: N_10  and  C_12 
REMARK    3  A    between atoms: C_12  and  C_13 
REMARK    4  A    between atoms: C_14  and  N_15 
REMARK    5  A    between atoms: N_15  and  C_16 
ROOT
HETATM    1  C   UNL     1      42.474 -14.114   3.001  1.00  0.00    -0.006 A 
HETATM    2  C   UNL     1      41.290 -14.189   2.228  1.00  0.00     0.038 A 
HETATM    3  C   UNL     1      40.837 -15.459   1.815  1.00  0.00     0.030 A 
HETATM    4  C   UNL     1      41.473 -16.628   2.227  1.00  0.00     0.002 A 
HETATM    5  C   UNL     1      42.571 -16.554   3.071  1.00  0.00     0.001 A 
HETATM    6  C   UNL     1      43.065 -15.310   3.461  1.00  0.00     0.011 A 
ENDROOT
BRANCH   1   7
HETATM    7  C   UNL     1      43.097 -12.774   3.329  1.00  0.00     0.275 C 
BRANCH   7   8
HETATM    8  N   UNL     1      43.766 -12.662   4.698  1.00  0.00    -0.067 N 
HETATM    9  C   UNL     1      44.562 -11.390   4.867  1.00  0.00     0.236 C 
HETATM   10  C   UNL     1      45.310 -11.424   6.196  1.00  0.00     0.038 C 
HETATM   11  C   UNL     1      44.432 -11.740   7.417  1.00  0.00     0.040 C 
HETATM   12  C   UNL     1      43.500 -12.928   7.138  1.00  0.00     0.038 C 
HETATM   13  C   UNL     1      42.759 -12.808   5.814  1.00  0.00     0.236 C 
HETATM   14  H   UNL     1      44.413 -13.453   4.770  1.00  0.00     0.280 HD
BRANCH  11  15
HETATM   15  C   UNL     1      43.668 -10.550   7.938  1.00  0.00     0.035 A 
HETATM   16  N   UNL     1      44.018  -9.886   9.102  1.00  0.00    -0.278 N 
HETATM   17  C   UNL     1      45.154 -10.124   9.966  1.00  0.00     0.179 C 
HETATM   18  N   UNL     1      43.163  -8.904   9.426  1.00  0.00    -0.185 NA
HETATM   19  C   UNL     1      42.323  -8.842   8.400  1.00  0.00     0.141 A 
HETATM   20  C   UNL     1      42.585  -9.841   7.447  1.00  0.00     0.048 A 
ENDBRANCH  11  15
ENDBRANCH   7   8
ENDBRANCH   1   7
BRANCH   2  21
HETATM   21  N   UNL     1      40.556 -13.023   1.905  1.00  0.00    -0.380 N 
HETATM   22  C   UNL     1      40.704 -12.608   0.506  1.00  0.00     0.150 C 
BRANCH  21  23
HETATM   23  C   UNL     1      39.250 -12.886   2.620  1.00  0.00     0.087 C 
HETATM   24  C   UNL     1      38.223 -11.943   1.975  1.00  0.00     0.053 C 
HETATM   25  C   UNL     1      38.434 -10.482   2.319  1.00  0.00     0.236 C 
HETATM   26  N   UNL     1      38.424 -10.319   3.816  1.00  0.00    -0.075 N 
HETATM   27  H   UNL     1      37.515 -10.656   4.168  1.00  0.00     0.279 HD
HETATM   28  C   UNL     1      38.482  -8.860   4.212  1.00  0.00     0.269 C 
HETATM   29  C   UNL     1      39.510 -11.118   4.482  1.00  0.00     0.236 C 
HETATM   30  C   UNL     1      39.391 -12.595   4.123  1.00  0.00     0.053 C 
ENDBRANCH  21  23
ENDBRANCH   2  21
TORSDOF 5
ENDMDL
