MODEL 1
REMARK VINA RESULT:      -8.5      0.000      0.000
REMARK  2 active torsions:
REMARK  status: ('A' for Active; 'I' for Inactive)
REMARK    1  A    between atoms: C_6  and  O_7 
REMARK    2  A    between atoms: C_6  and  C_8 
ROOT
HETATM    1  C   UNL     1      42.026 -10.769   6.279  1.00  0.00     0.048 C 
HETATM    2  C   UNL     1      42.058 -12.079   5.546  1.00  0.00    -0.059 A 
HETATM    3  C   UNL     1      42.843 -12.240   4.400  1.00  0.00     0.037 A 
HETATM    4  C   UNL     1      42.830 -13.473   3.778  1.00  0.00     0.046 A 
HETATM    5  C   UNL     1      42.079 -14.560   4.247  1.00  0.00     0.023 A 
HETATM    6  C   UNL     1      42.293 -15.739   3.315  1.00  0.00     0.199 A 
HETATM    7  C   UNL     1      43.199 -15.096   2.204  1.00  0.00     0.266 A 
HETATM    8  O   UNL     1      43.547 -15.600   1.146  1.00  0.00    -0.269 OA
HETATM    9  N   UNL     1      43.496 -13.798   2.605  1.00  0.00    -0.323 N 
HETATM   10  C   UNL     1      41.263 -14.407   5.367  1.00  0.00    -0.049 A 
HETATM   11  C   UNL     1      40.424 -15.518   5.924  1.00  0.00     0.049 C 
HETATM   12  C   UNL     1      41.283 -13.159   6.021  1.00  0.00     0.014 A 
HETATM   13  H   UNL     1      44.047 -13.166   2.046  1.00  0.00     0.169 HD
ENDROOT
BRANCH   6  14
HETATM   14  O   UNL     1      41.037 -16.166   2.811  1.00  0.00    -0.371 OA
HETATM   15  H   UNL     1      40.920 -17.072   3.139  1.00  0.00     0.212 HD
ENDBRANCH   6  14
BRANCH   6  16
HETATM   16  C   UNL     1      43.048 -16.840   4.041  1.00  0.00     0.018 A 
HETATM   17  C   UNL     1      43.268 -18.180   3.542  1.00  0.00     0.002 A 
HETATM   18  C   UNL     1      43.955 -18.898   4.523  1.00  0.00     0.043 A 
HETATM   19  C   UNL     1      42.948 -18.855   2.341  1.00  0.00     0.014 A 
HETATM   20  C   UNL     1      44.300 -20.248   4.385  1.00  0.00     0.030 A 
HETATM   21  N   UNL     1      44.196 -18.033   5.560  1.00  0.00    -0.365 N 
HETATM   22  C   UNL     1      43.949 -20.891   3.197  1.00  0.00     0.002 A 
HETATM   23  C   UNL     1      43.290 -20.205   2.183  1.00  0.00     0.001 A 
HETATM   24  H   UNL     1      44.693 -18.277   6.405  1.00  0.00     0.165 HD
HETATM   25  C   UNL     1      43.686 -16.798   5.274  1.00  0.00     0.100 A 
ENDBRANCH   6  16
TORSDOF 2
ENDMDL
MODEL 2
REMARK VINA RESULT:      -8.2      1.857      6.048
REMARK  2 active torsions:
REMARK  status: ('A' for Active; 'I' for Inactive)
REMARK    1  A    between atoms: C_6  and  O_7 
REMARK    2  A    between atoms: C_6  and  C_8 
ROOT
HETATM    1  C   UNL     1      44.651 -19.729   4.892  1.00  0.00     0.048 C 
HETATM    2  C   UNL     1      43.744 -18.544   4.729  1.00  0.00    -0.059 A 
HETATM    3  C   UNL     1      43.084 -17.990   5.831  1.00  0.00     0.037 A 
HETATM    4  C   UNL     1      42.268 -16.898   5.611  1.00  0.00     0.046 A 
HETATM    5  C   UNL     1      42.083 -16.321   4.347  1.00  0.00     0.023 A 
HETATM    6  C   UNL     1      41.117 -15.157   4.478  1.00  0.00     0.199 A 
HETATM    7  C   UNL     1      40.723 -15.251   5.996  1.00  0.00     0.266 A 
HETATM    8  O   UNL     1      39.861 -14.610   6.579  1.00  0.00    -0.269 OA
HETATM    9  N   UNL     1      41.493 -16.257   6.567  1.00  0.00    -0.323 N 
HETATM   10  C   UNL     1      42.705 -16.882   3.232  1.00  0.00    -0.049 A 
HETATM   11  C   UNL     1      42.550 -16.330   1.846  1.00  0.00     0.049 C 
HETATM   12  C   UNL     1      43.555 -17.985   3.446  1.00  0.00     0.014 A 
HETATM   13  H   UNL     1      41.407 -16.529   7.534  1.00  0.00     0.169 HD
ENDROOT
BRANCH   6  14
HETATM   14  O   UNL     1      40.011 -15.373   3.615  1.00  0.00    -0.371 OA
HETATM   15  H   UNL     1      40.379 -15.371   2.717  1.00  0.00     0.212 HD
ENDBRANCH   6  14
BRANCH   6  16
HETATM   16  C   UNL     1      41.843 -13.852   4.200  1.00  0.00     0.018 A 
HETATM   17  C   UNL     1      42.870 -13.266   5.034  1.00  0.00     0.002 A 
HETATM   18  C   UNL     1      43.245 -12.048   4.463  1.00  0.00     0.043 A 
HETATM   19  C   UNL     1      43.523 -13.658   6.225  1.00  0.00     0.014 A 
HETATM   20  C   UNL     1      44.197 -11.194   5.033  1.00  0.00     0.030 A 
HETATM   21  N   UNL     1      42.524 -11.907   3.304  1.00  0.00    -0.365 N 
HETATM   22  C   UNL     1      44.805 -11.600   6.222  1.00  0.00     0.002 A 
HETATM   23  C   UNL     1      44.482 -12.819   6.807  1.00  0.00     0.001 A 
HETATM   24  H   UNL     1      42.601 -11.121   2.673  1.00  0.00     0.165 HD
HETATM   25  C   UNL     1      41.706 -12.986   3.122  1.00  0.00     0.100 A 
ENDBRANCH   6  16
TORSDOF 2
ENDMDL
MODEL 3
REMARK VINA RESULT:      -8.1      1.623      6.397
REMARK  2 active torsions:
REMARK  status: ('A' for Active; 'I' for Inactive)
REMARK    1  A    between atoms: C_6  and  O_7 
REMARK    2  A    between atoms: C_6  and  C_8 
ROOT
HETATM    1  C   UNL     1      44.022 -20.196   1.898  1.00  0.00     0.048 C 
HETATM    2  C   UNL     1      43.561 -18.983   2.655  1.00  0.00    -0.059 A 
HETATM    3  C   UNL     1      44.210 -18.580   3.826  1.00  0.00     0.037 A 
HETATM    4  C   UNL     1      43.737 -17.453   4.470  1.00  0.00     0.046 A 
HETATM    5  C   UNL     1      42.652 -16.701   4.000  1.00  0.00     0.023 A 
HETATM    6  C   UNL     1      42.404 -15.550   4.958  1.00  0.00     0.199 A 
HETATM    7  C   UNL     1      43.460 -15.851   6.083  1.00  0.00     0.266 A 
HETATM    8  O   UNL     1      43.579 -15.284   7.159  1.00  0.00    -0.269 OA
HETATM    9  N   UNL     1      44.216 -16.940   5.667  1.00  0.00    -0.323 N 
HETATM   10  C   UNL     1      41.970 -17.109   2.854  1.00  0.00    -0.049 A 
HETATM   11  C   UNL     1      40.796 -16.364   2.293  1.00  0.00     0.049 C 
HETATM   12  C   UNL     1      42.455 -18.246   2.178  1.00  0.00     0.014 A 
HETATM   13  H   UNL     1      44.948 -17.345   6.230  1.00  0.00     0.169 HD
ENDROOT
BRANCH   6  14
HETATM   14  O   UNL     1      41.069 -15.623   5.434  1.00  0.00    -0.371 OA
HETATM   15  H   UNL     1      40.699 -16.432   5.047  1.00  0.00     0.212 HD
ENDBRANCH   6  14
BRANCH   6  16
HETATM   16  C   UNL     1      42.721 -14.232   4.274  1.00  0.00     0.018 A 
HETATM   17  C   UNL     1      42.415 -12.917   4.797  1.00  0.00     0.002 A 
HETATM   18  C   UNL     1      42.818 -11.973   3.851  1.00  0.00     0.043 A 
HETATM   19  C   UNL     1      41.832 -12.438   5.993  1.00  0.00     0.014 A 
HETATM   20  C   UNL     1      42.637 -10.595   4.017  1.00  0.00     0.030 A 
HETATM   21  N   UNL     1      43.394 -12.662   2.814  1.00  0.00    -0.365 N 
HETATM   22  C   UNL     1      42.037 -10.155   5.199  1.00  0.00     0.002 A 
HETATM   23  C   UNL     1      41.647 -11.061   6.179  1.00  0.00     0.001 A 
HETATM   24  H   UNL     1      43.791 -12.231   1.991  1.00  0.00     0.165 HD
HETATM   25  C   UNL     1      43.367 -14.005   3.065  1.00  0.00     0.100 A 
ENDBRANCH   6  16
TORSDOF 2
ENDMDL
MODEL 4
REMARK VINA RESULT:      -8.1      2.342      3.519
REMARK  2 active torsions:
REMARK  status: ('A' for Active; 'I' for Inactive)
REMARK    1  A    between atoms: C_6  and  O_7 
REMARK    2  A    between atoms: C_6  and  C_8 
ROOT
HETATM    1  C   UNL     1      38.900  -9.897   4.323  1.00  0.00     0.048 C 
HETATM    2  C   UNL     1      39.738 -11.128   4.520  1.00  0.00    -0.059 A 
HETATM    3  C   UNL     1      39.340 -12.129   5.411  1.00  0.00     0.037 A 
HETATM    4  C   UNL     1      40.155 -13.237   5.541  1.00  0.00     0.046 A 
HETATM    5  C   UNL     1      41.344 -13.403   4.818  1.00  0.00     0.023 A 
HETATM    6  C   UNL     1      41.982 -14.720   5.221  1.00  0.00     0.199 A 
HETATM    7  C   UNL     1      41.007 -15.201   6.355  1.00  0.00     0.266 A 
HETATM    8  O   UNL     1      41.152 -16.159   7.101  1.00  0.00    -0.269 OA
HETATM    9  N   UNL     1      39.954 -14.296   6.414  1.00  0.00    -0.323 N 
HETATM   10  C   UNL     1      41.774 -12.398   3.951  1.00  0.00    -0.049 A 
HETATM   11  C   UNL     1      43.038 -12.496   3.150  1.00  0.00     0.049 C 
HETATM   12  C   UNL     1      40.941 -11.272   3.797  1.00  0.00     0.014 A 
HETATM   13  H   UNL     1      39.204 -14.373   7.084  1.00  0.00     0.169 HD
ENDROOT
BRANCH   6  14
HETATM   14  O   UNL     1      43.294 -14.472   5.703  1.00  0.00    -0.371 OA
HETATM   15  H   UNL     1      43.285 -13.553   6.017  1.00  0.00     0.212 HD
ENDBRANCH   6  14
BRANCH   6  16
HETATM   16  C   UNL     1      41.951 -15.687   4.051  1.00  0.00     0.018 A 
HETATM   17  C   UNL     1      42.769 -16.874   3.918  1.00  0.00     0.002 A 
HETATM   18  C   UNL     1      42.480 -17.460   2.684  1.00  0.00     0.043 A 
HETATM   19  C   UNL     1      43.731 -17.511   4.736  1.00  0.00     0.014 A 
HETATM   20  C   UNL     1      43.121 -18.612   2.213  1.00  0.00     0.030 A 
HETATM   21  N   UNL     1      41.494 -16.705   2.100  1.00  0.00    -0.365 N 
HETATM   22  C   UNL     1      44.083 -19.203   3.034  1.00  0.00     0.002 A 
HETATM   23  C   UNL     1      44.380 -18.667   4.283  1.00  0.00     0.001 A 
HETATM   24  H   UNL     1      41.076 -16.904   1.202  1.00  0.00     0.165 HD
HETATM   25  C   UNL     1      41.152 -15.663   2.915  1.00  0.00     0.100 A 
ENDBRANCH   6  16
TORSDOF 2
ENDMDL
MODEL 5
REMARK VINA RESULT:      -7.9     14.001     15.122
REMARK  2 active torsions:
REMARK  status: ('A' for Active; 'I' for Inactive)
REMARK    1  A    between atoms: C_6  and  O_7 
REMARK    2  A    between atoms: C_6  and  C_8 
ROOT
HETATM    1  C   UNL     1      44.982 -28.308  -4.211  1.00  0.00     0.048 C 
HETATM    2  C   UNL     1      45.171 -28.515  -2.735  1.00  0.00    -0.059 A 
HETATM    3  C   UNL     1      44.153 -29.069  -1.953  1.00  0.00     0.037 A 
HETATM    4  C   UNL     1      44.395 -29.236  -0.604  1.00  0.00     0.046 A 
HETATM    5  C   UNL     1      45.608 -28.887   0.006  1.00  0.00     0.023 A 
HETATM    6  C   UNL     1      45.514 -29.194   1.490  1.00  0.00     0.199 A 
HETATM    7  C   UNL     1      44.023 -29.671   1.614  1.00  0.00     0.266 A 
HETATM    8  O   UNL     1      43.404 -29.913   2.640  1.00  0.00    -0.269 OA
HETATM    9  N   UNL     1      43.488 -29.712   0.332  1.00  0.00    -0.323 N 
HETATM   10  C   UNL     1      46.620 -28.300  -0.752  1.00  0.00    -0.049 A 
HETATM   11  C   UNL     1      47.942 -27.890  -0.172  1.00  0.00     0.049 C 
HETATM   12  C   UNL     1      46.392 -28.142  -2.133  1.00  0.00     0.014 A 
HETATM   13  H   UNL     1      42.530 -29.966   0.147  1.00  0.00     0.169 HD
ENDROOT
BRANCH   6  14
HETATM   14  O   UNL     1      45.768 -28.007   2.226  1.00  0.00    -0.371 OA
HETATM   15  H   UNL     1      46.281 -27.437   1.631  1.00  0.00     0.212 HD
ENDBRANCH   6  14
BRANCH   6  16
HETATM   16  C   UNL     1      46.463 -30.326   1.842  1.00  0.00     0.018 A 
HETATM   17  C   UNL     1      47.663 -30.201   2.641  1.00  0.00     0.002 A 
HETATM   18  C   UNL     1      48.280 -31.453   2.691  1.00  0.00     0.043 A 
HETATM   19  C   UNL     1      48.286 -29.137   3.334  1.00  0.00     0.014 A 
HETATM   20  C   UNL     1      49.491 -31.685   3.354  1.00  0.00     0.030 A 
HETATM   21  N   UNL     1      47.477 -32.325   2.000  1.00  0.00    -0.365 N 
HETATM   22  C   UNL     1      50.092 -30.608   4.007  1.00  0.00     0.002 A 
HETATM   23  C   UNL     1      49.496 -29.352   4.006  1.00  0.00     0.001 A 
HETATM   24  H   UNL     1      47.670 -33.310   1.884  1.00  0.00     0.165 HD
HETATM   25  C   UNL     1      46.379 -31.674   1.514  1.00  0.00     0.100 A 
ENDBRANCH   6  16
TORSDOF 2
ENDMDL
MODEL 6
REMARK VINA RESULT:      -7.8      3.274      7.109
REMARK  2 active torsions:
REMARK  status: ('A' for Active; 'I' for Inactive)
REMARK    1  A    between atoms: C_6  and  O_7 
REMARK    2  A    between atoms: C_6  and  C_8 
ROOT
HETATM    1  C   UNL     1      43.017 -15.985   1.339  1.00  0.00     0.048 C 
HETATM    2  C   UNL     1      43.028 -15.173   2.602  1.00  0.00    -0.059 A 
HETATM    3  C   UNL     1      43.272 -15.776   3.840  1.00  0.00     0.037 A 
HETATM    4  C   UNL     1      43.272 -14.969   4.961  1.00  0.00     0.046 A 
HETATM    5  C   UNL     1      43.051 -13.586   4.910  1.00  0.00     0.023 A 
HETATM    6  C   UNL     1      43.108 -13.030   6.321  1.00  0.00     0.199 A 
HETATM    7  C   UNL     1      43.295 -14.342   7.164  1.00  0.00     0.266 A 
HETATM    8  O   UNL     1      43.267 -14.453   8.381  1.00  0.00    -0.269 OA
HETATM    9  N   UNL     1      43.437 -15.398   6.270  1.00  0.00    -0.323 N 
HETATM   10  C   UNL     1      42.770 -12.974   3.688  1.00  0.00    -0.049 A 
HETATM   11  C   UNL     1      42.513 -11.503   3.552  1.00  0.00     0.049 C 
HETATM   12  C   UNL     1      42.786 -13.783   2.536  1.00  0.00     0.014 A 
HETATM   13  H   UNL     1      43.546 -16.355   6.567  1.00  0.00     0.169 HD
ENDROOT
BRANCH   6  14
HETATM   14  O   UNL     1      41.886 -12.369   6.609  1.00  0.00    -0.371 OA
HETATM   15  H   UNL     1      41.190 -13.020   6.427  1.00  0.00     0.212 HD
ENDBRANCH   6  14
BRANCH   6  16
HETATM   16  C   UNL     1      44.321 -12.128   6.470  1.00  0.00     0.018 A 
HETATM   17  C   UNL     1      44.572 -11.231   7.578  1.00  0.00     0.002 A 
HETATM   18  C   UNL     1      45.760 -10.546   7.317  1.00  0.00     0.043 A 
HETATM   19  C   UNL     1      43.899 -10.937   8.786  1.00  0.00     0.014 A 
HETATM   20  C   UNL     1      46.284  -9.566   8.169  1.00  0.00     0.030 A 
HETATM   21  N   UNL     1      46.252 -11.029   6.130  1.00  0.00    -0.365 N 
HETATM   22  C   UNL     1      45.583  -9.282   9.342  1.00  0.00     0.002 A 
HETATM   23  C   UNL     1      44.411  -9.963   9.654  1.00  0.00     0.001 A 
HETATM   24  H   UNL     1      47.114 -10.724   5.701  1.00  0.00     0.165 HD
HETATM   25  C   UNL     1      45.420 -11.991   5.630  1.00  0.00     0.100 A 
ENDBRANCH   6  16
TORSDOF 2
ENDMDL
MODEL 7
REMARK VINA RESULT:      -7.6      2.482      6.299
REMARK  2 active torsions:
REMARK  status: ('A' for Active; 'I' for Inactive)
REMARK    1  A    between atoms: C_6  and  O_7 
REMARK    2  A    between atoms: C_6  and  C_8 
ROOT
HETATM    1  C   UNL     1      44.259 -18.710   2.480  1.00  0.00     0.048 C 
HETATM    2  C   UNL     1      43.584 -17.870   3.526  1.00  0.00    -0.059 A 
HETATM    3  C   UNL     1      44.208 -17.614   4.751  1.00  0.00     0.037 A 
HETATM    4  C   UNL     1      43.534 -16.830   5.666  1.00  0.00     0.046 A 
HETATM    5  C   UNL     1      42.270 -16.277   5.419  1.00  0.00     0.023 A 
HETATM    6  C   UNL     1      41.832 -15.491   6.641  1.00  0.00     0.199 A 
HETATM    7  C   UNL     1      43.011 -15.785   7.637  1.00  0.00     0.266 A 
HETATM    8  O   UNL     1      43.075 -15.484   8.820  1.00  0.00    -0.269 OA
HETATM    9  N   UNL     1      43.968 -16.520   6.947  1.00  0.00    -0.323 N 
HETATM   10  C   UNL     1      41.618 -16.552   4.217  1.00  0.00    -0.049 A 
HETATM   11  C   UNL     1      40.261 -16.007   3.881  1.00  0.00     0.049 C 
HETATM   12  C   UNL     1      42.304 -17.335   3.268  1.00  0.00     0.014 A 
HETATM   13  H   UNL     1      44.816 -16.855   7.379  1.00  0.00     0.169 HD
ENDROOT
BRANCH   6  14
HETATM   14  O   UNL     1      40.592 -16.004   7.102  1.00  0.00    -0.371 OA
HETATM   15  H   UNL     1      40.274 -15.364   7.759  1.00  0.00     0.212 HD
ENDBRANCH   6  14
BRANCH   6  16
HETATM   16  C   UNL     1      41.776 -14.010   6.309  1.00  0.00     0.018 A 
HETATM   17  C   UNL     1      42.899 -13.097   6.341  1.00  0.00     0.002 A 
HETATM   18  C   UNL     1      42.427 -11.823   6.022  1.00  0.00     0.043 A 
HETATM   19  C   UNL     1      44.280 -13.235   6.610  1.00  0.00     0.014 A 
HETATM   20  C   UNL     1      43.244 -10.686   5.997  1.00  0.00     0.030 A 
HETATM   21  N   UNL     1      41.087 -11.944   5.755  1.00  0.00    -0.365 N 
HETATM   22  C   UNL     1      44.599 -10.853   6.291  1.00  0.00     0.002 A 
HETATM   23  C   UNL     1      45.115 -12.110   6.584  1.00  0.00     0.001 A 
HETATM   24  H   UNL     1      40.486 -11.180   5.480  1.00  0.00     0.165 HD
HETATM   25  C   UNL     1      40.693 -13.245   5.895  1.00  0.00     0.100 A 
ENDBRANCH   6  16
TORSDOF 2
ENDMDL
MODEL 8
REMARK VINA RESULT:      -7.6      3.072      6.546
REMARK  2 active torsions:
REMARK  status: ('A' for Active; 'I' for Inactive)
REMARK    1  A    between atoms: C_6  and  O_7 
REMARK    2  A    between atoms: C_6  and  C_8 
ROOT
HETATM    1  C   UNL     1      43.891 -18.811   2.695  1.00  0.00     0.048 C 
HETATM    2  C   UNL     1      43.145 -17.558   3.054  1.00  0.00    -0.059 A 
HETATM    3  C   UNL     1      43.596 -16.725   4.082  1.00  0.00     0.037 A 
HETATM    4  C   UNL     1      42.865 -15.586   4.358  1.00  0.00     0.046 A 
HETATM    5  C   UNL     1      41.709 -15.229   3.651  1.00  0.00     0.023 A 
HETATM    6  C   UNL     1      41.164 -13.935   4.228  1.00  0.00     0.199 A 
HETATM    7  C   UNL     1      42.146 -13.694   5.430  1.00  0.00     0.266 A 
HETATM    8  O   UNL     1      42.058 -12.842   6.302  1.00  0.00    -0.269 OA
HETATM    9  N   UNL     1      43.126 -14.679   5.374  1.00  0.00    -0.323 N 
HETATM   10  C   UNL     1      41.224 -16.066   2.646  1.00  0.00    -0.049 A 
HETATM   11  C   UNL     1      39.990 -15.758   1.851  1.00  0.00     0.049 C 
HETATM   12  C   UNL     1      41.972 -17.221   2.344  1.00  0.00     0.014 A 
HETATM   13  H   UNL     1      43.865 -14.755   6.056  1.00  0.00     0.169 HD
ENDROOT
BRANCH   6  14
HETATM   14  O   UNL     1      39.826 -14.145   4.655  1.00  0.00    -0.371 OA
HETATM   15  H   UNL     1      39.473 -13.261   4.843  1.00  0.00     0.212 HD
ENDBRANCH   6  14
BRANCH   6  16
HETATM   16  C   UNL     1      41.294 -12.819   3.207  1.00  0.00     0.018 A 
HETATM   17  C   UNL     1      40.197 -12.187   2.505  1.00  0.00     0.002 A 
HETATM   18  C   UNL     1      40.735 -11.250   1.621  1.00  0.00     0.043 A 
HETATM   19  C   UNL     1      38.790 -12.322   2.540  1.00  0.00     0.014 A 
HETATM   20  C   UNL     1      39.953 -10.478   0.753  1.00  0.00     0.030 A 
HETATM   21  N   UNL     1      42.095 -11.260   1.800  1.00  0.00    -0.365 N 
HETATM   22  C   UNL     1      38.568 -10.653   0.795  1.00  0.00     0.002 A 
HETATM   23  C   UNL     1      37.991 -11.555   1.682  1.00  0.00     0.001 A 
HETATM   24  H   UNL     1      42.743 -10.668   1.299  1.00  0.00     0.165 HD
HETATM   25  C   UNL     1      42.439 -12.170   2.760  1.00  0.00     0.100 A 
ENDBRANCH   6  16
TORSDOF 2
ENDMDL
MODEL 9
REMARK VINA RESULT:      -7.5      2.309      6.134
REMARK  2 active torsions:
REMARK  status: ('A' for Active; 'I' for Inactive)
REMARK    1  A    between atoms: C_6  and  O_7 
REMARK    2  A    between atoms: C_6  and  C_8 
ROOT
HETATM    1  C   UNL     1      43.309 -18.490   2.210  1.00  0.00     0.048 C 
HETATM    2  C   UNL     1      42.608 -17.261   2.714  1.00  0.00    -0.059 A 
HETATM    3  C   UNL     1      42.180 -17.175   4.043  1.00  0.00     0.037 A 
HETATM    4  C   UNL     1      41.547 -16.014   4.441  1.00  0.00     0.046 A 
HETATM    5  C   UNL     1      41.326 -14.928   3.583  1.00  0.00     0.023 A 
HETATM    6  C   UNL     1      40.598 -13.839   4.351  1.00  0.00     0.199 A 
HETATM    7  C   UNL     1      40.363 -14.542   5.736  1.00  0.00     0.266 A 
HETATM    8  O   UNL     1      39.695 -14.129   6.673  1.00  0.00    -0.269 OA
HETATM    9  N   UNL     1      41.006 -15.773   5.696  1.00  0.00    -0.323 N 
HETATM   10  C   UNL     1      41.714 -15.011   2.246  1.00  0.00    -0.049 A 
HETATM   11  C   UNL     1      41.505 -13.897   1.265  1.00  0.00     0.049 C 
HETATM   12  C   UNL     1      42.378 -16.182   1.833  1.00  0.00     0.014 A 
HETATM   13  H   UNL     1      40.981 -16.428   6.462  1.00  0.00     0.169 HD
ENDROOT
BRANCH   6  14
HETATM   14  O   UNL     1      39.382 -13.536   3.684  1.00  0.00    -0.371 OA
HETATM   15  H   UNL     1      38.920 -14.384   3.588  1.00  0.00     0.212 HD
ENDBRANCH   6  14
BRANCH   6  16
HETATM   16  C   UNL     1      41.503 -12.631   4.517  1.00  0.00     0.018 A 
HETATM   17  C   UNL     1      42.716 -12.590   5.305  1.00  0.00     0.002 A 
HETATM   18  C   UNL     1      43.227 -11.292   5.242  1.00  0.00     0.043 A 
HETATM   19  C   UNL     1      43.435 -13.540   6.067  1.00  0.00     0.014 A 
HETATM   20  C   UNL     1      44.380 -10.888   5.925  1.00  0.00     0.030 A 
HETATM   21  N   UNL     1      42.401 -10.574   4.415  1.00  0.00    -0.365 N 
HETATM   22  C   UNL     1      45.053 -11.844   6.689  1.00  0.00     0.002 A 
HETATM   23  C   UNL     1      44.594 -13.155   6.753  1.00  0.00     0.001 A 
HETATM   24  H   UNL     1      42.537  -9.602   4.174  1.00  0.00     0.165 HD
HETATM   25  C   UNL     1      41.387 -11.366   3.955  1.00  0.00     0.100 A 
ENDBRANCH   6  16
TORSDOF 2
ENDMDL
MODEL 10
REMARK VINA RESULT:      -7.5     13.887     15.798
REMARK  2 active torsions:
REMARK  status: ('A' for Active; 'I' for Inactive)
REMARK    1  A    between atoms: C_6  and  O_7 
REMARK    2  A    between atoms: C_6  and  C_8 
ROOT
HETATM    1  C   UNL     1      50.195 -31.031   4.846  1.00  0.00     0.048 C 
HETATM    2  C   UNL     1      49.631 -30.527   3.548  1.00  0.00    -0.059 A 
HETATM    3  C   UNL     1      50.272 -30.799   2.335  1.00  0.00     0.037 A 
HETATM    4  C   UNL     1      49.697 -30.309   1.179  1.00  0.00     0.046 A 
HETATM    5  C   UNL     1      48.507 -29.568   1.169  1.00  0.00     0.023 A 
HETATM    6  C   UNL     1      48.182 -29.185  -0.263  1.00  0.00     0.199 A 
HETATM    7  C   UNL     1      49.436 -29.746  -1.026  1.00  0.00     0.266 A 
HETATM    8  O   UNL     1      49.725 -29.580  -2.202  1.00  0.00    -0.269 OA
HETATM    9  N   UNL     1      50.218 -30.429  -0.101  1.00  0.00    -0.323 N 
HETATM   10  C   UNL     1      47.875 -29.257   2.373  1.00  0.00    -0.049 A 
HETATM   11  C   UNL     1      46.605 -28.462   2.446  1.00  0.00     0.049 C 
HETATM   12  C   UNL     1      48.442 -29.768   3.557  1.00  0.00     0.014 A 
HETATM   13  H   UNL     1      51.097 -30.862  -0.341  1.00  0.00     0.169 HD
ENDROOT
BRANCH   6  14
HETATM   14  O   UNL     1      48.079 -27.773  -0.354  1.00  0.00    -0.371 OA
HETATM   15  H   UNL     1      47.409 -27.519   0.301  1.00  0.00     0.212 HD
ENDBRANCH   6  14
BRANCH   6  16
HETATM   16  C   UNL     1      46.923 -29.904  -0.716  1.00  0.00     0.018 A 
HETATM   17  C   UNL     1      46.068 -29.496  -1.810  1.00  0.00     0.002 A 
HETATM   18  C   UNL     1      44.993 -30.385  -1.871  1.00  0.00     0.043 A 
HETATM   19  C   UNL     1      46.108 -28.452  -2.762  1.00  0.00     0.014 A 
HETATM   20  C   UNL     1      43.949 -30.264  -2.796  1.00  0.00     0.030 A 
HETATM   21  N   UNL     1      45.195 -31.330  -0.896  1.00  0.00    -0.365 N 
HETATM   22  C   UNL     1      44.006 -29.207  -3.707  1.00  0.00     0.002 A 
HETATM   23  C   UNL     1      45.074 -28.317  -3.698  1.00  0.00     0.001 A 
HETATM   24  H   UNL     1      44.579 -32.110  -0.719  1.00  0.00     0.165 HD
HETATM   25  C   UNL     1      46.354 -31.070  -0.220  1.00  0.00     0.100 A 
ENDBRANCH   6  16
TORSDOF 2
ENDMDL
