MODEL 1
REMARK VINA RESULT:      -9.4      0.000      0.000
REMARK  5 active torsions:
REMARK  status: ('A' for Active; 'I' for Inactive)
REMARK    1  A    between atoms: C_2  and  C_3 
REMARK    2  A    between atoms: C_6  and  C_7 
REMARK    3  A    between atoms: C_11  and  C_12 
REMARK       I    between atoms: C_12  and  N_13 
REMARK    4  A    between atoms: N_13  and  N_14 
REMARK    5  A    between atoms: C_15  and  C_16 
ROOT
HETATM    1  C   UNL     1      44.463 -11.435   7.273  1.00  0.00     0.289 C 
HETATM    2  N   UNL     1      43.453 -12.360   7.040  1.00  0.00    -0.242 N 
HETATM    3  O   UNL     1      45.359 -11.160   6.481  1.00  0.00    -0.264 OA
HETATM    4  H   UNL     1      42.655 -12.368   7.665  1.00  0.00     0.192 HD
ENDROOT
BRANCH   1   5
HETATM    5  C   UNL     1      44.387 -10.780   8.556  1.00  0.00     0.121 A 
HETATM    6  N   UNL     1      45.499 -10.245   9.145  1.00  0.00    -0.272 N 
HETATM    7  N   UNL     1      45.278  -9.698  10.347  1.00  0.00    -0.174 NA
HETATM    8  H   UNL     1      46.442 -10.237   8.766  1.00  0.00     0.189 HD
HETATM    9  C   UNL     1      43.963  -9.860  10.560  1.00  0.00     0.089 A 
HETATM   10  C   UNL     1      43.368 -10.538   9.456  1.00  0.00     0.071 A 
BRANCH   9  11
HETATM   11  C   UNL     1      43.318  -9.388  11.789  1.00  0.00    -0.006 A 
HETATM   12  C   UNL     1      42.304 -10.131  12.409  1.00  0.00     0.014 A 
HETATM   13  C   UNL     1      41.700  -9.670  13.585  1.00  0.00     0.008 A 
HETATM   14  C   UNL     1      42.095  -8.458  14.162  1.00  0.00    -0.059 A 
HETATM   15  C   UNL     1      43.111  -7.717  13.550  1.00  0.00     0.008 A 
HETATM   16  C   UNL     1      43.711  -8.175  12.374  1.00  0.00     0.014 A 
BRANCH  14  17
HETATM   17  C   UNL     1      41.454  -7.970  15.436  1.00  0.00     0.034 C 
HETATM   18  C   UNL     1      42.176  -6.757  16.004  1.00  0.00     0.010 C 
ENDBRANCH  14  17
ENDBRANCH   9  11
ENDBRANCH   1   5
BRANCH   2  19
HETATM   19  N   UNL     1      43.243 -13.093   5.896  1.00  0.00    -0.183 NA
HETATM   20  C   UNL     1      42.551 -14.186   5.956  1.00  0.00     0.153 C 
BRANCH  20  21
HETATM   21  C   UNL     1      42.340 -14.980   4.755  1.00  0.00     0.018 A 
HETATM   22  C   UNL     1      43.012 -16.209   4.437  1.00  0.00     0.004 A 
HETATM   23  C   UNL     1      42.513 -16.656   3.215  1.00  0.00     0.043 A 
HETATM   24  C   UNL     1      44.001 -16.986   5.078  1.00  0.00     0.014 A 
HETATM   25  C   UNL     1      42.943 -17.840   2.604  1.00  0.00     0.030 A 
HETATM   26  N   UNL     1      41.583 -15.735   2.798  1.00  0.00    -0.358 N 
HETATM   27  C   UNL     1      43.920 -18.591   3.262  1.00  0.00     0.002 A 
HETATM   28  C   UNL     1      44.445 -18.172   4.481  1.00  0.00     0.001 A 
HETATM   29  H   UNL     1      41.061 -15.807   1.935  1.00  0.00     0.166 HD
HETATM   30  C   UNL     1      41.463 -14.715   3.710  1.00  0.00     0.018 A 
HETATM   31  C   UNL     1      40.515 -13.592   3.481  1.00  0.00     0.069 C 
ENDBRANCH  20  21
ENDBRANCH   2  19
TORSDOF 5
ENDMDL
MODEL 2
REMARK VINA RESULT:      -9.2      1.283      2.300
REMARK  5 active torsions:
REMARK  status: ('A' for Active; 'I' for Inactive)
REMARK    1  A    between atoms: C_2  and  C_3 
REMARK    2  A    between atoms: C_6  and  C_7 
REMARK    3  A    between atoms: C_11  and  C_12 
REMARK       I    between atoms: C_12  and  N_13 
REMARK    4  A    between atoms: N_13  and  N_14 
REMARK    5  A    between atoms: C_15  and  C_16 
ROOT
HETATM    1  C   UNL     1      44.553 -11.335   7.744  1.00  0.00     0.289 C 
HETATM    2  N   UNL     1      43.784 -12.486   7.630  1.00  0.00    -0.242 N 
HETATM    3  O   UNL     1      45.506 -11.053   7.023  1.00  0.00    -0.264 OA
HETATM    4  H   UNL     1      42.906 -12.528   8.135  1.00  0.00     0.192 HD
ENDROOT
BRANCH   1   5
HETATM    5  C   UNL     1      44.142 -10.442   8.800  1.00  0.00     0.121 A 
HETATM    6  N   UNL     1      44.249  -9.087   8.664  1.00  0.00    -0.272 N 
HETATM    7  N   UNL     1      43.856  -8.391   9.739  1.00  0.00    -0.174 NA
HETATM    8  H   UNL     1      44.596  -8.583   7.852  1.00  0.00     0.189 HD
HETATM    9  C   UNL     1      43.457  -9.321  10.621  1.00  0.00     0.089 A 
HETATM   10  C   UNL     1      43.622 -10.624  10.067  1.00  0.00     0.071 A 
BRANCH   9  11
HETATM   11  C   UNL     1      42.949  -8.957  11.947  1.00  0.00    -0.006 A 
HETATM   12  C   UNL     1      43.393  -7.800  12.602  1.00  0.00     0.014 A 
HETATM   13  C   UNL     1      42.896  -7.461  13.866  1.00  0.00     0.008 A 
HETATM   14  C   UNL     1      41.950  -8.273  14.502  1.00  0.00    -0.059 A 
HETATM   15  C   UNL     1      41.500  -9.426  13.849  1.00  0.00     0.008 A 
HETATM   16  C   UNL     1      41.999  -9.765  12.588  1.00  0.00     0.014 A 
BRANCH  14  17
HETATM   17  C   UNL     1      41.406  -7.901  15.857  1.00  0.00     0.034 C 
HETATM   18  C   UNL     1      42.193  -6.763  16.491  1.00  0.00     0.010 C 
ENDBRANCH  14  17
ENDBRANCH   9  11
ENDBRANCH   1   5
BRANCH   2  19
HETATM   19  N   UNL     1      43.910 -13.482   6.693  1.00  0.00    -0.183 NA
HETATM   20  C   UNL     1      42.946 -14.331   6.530  1.00  0.00     0.153 C 
BRANCH  20  21
HETATM   21  C   UNL     1      43.077 -15.402   5.553  1.00  0.00     0.018 A 
HETATM   22  C   UNL     1      43.051 -15.238   4.126  1.00  0.00     0.004 A 
HETATM   23  C   UNL     1      43.227 -16.497   3.556  1.00  0.00     0.043 A 
HETATM   24  C   UNL     1      42.894 -14.131   3.264  1.00  0.00     0.014 A 
HETATM   25  C   UNL     1      43.263 -16.708   2.172  1.00  0.00     0.030 A 
HETATM   26  N   UNL     1      43.347 -17.394   4.588  1.00  0.00    -0.358 N 
HETATM   27  C   UNL     1      43.107 -15.595   1.342  1.00  0.00     0.002 A 
HETATM   28  C   UNL     1      42.923 -14.324   1.877  1.00  0.00     0.001 A 
HETATM   29  H   UNL     1      43.483 -18.389   4.463  1.00  0.00     0.166 HD
HETATM   30  C   UNL     1      43.258 -16.757   5.801  1.00  0.00     0.018 A 
HETATM   31  C   UNL     1      43.358 -17.518   7.075  1.00  0.00     0.069 C 
ENDBRANCH  20  21
ENDBRANCH   2  19
TORSDOF 5
ENDMDL
MODEL 3
REMARK VINA RESULT:      -8.9      6.924     10.918
REMARK  5 active torsions:
REMARK  status: ('A' for Active; 'I' for Inactive)
REMARK    1  A    between atoms: C_2  and  C_3 
REMARK    2  A    between atoms: C_6  and  C_7 
REMARK    3  A    between atoms: C_11  and  C_12 
REMARK       I    between atoms: C_12  and  N_13 
REMARK    4  A    between atoms: N_13  and  N_14 
REMARK    5  A    between atoms: C_15  and  C_16 
ROOT
HETATM    1  C   UNL     1      40.620 -14.561   0.693  1.00  0.00     0.289 C 
HETATM    2  N   UNL     1      41.651 -14.490   1.621  1.00  0.00    -0.242 N 
HETATM    3  O   UNL     1      39.813 -15.482   0.608  1.00  0.00    -0.264 OA
HETATM    4  H   UNL     1      42.131 -13.606   1.739  1.00  0.00     0.192 HD
ENDROOT
BRANCH   1   5
HETATM    5  C   UNL     1      40.544 -13.431  -0.202  1.00  0.00     0.121 A 
HETATM    6  N   UNL     1      39.604 -13.375  -1.192  1.00  0.00    -0.272 N 
HETATM    7  N   UNL     1      39.678 -12.280  -1.961  1.00  0.00    -0.174 NA
HETATM    8  H   UNL     1      38.890 -14.069  -1.393  1.00  0.00     0.189 HD
HETATM    9  C   UNL     1      40.697 -11.572  -1.451  1.00  0.00     0.089 A 
HETATM   10  C   UNL     1      41.269 -12.264  -0.344  1.00  0.00     0.071 A 
BRANCH   9  11
HETATM   11  C   UNL     1      41.104 -10.286  -2.025  1.00  0.00    -0.006 A 
HETATM   12  C   UNL     1      41.991  -9.437  -1.349  1.00  0.00     0.014 A 
HETATM   13  C   UNL     1      42.375  -8.213  -1.910  1.00  0.00     0.008 A 
HETATM   14  C   UNL     1      41.878  -7.813  -3.155  1.00  0.00    -0.059 A 
HETATM   15  C   UNL     1      40.997  -8.660  -3.836  1.00  0.00     0.008 A 
HETATM   16  C   UNL     1      40.612  -9.880  -3.273  1.00  0.00     0.014 A 
BRANCH  14  17
HETATM   17  C   UNL     1      42.302  -6.502  -3.766  1.00  0.00     0.034 C 
HETATM   18  C   UNL     1      43.120  -6.705  -5.034  1.00  0.00     0.010 C 
ENDBRANCH  14  17
ENDBRANCH   9  11
ENDBRANCH   1   5
BRANCH   2  19
HETATM   19  N   UNL     1      41.933 -15.390   2.621  1.00  0.00    -0.183 NA
HETATM   20  C   UNL     1      43.130 -15.875   2.725  1.00  0.00     0.153 C 
BRANCH  20  21
HETATM   21  C   UNL     1      43.434 -16.842   3.769  1.00  0.00     0.018 A 
HETATM   22  C   UNL     1      43.565 -18.260   3.581  1.00  0.00     0.004 A 
HETATM   23  C   UNL     1      43.877 -18.821   4.818  1.00  0.00     0.043 A 
HETATM   24  C   UNL     1      43.448 -19.122   2.468  1.00  0.00     0.014 A 
HETATM   25  C   UNL     1      44.085 -20.193   5.001  1.00  0.00     0.030 A 
HETATM   26  N   UNL     1      43.925 -17.792   5.726  1.00  0.00    -0.358 N 
HETATM   27  C   UNL     1      43.966 -21.022   3.883  1.00  0.00     0.002 A 
HETATM   28  C   UNL     1      43.651 -20.498   2.633  1.00  0.00     0.001 A 
HETATM   29  H   UNL     1      44.129 -17.912   6.709  1.00  0.00     0.166 HD
HETATM   30  C   UNL     1      43.659 -16.591   5.117  1.00  0.00     0.018 A 
HETATM   31  C   UNL     1      43.653 -15.323   5.895  1.00  0.00     0.069 C 
ENDBRANCH  20  21
ENDBRANCH   2  19
TORSDOF 5
ENDMDL
MODEL 4
REMARK VINA RESULT:      -8.5      6.998     11.560
REMARK  5 active torsions:
REMARK  status: ('A' for Active; 'I' for Inactive)
REMARK    1  A    between atoms: C_2  and  C_3 
REMARK    2  A    between atoms: C_6  and  C_7 
REMARK    3  A    between atoms: C_11  and  C_12 
REMARK       I    between atoms: C_12  and  N_13 
REMARK    4  A    between atoms: N_13  and  N_14 
REMARK    5  A    between atoms: C_15  and  C_16 
ROOT
HETATM    1  C   UNL     1      40.367 -14.859   0.622  1.00  0.00     0.289 C 
HETATM    2  N   UNL     1      41.393 -14.738   1.551  1.00  0.00    -0.242 N 
HETATM    3  O   UNL     1      39.638 -15.839   0.505  1.00  0.00    -0.264 OA
HETATM    4  H   UNL     1      41.799 -13.821   1.700  1.00  0.00     0.192 HD
ENDROOT
BRANCH   1   5
HETATM    5  C   UNL     1      40.194 -13.707  -0.230  1.00  0.00     0.121 A 
HETATM    6  N   UNL     1      41.194 -12.792  -0.396  1.00  0.00    -0.272 N 
HETATM    7  N   UNL     1      40.875 -11.762  -1.191  1.00  0.00    -0.174 NA
HETATM    8  H   UNL     1      42.119 -12.820   0.024  1.00  0.00     0.189 HD
HETATM    9  C   UNL     1      39.616 -12.012  -1.583  1.00  0.00     0.089 A 
HETATM   10  C   UNL     1      39.152 -13.226  -0.999  1.00  0.00     0.071 A 
BRANCH   9  11
HETATM   11  C   UNL     1      38.893 -11.101  -2.477  1.00  0.00    -0.006 A 
HETATM   12  C   UNL     1      37.493 -11.044  -2.478  1.00  0.00     0.014 A 
HETATM   13  C   UNL     1      36.816 -10.166  -3.333  1.00  0.00     0.008 A 
HETATM   14  C   UNL     1      37.524  -9.332  -4.205  1.00  0.00    -0.059 A 
HETATM   15  C   UNL     1      38.922  -9.382  -4.203  1.00  0.00     0.008 A 
HETATM   16  C   UNL     1      39.597 -10.261  -3.351  1.00  0.00     0.014 A 
BRANCH  14  17
HETATM   17  C   UNL     1      36.795  -8.378  -5.116  1.00  0.00     0.034 C 
HETATM   18  C   UNL     1      37.576  -8.106  -6.394  1.00  0.00     0.010 C 
ENDBRANCH  14  17
ENDBRANCH   9  11
ENDBRANCH   1   5
BRANCH   2  19
HETATM   19  N   UNL     1      41.753 -15.647   2.516  1.00  0.00    -0.183 NA
HETATM   20  C   UNL     1      43.007 -15.901   2.718  1.00  0.00     0.153 C 
BRANCH  20  21
HETATM   21  C   UNL     1      43.399 -16.876   3.725  1.00  0.00     0.018 A 
HETATM   22  C   UNL     1      43.547 -18.288   3.507  1.00  0.00     0.004 A 
HETATM   23  C   UNL     1      43.950 -18.858   4.713  1.00  0.00     0.043 A 
HETATM   24  C   UNL     1      43.378 -19.136   2.391  1.00  0.00     0.014 A 
HETATM   25  C   UNL     1      44.199 -20.228   4.861  1.00  0.00     0.030 A 
HETATM   26  N   UNL     1      44.034 -17.842   5.632  1.00  0.00    -0.358 N 
HETATM   27  C   UNL     1      44.026 -21.044   3.740  1.00  0.00     0.002 A 
HETATM   28  C   UNL     1      43.619 -20.509   2.521  1.00  0.00     0.001 A 
HETATM   29  H   UNL     1      44.304 -17.971   6.598  1.00  0.00     0.166 HD
HETATM   30  C   UNL     1      43.705 -16.638   5.059  1.00  0.00     0.018 A 
HETATM   31  C   UNL     1      43.721 -15.382   5.856  1.00  0.00     0.069 C 
ENDBRANCH  20  21
ENDBRANCH   2  19
TORSDOF 5
ENDMDL
MODEL 5
REMARK VINA RESULT:      -8.4      2.302     10.647
REMARK  5 active torsions:
REMARK  status: ('A' for Active; 'I' for Inactive)
REMARK    1  A    between atoms: C_2  and  C_3 
REMARK    2  A    between atoms: C_6  and  C_7 
REMARK    3  A    between atoms: C_11  and  C_12 
REMARK       I    between atoms: C_12  and  N_13 
REMARK    4  A    between atoms: N_13  and  N_14 
REMARK    5  A    between atoms: C_15  and  C_16 
ROOT
HETATM    1  C   UNL     1      42.246 -11.168   5.041  1.00  0.00     0.289 C 
HETATM    2  N   UNL     1      41.855 -11.249   6.372  1.00  0.00    -0.242 N 
HETATM    3  O   UNL     1      42.484 -10.124   4.441  1.00  0.00    -0.264 OA
HETATM    4  H   UNL     1      41.880 -12.155   6.825  1.00  0.00     0.192 HD
ENDROOT
BRANCH   1   5
HETATM    5  C   UNL     1      42.371 -12.443   4.377  1.00  0.00     0.121 A 
HETATM    6  N   UNL     1      41.971 -12.609   3.081  1.00  0.00    -0.272 N 
HETATM    7  N   UNL     1      42.122 -13.854   2.612  1.00  0.00    -0.174 NA
HETATM    8  H   UNL     1      41.577 -11.898   2.471  1.00  0.00     0.189 HD
HETATM    9  C   UNL     1      42.658 -14.541   3.632  1.00  0.00     0.089 A 
HETATM   10  C   UNL     1      42.829 -13.688   4.761  1.00  0.00     0.071 A 
BRANCH   9  11
HETATM   11  C   UNL     1      42.978 -15.968   3.517  1.00  0.00    -0.006 A 
HETATM   12  C   UNL     1      42.646 -16.695   2.365  1.00  0.00     0.014 A 
HETATM   13  C   UNL     1      42.961 -18.056   2.266  1.00  0.00     0.008 A 
HETATM   14  C   UNL     1      43.609 -18.716   3.315  1.00  0.00    -0.059 A 
HETATM   15  C   UNL     1      43.947 -17.992   4.464  1.00  0.00     0.008 A 
HETATM   16  C   UNL     1      43.630 -16.635   4.564  1.00  0.00     0.014 A 
BRANCH  14  17
HETATM   17  C   UNL     1      43.960 -20.177   3.202  1.00  0.00     0.034 C 
HETATM   18  C   UNL     1      44.026 -20.851   4.565  1.00  0.00     0.010 C 
ENDBRANCH  14  17
ENDBRANCH   9  11
ENDBRANCH   1   5
BRANCH   2  19
HETATM   19  N   UNL     1      41.704 -10.211   7.259  1.00  0.00    -0.183 NA
HETATM   20  C   UNL     1      42.753  -9.609   7.723  1.00  0.00     0.153 C 
BRANCH  20  21
HETATM   21  C   UNL     1      42.605  -8.521   8.677  1.00  0.00     0.018 A 
HETATM   22  C   UNL     1      42.774  -8.629  10.100  1.00  0.00     0.004 A 
HETATM   23  C   UNL     1      42.564  -7.363  10.644  1.00  0.00     0.043 A 
HETATM   24  C   UNL     1      43.089  -9.689  10.977  1.00  0.00     0.014 A 
HETATM   25  C   UNL     1      42.659  -7.100  12.017  1.00  0.00     0.030 A 
HETATM   26  N   UNL     1      42.269  -6.520   9.602  1.00  0.00    -0.358 N 
HETATM   27  C   UNL     1      42.974  -8.167  12.861  1.00  0.00     0.002 A 
HETATM   28  C   UNL     1      43.185  -9.445  12.353  1.00  0.00     0.001 A 
HETATM   29  H   UNL     1      42.069  -5.534   9.709  1.00  0.00     0.166 HD
HETATM   30  C   UNL     1      42.287  -7.196   8.407  1.00  0.00     0.018 A 
HETATM   31  C   UNL     1      41.997  -6.495   7.127  1.00  0.00     0.069 C 
ENDBRANCH  20  21
ENDBRANCH   2  19
TORSDOF 5
ENDMDL
MODEL 6
REMARK VINA RESULT:      -8.3     18.671     20.544
REMARK  5 active torsions:
REMARK  status: ('A' for Active; 'I' for Inactive)
REMARK    1  A    between atoms: C_2  and  C_3 
REMARK    2  A    between atoms: C_6  and  C_7 
REMARK    3  A    between atoms: C_11  and  C_12 
REMARK       I    between atoms: C_12  and  N_13 
REMARK    4  A    between atoms: N_13  and  N_14 
REMARK    5  A    between atoms: C_15  and  C_16 
ROOT
HETATM    1  C   UNL     1      42.171 -30.554   3.211  1.00  0.00     0.289 C 
HETATM    2  N   UNL     1      43.525 -30.829   3.357  1.00  0.00    -0.242 N 
HETATM    3  O   UNL     1      41.683 -29.890   2.302  1.00  0.00    -0.264 OA
HETATM    4  H   UNL     1      43.800 -31.546   4.018  1.00  0.00     0.192 HD
ENDROOT
BRANCH   1   5
HETATM    5  C   UNL     1      41.331 -31.131   4.233  1.00  0.00     0.121 A 
HETATM    6  N   UNL     1      41.639 -31.004   5.558  1.00  0.00    -0.272 N 
HETATM    7  N   UNL     1      40.784 -31.618   6.385  1.00  0.00    -0.174 NA
HETATM    8  H   UNL     1      42.436 -30.511   5.952  1.00  0.00     0.189 HD
HETATM    9  C   UNL     1      39.859 -32.162   5.579  1.00  0.00     0.089 A 
HETATM   10  C   UNL     1      40.170 -31.879   4.217  1.00  0.00     0.071 A 
BRANCH   9  11
HETATM   11  C   UNL     1      38.732 -32.934   6.111  1.00  0.00    -0.006 A 
HETATM   12  C   UNL     1      38.695 -33.334   7.454  1.00  0.00     0.014 A 
HETATM   13  C   UNL     1      37.610 -34.067   7.950  1.00  0.00     0.008 A 
HETATM   14  C   UNL     1      36.545 -34.418   7.114  1.00  0.00    -0.059 A 
HETATM   15  C   UNL     1      36.575 -34.016   5.774  1.00  0.00     0.008 A 
HETATM   16  C   UNL     1      37.660 -33.287   5.278  1.00  0.00     0.014 A 
BRANCH  14  17
HETATM   17  C   UNL     1      35.371 -35.195   7.651  1.00  0.00     0.034 C 
HETATM   18  C   UNL     1      35.075 -34.844   9.102  1.00  0.00     0.010 C 
ENDBRANCH  14  17
ENDBRANCH   9  11
ENDBRANCH   1   5
BRANCH   2  19
HETATM   19  N   UNL     1      44.544 -30.456   2.515  1.00  0.00    -0.183 NA
HETATM   20  C   UNL     1      45.063 -29.274   2.624  1.00  0.00     0.153 C 
BRANCH  20  21
HETATM   21  C   UNL     1      46.130 -28.863   1.724  1.00  0.00     0.018 A 
HETATM   22  C   UNL     1      45.984 -28.601   0.319  1.00  0.00     0.004 A 
HETATM   23  C   UNL     1      47.232 -28.218  -0.168  1.00  0.00     0.043 A 
HETATM   24  C   UNL     1      44.901 -28.653  -0.586  1.00  0.00     0.014 A 
HETATM   25  C   UNL     1      47.454 -27.877  -1.508  1.00  0.00     0.030 A 
HETATM   26  N   UNL     1      48.106 -28.253   0.890  1.00  0.00    -0.358 N 
HETATM   27  C   UNL     1      46.365 -27.935  -2.381  1.00  0.00     0.002 A 
HETATM   28  C   UNL     1      45.106 -28.319  -1.930  1.00  0.00     0.001 A 
HETATM   29  H   UNL     1      49.088 -28.022   0.822  1.00  0.00     0.166 HD
HETATM   30  C   UNL     1      47.465 -28.641   2.040  1.00  0.00     0.018 A 
HETATM   31  C   UNL     1      48.203 -28.755   3.327  1.00  0.00     0.069 C 
ENDBRANCH  20  21
ENDBRANCH   2  19
TORSDOF 5
ENDMDL
MODEL 7
REMARK VINA RESULT:      -8.2      3.027     10.955
REMARK  5 active torsions:
REMARK  status: ('A' for Active; 'I' for Inactive)
REMARK    1  A    between atoms: C_2  and  C_3 
REMARK    2  A    between atoms: C_6  and  C_7 
REMARK    3  A    between atoms: C_11  and  C_12 
REMARK       I    between atoms: C_12  and  N_13 
REMARK    4  A    between atoms: N_13  and  N_14 
REMARK    5  A    between atoms: C_15  and  C_16 
ROOT
HETATM    1  C   UNL     1      39.667 -11.071   6.701  1.00  0.00     0.289 C 
HETATM    2  N   UNL     1      40.717 -10.481   7.393  1.00  0.00    -0.242 N 
HETATM    3  O   UNL     1      38.490 -10.732   6.788  1.00  0.00    -0.264 OA
HETATM    4  H   UNL     1      41.664 -10.695   7.103  1.00  0.00     0.192 HD
ENDROOT
BRANCH   1   5
HETATM    5  C   UNL     1      40.059 -12.148   5.825  1.00  0.00     0.121 A 
HETATM    6  N   UNL     1      39.387 -12.394   4.661  1.00  0.00    -0.272 N 
HETATM    7  N   UNL     1      39.847 -13.444   3.969  1.00  0.00    -0.174 NA
HETATM    8  H   UNL     1      38.593 -11.874   4.295  1.00  0.00     0.189 HD
HETATM    9  C   UNL     1      40.878 -13.906   4.694  1.00  0.00     0.089 A 
HETATM   10  C   UNL     1      41.042 -13.117   5.870  1.00  0.00     0.071 A 
BRANCH   9  11
HETATM   11  C   UNL     1      41.659 -15.071   4.267  1.00  0.00    -0.006 A 
HETATM   12  C   UNL     1      42.828 -15.448   4.941  1.00  0.00     0.014 A 
HETATM   13  C   UNL     1      43.562 -16.566   4.526  1.00  0.00     0.008 A 
HETATM   14  C   UNL     1      43.144 -17.325   3.428  1.00  0.00    -0.059 A 
HETATM   15  C   UNL     1      41.974 -16.955   2.755  1.00  0.00     0.008 A 
HETATM   16  C   UNL     1      41.243 -15.838   3.169  1.00  0.00     0.014 A 
BRANCH  14  17
HETATM   17  C   UNL     1      43.927 -18.536   2.989  1.00  0.00     0.034 C 
HETATM   18  C   UNL     1      43.097 -19.457   2.105  1.00  0.00     0.010 C 
ENDBRANCH  14  17
ENDBRANCH   9  11
ENDBRANCH   1   5
BRANCH   2  19
HETATM   19  N   UNL     1      40.650  -9.411   8.252  1.00  0.00    -0.183 NA
HETATM   20  C   UNL     1      41.744  -8.840   8.648  1.00  0.00     0.153 C 
BRANCH  20  21
HETATM   21  C   UNL     1      41.686  -7.718   9.572  1.00  0.00     0.018 A 
HETATM   22  C   UNL     1      42.162  -7.726  10.928  1.00  0.00     0.004 A 
HETATM   23  C   UNL     1      41.938  -6.458  11.459  1.00  0.00     0.043 A 
HETATM   24  C   UNL     1      42.767  -8.699  11.754  1.00  0.00     0.014 A 
HETATM   25  C   UNL     1      42.292  -6.108  12.768  1.00  0.00     0.030 A 
HETATM   26  N   UNL     1      41.341  -5.709  10.476  1.00  0.00    -0.358 N 
HETATM   27  C   UNL     1      42.891  -7.088  13.562  1.00  0.00     0.002 A 
HETATM   28  C   UNL     1      43.125  -8.367  13.066  1.00  0.00     0.001 A 
HETATM   29  H   UNL     1      41.064  -4.743  10.588  1.00  0.00     0.166 HD
HETATM   30  C   UNL     1      41.178  -6.448   9.330  1.00  0.00     0.018 A 
HETATM   31  C   UNL     1      40.551  -5.854   8.119  1.00  0.00     0.069 C 
ENDBRANCH  20  21
ENDBRANCH   2  19
TORSDOF 5
ENDMDL
MODEL 8
REMARK VINA RESULT:      -8.0      7.353     11.081
REMARK  5 active torsions:
REMARK  status: ('A' for Active; 'I' for Inactive)
REMARK    1  A    between atoms: C_2  and  C_3 
REMARK    2  A    between atoms: C_6  and  C_7 
REMARK    3  A    between atoms: C_11  and  C_12 
REMARK       I    between atoms: C_12  and  N_13 
REMARK    4  A    between atoms: N_13  and  N_14 
REMARK    5  A    between atoms: C_15  and  C_16 
ROOT
HETATM    1  C   UNL     1      41.791 -11.559   1.993  1.00  0.00     0.289 C 
HETATM    2  N   UNL     1      41.454 -11.698   0.653  1.00  0.00    -0.242 N 
HETATM    3  O   UNL     1      41.753 -10.505   2.621  1.00  0.00    -0.264 OA
HETATM    4  H   UNL     1      41.325 -12.633   0.285  1.00  0.00     0.192 HD
ENDROOT
BRANCH   1   5
HETATM    5  C   UNL     1      42.199 -12.785   2.637  1.00  0.00     0.121 A 
HETATM    6  N   UNL     1      42.585 -12.801   3.948  1.00  0.00    -0.272 N 
HETATM    7  N   UNL     1      42.965 -14.005   4.396  1.00  0.00    -0.174 NA
HETATM    8  H   UNL     1      42.617 -12.008   4.582  1.00  0.00     0.189 HD
HETATM    9  C   UNL     1      42.809 -14.825   3.345  1.00  0.00     0.089 A 
HETATM   10  C   UNL     1      42.330 -14.094   2.220  1.00  0.00     0.071 A 
BRANCH   9  11
HETATM   11  C   UNL     1      43.126 -16.255   3.431  1.00  0.00    -0.006 A 
HETATM   12  C   UNL     1      43.703 -16.802   4.585  1.00  0.00     0.014 A 
HETATM   13  C   UNL     1      43.996 -18.170   4.656  1.00  0.00     0.008 A 
HETATM   14  C   UNL     1      43.722 -19.014   3.575  1.00  0.00    -0.059 A 
HETATM   15  C   UNL     1      43.141 -18.472   2.423  1.00  0.00     0.008 A 
HETATM   16  C   UNL     1      42.851 -17.107   2.352  1.00  0.00     0.014 A 
BRANCH  14  17
HETATM   17  C   UNL     1      44.025 -20.488   3.656  1.00  0.00     0.034 C 
HETATM   18  C   UNL     1      43.958 -21.002   5.087  1.00  0.00     0.010 C 
ENDBRANCH  14  17
ENDBRANCH   9  11
ENDBRANCH   1   5
BRANCH   2  19
HETATM   19  N   UNL     1      40.986 -10.722  -0.193  1.00  0.00    -0.183 NA
HETATM   20  C   UNL     1      41.516 -10.587  -1.367  1.00  0.00     0.153 C 
BRANCH  20  21
HETATM   21  C   UNL     1      41.041  -9.543  -2.264  1.00  0.00     0.018 A 
HETATM   22  C   UNL     1      41.721  -8.309  -2.543  1.00  0.00     0.004 A 
HETATM   23  C   UNL     1      40.947  -7.602  -3.460  1.00  0.00     0.043 A 
HETATM   24  C   UNL     1      42.929  -7.727  -2.099  1.00  0.00     0.014 A 
HETATM   25  C   UNL     1      41.318  -6.349  -3.963  1.00  0.00     0.030 A 
HETATM   26  N   UNL     1      39.837  -8.365  -3.724  1.00  0.00    -0.358 N 
HETATM   27  C   UNL     1      42.518  -5.797  -3.510  1.00  0.00     0.002 A 
HETATM   28  C   UNL     1      43.314  -6.473  -2.590  1.00  0.00     0.001 A 
HETATM   29  H   UNL     1      39.098  -8.092  -4.359  1.00  0.00     0.166 HD
HETATM   30  C   UNL     1      39.871  -9.539  -3.013  1.00  0.00     0.018 A 
HETATM   31  C   UNL     1      38.775 -10.537  -3.129  1.00  0.00     0.069 C 
ENDBRANCH  20  21
ENDBRANCH   2  19
TORSDOF 5
ENDMDL
MODEL 9
REMARK VINA RESULT:      -7.8      2.096      2.549
REMARK  5 active torsions:
REMARK  status: ('A' for Active; 'I' for Inactive)
REMARK    1  A    between atoms: C_2  and  C_3 
REMARK    2  A    between atoms: C_6  and  C_7 
REMARK    3  A    between atoms: C_11  and  C_12 
REMARK       I    between atoms: C_12  and  N_13 
REMARK    4  A    between atoms: N_13  and  N_14 
REMARK    5  A    between atoms: C_15  and  C_16 
ROOT
HETATM    1  C   UNL     1      43.686 -12.199   6.789  1.00  0.00     0.289 C 
HETATM    2  N   UNL     1      42.681 -13.157   6.814  1.00  0.00    -0.242 N 
HETATM    3  O   UNL     1      44.603 -12.164   5.974  1.00  0.00    -0.264 OA
HETATM    4  H   UNL     1      41.867 -12.984   7.393  1.00  0.00     0.192 HD
ENDROOT
BRANCH   1   5
HETATM    5  C   UNL     1      43.579 -11.193   7.818  1.00  0.00     0.121 A 
HETATM    6  N   UNL     1      43.832 -11.491   9.128  1.00  0.00    -0.272 N 
HETATM    7  N   UNL     1      43.660 -10.464   9.970  1.00  0.00    -0.174 NA
HETATM    8  H   UNL     1      44.118 -12.391   9.503  1.00  0.00     0.189 HD
HETATM    9  C   UNL     1      43.294  -9.437   9.187  1.00  0.00     0.089 A 
HETATM   10  C   UNL     1      43.231  -9.857   7.827  1.00  0.00     0.071 A 
BRANCH   9  11
HETATM   11  C   UNL     1      43.007  -8.110   9.742  1.00  0.00    -0.006 A 
HETATM   12  C   UNL     1      42.609  -7.952  11.076  1.00  0.00     0.014 A 
HETATM   13  C   UNL     1      42.342  -6.679  11.594  1.00  0.00     0.008 A 
HETATM   14  C   UNL     1      42.465  -5.541  10.789  1.00  0.00    -0.059 A 
HETATM   15  C   UNL     1      42.868  -5.695   9.458  1.00  0.00     0.008 A 
HETATM   16  C   UNL     1      43.131  -6.966   8.941  1.00  0.00     0.014 A 
BRANCH  14  17
HETATM   17  C   UNL     1      42.192  -4.169  11.351  1.00  0.00     0.034 C 
HETATM   18  C   UNL     1      43.229  -3.153  10.896  1.00  0.00     0.010 C 
ENDBRANCH  14  17
ENDBRANCH   9  11
ENDBRANCH   1   5
BRANCH   2  19
HETATM   19  N   UNL     1      42.500 -14.196   5.934  1.00  0.00    -0.183 NA
HETATM   20  C   UNL     1      42.418 -13.951   4.665  1.00  0.00     0.153 C 
BRANCH  20  21
HETATM   21  C   UNL     1      42.207 -15.043   3.725  1.00  0.00     0.018 A 
HETATM   22  C   UNL     1      42.892 -16.305   3.746  1.00  0.00     0.004 A 
HETATM   23  C   UNL     1      42.390 -17.072   2.696  1.00  0.00     0.043 A 
HETATM   24  C   UNL     1      43.895 -16.870   4.564  1.00  0.00     0.014 A 
HETATM   25  C   UNL     1      42.830 -18.373   2.425  1.00  0.00     0.030 A 
HETATM   26  N   UNL     1      41.446 -16.308   2.054  1.00  0.00    -0.358 N 
HETATM   27  C   UNL     1      43.821 -18.908   3.251  1.00  0.00     0.002 A 
HETATM   28  C   UNL     1      44.349 -18.169   4.305  1.00  0.00     0.001 A 
HETATM   29  H   UNL     1      40.919 -16.616   1.249  1.00  0.00     0.166 HD
HETATM   30  C   UNL     1      41.320 -15.080   2.657  1.00  0.00     0.018 A 
HETATM   31  C   UNL     1      40.357 -14.071   2.142  1.00  0.00     0.069 C 
ENDBRANCH  20  21
ENDBRANCH   2  19
TORSDOF 5
ENDMDL
MODEL 10
REMARK VINA RESULT:      -7.5      4.212     11.150
REMARK  5 active torsions:
REMARK  status: ('A' for Active; 'I' for Inactive)
REMARK    1  A    between atoms: C_2  and  C_3 
REMARK    2  A    between atoms: C_6  and  C_7 
REMARK    3  A    between atoms: C_11  and  C_12 
REMARK       I    between atoms: C_12  and  N_13 
REMARK    4  A    between atoms: N_13  and  N_14 
REMARK    5  A    between atoms: C_15  and  C_16 
ROOT
HETATM    1  C   UNL     1      41.571 -11.156   6.161  1.00  0.00     0.289 C 
HETATM    2  N   UNL     1      40.648 -10.831   7.147  1.00  0.00    -0.242 N 
HETATM    3  O   UNL     1      42.334 -10.359   5.624  1.00  0.00    -0.264 OA
HETATM    4  H   UNL     1      40.212 -11.586   7.664  1.00  0.00     0.192 HD
ENDROOT
BRANCH   1   5
HETATM    5  C   UNL     1      41.588 -12.552   5.796  1.00  0.00     0.121 A 
HETATM    6  N   UNL     1      40.766 -13.454   6.409  1.00  0.00    -0.272 N 
HETATM    7  N   UNL     1      40.918 -14.716   5.986  1.00  0.00    -0.174 NA
HETATM    8  H   UNL     1      40.084 -13.259   7.137  1.00  0.00     0.189 HD
HETATM    9  C   UNL     1      41.868 -14.647   5.041  1.00  0.00     0.089 A 
HETATM   10  C   UNL     1      42.316 -13.302   4.893  1.00  0.00     0.071 A 
BRANCH   9  11
HETATM   11  C   UNL     1      42.328 -15.840   4.323  1.00  0.00    -0.006 A 
HETATM   12  C   UNL     1      43.247 -16.727   4.902  1.00  0.00     0.014 A 
HETATM   13  C   UNL     1      43.674 -17.865   4.208  1.00  0.00     0.008 A 
HETATM   14  C   UNL     1      43.195 -18.137   2.922  1.00  0.00    -0.059 A 
HETATM   15  C   UNL     1      42.274 -17.258   2.343  1.00  0.00     0.008 A 
HETATM   16  C   UNL     1      41.850 -16.120   3.035  1.00  0.00     0.014 A 
BRANCH  14  17
HETATM   17  C   UNL     1      43.645 -19.370   2.180  1.00  0.00     0.034 C 
HETATM   18  C   UNL     1      43.677 -20.594   3.083  1.00  0.00     0.010 C 
ENDBRANCH  14  17
ENDBRANCH   9  11
ENDBRANCH   1   5
BRANCH   2  19
HETATM   19  N   UNL     1      40.445  -9.600   7.724  1.00  0.00    -0.183 NA
HETATM   20  C   UNL     1      39.490  -9.449   8.586  1.00  0.00     0.153 C 
BRANCH  20  21
HETATM   21  C   UNL     1      39.255  -8.145   9.189  1.00  0.00     0.018 A 
HETATM   22  C   UNL     1      38.737  -6.991   8.507  1.00  0.00     0.004 A 
HETATM   23  C   UNL     1      38.646  -5.959   9.439  1.00  0.00     0.043 A 
HETATM   24  C   UNL     1      38.336  -6.729   7.179  1.00  0.00     0.014 A 
HETATM   25  C   UNL     1      38.169  -4.683   9.117  1.00  0.00     0.030 A 
HETATM   26  N   UNL     1      39.097  -6.457  10.637  1.00  0.00    -0.358 N 
HETATM   27  C   UNL     1      37.775  -4.451   7.797  1.00  0.00     0.002 A 
HETATM   28  C   UNL     1      37.858  -5.457   6.839  1.00  0.00     0.001 A 
HETATM   29  H   UNL     1      39.144  -5.920  11.492  1.00  0.00     0.166 HD
HETATM   30  C   UNL     1      39.471  -7.772  10.509  1.00  0.00     0.018 A 
HETATM   31  C   UNL     1      39.996  -8.534  11.673  1.00  0.00     0.069 C 
ENDBRANCH  20  21
ENDBRANCH   2  19
TORSDOF 5
ENDMDL
