MODEL 1
REMARK VINA RESULT:      -8.2      0.000      0.000
REMARK  3 active torsions:
REMARK  status: ('A' for Active; 'I' for Inactive)
REMARK    1  A    between atoms: C_2  and  N_3 
REMARK       I    between atoms: N_3  and  C_4 
REMARK    2  A    between atoms: C_4  and  C_5 
REMARK    3  A    between atoms: C_5  and  C_6 
ROOT
HETATM    1  C   UNL     1      41.546 -15.836   5.461  1.00  0.00     0.286 C 
HETATM    2  N   UNL     1      42.514 -14.850   4.822  1.00  0.00    -0.056 N 
HETATM    3  H   UNL     1      43.012 -14.390   5.614  1.00  0.00     0.278 HD
HETATM    4  H   UNL     1      43.234 -15.345   4.282  1.00  0.00     0.278 HD
HETATM    5  C   UNL     1      41.806 -13.821   3.977  1.00  0.00     0.209 C 
HETATM    6  C   UNL     1      40.788 -13.051   4.859  1.00  0.00     0.115 C 
HETATM    7  N   UNL     1      39.934 -13.951   5.635  1.00  0.00    -0.353 N 
HETATM    8  C   UNL     1      40.358 -15.147   6.167  1.00  0.00     0.249 C 
HETATM    9  O   UNL     1      39.735 -15.669   7.083  1.00  0.00    -0.271 OA
HETATM   10  C   UNL     1      42.840 -12.907   3.320  1.00  0.00     0.035 C 
HETATM   11  C   UNL     1      43.488 -11.929   4.295  1.00  0.00     0.002 C 
HETATM   12  C   UNL     1      42.439 -11.132   5.062  1.00  0.00     0.002 C 
HETATM   13  C   UNL     1      41.470 -12.047   5.801  1.00  0.00     0.027 C 
HETATM   14  H   UNL     1      39.140 -13.550   6.128  1.00  0.00     0.163 HD
ENDROOT
BRANCH   1  15
HETATM   15  C   UNL     1      42.269 -16.813   6.399  1.00  0.00     0.146 C 
BRANCH  15  16
HETATM   16  C   UNL     1      43.764 -16.691   6.261  1.00  0.00     0.224 C 
HETATM   17  N   UNL     1      44.487 -17.453   5.400  1.00  0.00    -0.327 N 
HETATM   18  H   UNL     1      45.485 -17.300   5.522  1.00  0.00     0.169 HD
HETATM   19  O   UNL     1      44.349 -15.831   6.937  1.00  0.00    -0.273 OA
BRANCH  17  20
HETATM   20  C   UNL     1      44.153 -18.399   4.411  1.00  0.00     0.034 A 
HETATM   21  C   UNL     1      44.216 -19.787   4.559  1.00  0.00     0.032 A 
HETATM   22  C   UNL     1      43.852 -20.631   3.502  1.00  0.00     0.044 A 
HETATM   23  C   UNL     1      43.411 -20.091   2.302  1.00  0.00     0.116 A 
HETATM   24  C   UNL     1      43.320 -18.719   2.138  1.00  0.00     0.044 A 
HETATM   25  F   UNL     1      43.063 -20.904   1.298  1.00  0.00    -0.206 F 
HETATM   26  C   UNL     1      43.686 -17.877   3.193  1.00  0.00     0.032 A 
ENDBRANCH  17  20
ENDBRANCH  15  16
ENDBRANCH   1  15
TORSDOF 3
ENDMDL
MODEL 2
REMARK VINA RESULT:      -7.9      3.908      4.950
REMARK  3 active torsions:
REMARK  status: ('A' for Active; 'I' for Inactive)
REMARK    1  A    between atoms: C_2  and  N_3 
REMARK       I    between atoms: N_3  and  C_4 
REMARK    2  A    between atoms: C_4  and  C_5 
REMARK    3  A    between atoms: C_5  and  C_6 
ROOT
HETATM    1  C   UNL     1      41.615 -13.228   1.741  1.00  0.00     0.286 C 
HETATM    2  N   UNL     1      41.139 -13.995   0.515  1.00  0.00    -0.056 N 
HETATM    3  H   UNL     1      41.940 -13.986  -0.152  1.00  0.00     0.278 HD
HETATM    4  H   UNL     1      40.972 -14.982   0.746  1.00  0.00     0.278 HD
HETATM    5  C   UNL     1      39.922 -13.366  -0.116  1.00  0.00     0.209 C 
HETATM    6  C   UNL     1      40.254 -11.905  -0.516  1.00  0.00     0.115 C 
HETATM    7  N   UNL     1      40.876 -11.158   0.579  1.00  0.00    -0.353 N 
HETATM    8  C   UNL     1      41.744 -11.709   1.492  1.00  0.00     0.249 C 
HETATM    9  O   UNL     1      42.495 -10.991   2.140  1.00  0.00    -0.271 OA
HETATM   10  C   UNL     1      39.466 -14.222  -1.298  1.00  0.00     0.035 C 
HETATM   11  C   UNL     1      40.382 -14.109  -2.513  1.00  0.00     0.002 C 
HETATM   12  C   UNL     1      40.591 -12.655  -2.919  1.00  0.00     0.002 C 
HETATM   13  C   UNL     1      41.144 -11.826  -1.765  1.00  0.00     0.027 C 
HETATM   14  H   UNL     1      40.994 -10.153   0.465  1.00  0.00     0.163 HD
ENDROOT
BRANCH   1  15
HETATM   15  C   UNL     1      42.912 -13.818   2.311  1.00  0.00     0.146 C 
BRANCH  15  16
HETATM   16  C   UNL     1      42.778 -14.100   3.785  1.00  0.00     0.224 C 
HETATM   17  N   UNL     1      42.828 -15.355   4.300  1.00  0.00    -0.327 N 
HETATM   18  H   UNL     1      42.618 -15.353   5.296  1.00  0.00     0.169 HD
HETATM   19  O   UNL     1      42.656 -13.138   4.558  1.00  0.00    -0.273 OA
BRANCH  17  20
HETATM   20  C   UNL     1      43.087 -16.628   3.756  1.00  0.00     0.034 A 
HETATM   21  C   UNL     1      42.531 -17.139   2.581  1.00  0.00     0.032 A 
HETATM   22  C   UNL     1      42.869 -18.423   2.134  1.00  0.00     0.044 A 
HETATM   23  C   UNL     1      43.772 -19.193   2.853  1.00  0.00     0.116 A 
HETATM   24  C   UNL     1      44.352 -18.701   4.010  1.00  0.00     0.044 A 
HETATM   25  F   UNL     1      44.091 -20.417   2.418  1.00  0.00    -0.206 F 
HETATM   26  C   UNL     1      44.013 -17.420   4.456  1.00  0.00     0.032 A 
ENDBRANCH  17  20
ENDBRANCH  15  16
ENDBRANCH   1  15
TORSDOF 3
ENDMDL
MODEL 3
REMARK VINA RESULT:      -7.9      2.176      2.807
REMARK  3 active torsions:
REMARK  status: ('A' for Active; 'I' for Inactive)
REMARK    1  A    between atoms: C_2  and  N_3 
REMARK       I    between atoms: N_3  and  C_4 
REMARK    2  A    between atoms: C_4  and  C_5 
REMARK    3  A    between atoms: C_5  and  C_6 
ROOT
HETATM    1  C   UNL     1      40.537 -14.521   4.063  1.00  0.00     0.286 C 
HETATM    2  N   UNL     1      41.484 -13.423   3.598  1.00  0.00    -0.056 N 
HETATM    3  H   UNL     1      42.425 -13.868   3.539  1.00  0.00     0.278 HD
HETATM    4  H   UNL     1      41.251 -13.121   2.645  1.00  0.00     0.278 HD
HETATM    5  C   UNL     1      41.515 -12.254   4.552  1.00  0.00     0.209 C 
HETATM    6  C   UNL     1      41.948 -12.753   5.955  1.00  0.00     0.115 C 
HETATM    7  N   UNL     1      41.183 -13.924   6.388  1.00  0.00    -0.353 N 
HETATM    8  C   UNL     1      40.747 -14.916   5.541  1.00  0.00     0.249 C 
HETATM    9  O   UNL     1      40.441 -16.016   5.985  1.00  0.00    -0.271 OA
HETATM   10  C   UNL     1      42.434 -11.169   3.992  1.00  0.00     0.035 C 
HETATM   11  C   UNL     1      43.915 -11.523   4.088  1.00  0.00     0.002 C 
HETATM   12  C   UNL     1      44.302 -11.910   5.511  1.00  0.00     0.002 C 
HETATM   13  C   UNL     1      43.450 -13.064   6.029  1.00  0.00     0.027 C 
HETATM   14  H   UNL     1      41.288 -14.234   7.352  1.00  0.00     0.163 HD
ENDROOT
BRANCH   1  15
HETATM   15  C   UNL     1      40.594 -15.746   3.139  1.00  0.00     0.146 C 
BRANCH  15  16
HETATM   16  C   UNL     1      41.704 -15.614   2.130  1.00  0.00     0.224 C 
HETATM   17  N   UNL     1      42.860 -16.320   2.212  1.00  0.00    -0.327 N 
HETATM   18  H   UNL     1      43.526 -16.022   1.503  1.00  0.00     0.169 HD
HETATM   19  O   UNL     1      41.533 -14.855   1.164  1.00  0.00    -0.273 OA
BRANCH  17  20
HETATM   20  C   UNL     1      43.326 -17.341   3.064  1.00  0.00     0.034 A 
HETATM   21  C   UNL     1      43.686 -17.182   4.405  1.00  0.00     0.032 A 
HETATM   22  C   UNL     1      44.132 -18.276   5.157  1.00  0.00     0.044 A 
HETATM   23  C   UNL     1      44.207 -19.533   4.574  1.00  0.00     0.116 A 
HETATM   24  C   UNL     1      43.837 -19.721   3.253  1.00  0.00     0.044 A 
HETATM   25  F   UNL     1      44.632 -20.574   5.300  1.00  0.00    -0.206 F 
HETATM   26  C   UNL     1      43.394 -18.628   2.503  1.00  0.00     0.032 A 
ENDBRANCH  17  20
ENDBRANCH  15  16
ENDBRANCH   1  15
TORSDOF 3
ENDMDL
MODEL 4
REMARK VINA RESULT:      -7.7     13.945     16.256
REMARK  3 active torsions:
REMARK  status: ('A' for Active; 'I' for Inactive)
REMARK    1  A    between atoms: C_2  and  N_3 
REMARK       I    between atoms: N_3  and  C_4 
REMARK    2  A    between atoms: C_4  and  C_5 
REMARK    3  A    between atoms: C_5  and  C_6 
ROOT
HETATM    1  C   UNL     1      48.566 -29.932   0.189  1.00  0.00     0.286 C 
HETATM    2  N   UNL     1      48.236 -30.061   1.671  1.00  0.00    -0.056 N 
HETATM    3  H   UNL     1      48.685 -29.242   2.132  1.00  0.00     0.278 HD
HETATM    4  H   UNL     1      47.227 -29.960   1.829  1.00  0.00     0.278 HD
HETATM    5  C   UNL     1      48.758 -31.348   2.261  1.00  0.00     0.209 C 
HETATM    6  C   UNL     1      50.295 -31.412   2.064  1.00  0.00     0.115 C 
HETATM    7  N   UNL     1      50.690 -31.126   0.684  1.00  0.00    -0.353 N 
HETATM    8  C   UNL     1      50.049 -30.219  -0.128  1.00  0.00     0.249 C 
HETATM    9  O   UNL     1      50.619 -29.763  -1.112  1.00  0.00    -0.271 OA
HETATM   10  C   UNL     1      48.338 -31.437   3.728  1.00  0.00     0.035 C 
HETATM   11  C   UNL     1      49.115 -30.489   4.637  1.00  0.00     0.002 C 
HETATM   12  C   UNL     1      50.620 -30.668   4.471  1.00  0.00     0.002 C 
HETATM   13  C   UNL     1      51.048 -30.476   3.021  1.00  0.00     0.027 C 
HETATM   14  H   UNL     1      51.659 -31.289   0.420  1.00  0.00     0.163 HD
ENDROOT
BRANCH   1  15
HETATM   15  C   UNL     1      48.121 -28.575  -0.374  1.00  0.00     0.146 C 
BRANCH  15  16
HETATM   16  C   UNL     1      46.866 -28.091   0.305  1.00  0.00     0.224 C 
HETATM   17  N   UNL     1      45.648 -28.124  -0.293  1.00  0.00    -0.327 N 
HETATM   18  H   UNL     1      44.944 -27.663   0.279  1.00  0.00     0.169 HD
HETATM   19  O   UNL     1      46.950 -27.682   1.473  1.00  0.00    -0.273 OA
BRANCH  17  20
HETATM   20  C   UNL     1      45.170 -28.634  -1.516  1.00  0.00     0.034 A 
HETATM   21  C   UNL     1      44.406 -29.793  -1.672  1.00  0.00     0.032 A 
HETATM   22  C   UNL     1      43.982 -30.199  -2.944  1.00  0.00     0.044 A 
HETATM   23  C   UNL     1      44.308 -29.441  -4.060  1.00  0.00     0.116 A 
HETATM   24  C   UNL     1      45.048 -28.277  -3.929  1.00  0.00     0.044 A 
HETATM   25  F   UNL     1      43.897 -29.835  -5.271  1.00  0.00    -0.206 F 
HETATM   26  C   UNL     1      45.472 -27.874  -2.660  1.00  0.00     0.032 A 
ENDBRANCH  17  20
ENDBRANCH  15  16
ENDBRANCH   1  15
TORSDOF 3
ENDMDL
MODEL 5
REMARK VINA RESULT:      -7.6      1.934      2.488
REMARK  3 active torsions:
REMARK  status: ('A' for Active; 'I' for Inactive)
REMARK    1  A    between atoms: C_2  and  N_3 
REMARK       I    between atoms: N_3  and  C_4 
REMARK    2  A    between atoms: C_4  and  C_5 
REMARK    3  A    between atoms: C_5  and  C_6 
ROOT
HETATM    1  C   UNL     1      40.474 -15.224   4.767  1.00  0.00     0.286 C 
HETATM    2  N   UNL     1      40.870 -15.103   3.301  1.00  0.00    -0.056 N 
HETATM    3  H   UNL     1      41.740 -14.529   3.291  1.00  0.00     0.278 HD
HETATM    4  H   UNL     1      41.130 -16.020   2.918  1.00  0.00     0.278 HD
HETATM    5  C   UNL     1      39.795 -14.446   2.471  1.00  0.00     0.209 C 
HETATM    6  C   UNL     1      39.499 -13.037   3.046  1.00  0.00     0.115 C 
HETATM    7  N   UNL     1      39.276 -13.063   4.493  1.00  0.00    -0.353 N 
HETATM    8  C   UNL     1      39.935 -13.904   5.358  1.00  0.00     0.249 C 
HETATM    9  O   UNL     1      39.980 -13.644   6.555  1.00  0.00    -0.271 OA
HETATM   10  C   UNL     1      40.235 -14.416   1.008  1.00  0.00     0.035 C 
HETATM   11  C   UNL     1      41.333 -13.395   0.728  1.00  0.00     0.002 C 
HETATM   12  C   UNL     1      40.943 -12.008   1.227  1.00  0.00     0.002 C 
HETATM   13  C   UNL     1      40.604 -12.023   2.714  1.00  0.00     0.027 C 
HETATM   14  H   UNL     1      38.928 -12.216   4.938  1.00  0.00     0.163 HD
ENDROOT
BRANCH   1  15
HETATM   15  C   UNL     1      41.615 -15.799   5.617  1.00  0.00     0.146 C 
BRANCH  15  16
HETATM   16  C   UNL     1      42.955 -15.323   5.119  1.00  0.00     0.224 C 
HETATM   17  N   UNL     1      43.851 -16.147   4.518  1.00  0.00    -0.327 N 
HETATM   18  H   UNL     1      44.733 -15.670   4.345  1.00  0.00     0.169 HD
HETATM   19  O   UNL     1      43.230 -14.119   5.232  1.00  0.00    -0.273 OA
BRANCH  17  20
HETATM   20  C   UNL     1      43.822 -17.495   4.110  1.00  0.00     0.034 A 
HETATM   21  C   UNL     1      43.518 -17.950   2.825  1.00  0.00     0.032 A 
HETATM   22  C   UNL     1      43.527 -19.321   2.535  1.00  0.00     0.044 A 
HETATM   23  C   UNL     1      43.851 -20.237   3.525  1.00  0.00     0.116 A 
HETATM   24  C   UNL     1      44.176 -19.810   4.802  1.00  0.00     0.044 A 
HETATM   25  F   UNL     1      43.860 -21.545   3.240  1.00  0.00    -0.206 F 
HETATM   26  C   UNL     1      44.165 -18.443   5.091  1.00  0.00     0.032 A 
ENDBRANCH  17  20
ENDBRANCH  15  16
ENDBRANCH   1  15
TORSDOF 3
ENDMDL
MODEL 6
REMARK VINA RESULT:      -7.5      3.122      6.795
REMARK  3 active torsions:
REMARK  status: ('A' for Active; 'I' for Inactive)
REMARK    1  A    between atoms: C_2  and  N_3 
REMARK       I    between atoms: N_3  and  C_4 
REMARK    2  A    between atoms: C_4  and  C_5 
REMARK    3  A    between atoms: C_5  and  C_6 
ROOT
HETATM    1  C   UNL     1      42.245 -16.550   3.284  1.00  0.00     0.286 C 
HETATM    2  N   UNL     1      42.473 -17.993   2.853  1.00  0.00    -0.056 N 
HETATM    3  H   UNL     1      41.903 -18.575   3.502  1.00  0.00     0.278 HD
HETATM    4  H   UNL     1      42.091 -18.157   1.913  1.00  0.00     0.278 HD
HETATM    5  C   UNL     1      43.927 -18.389   2.930  1.00  0.00     0.209 C 
HETATM    6  C   UNL     1      44.429 -18.197   4.385  1.00  0.00     0.115 C 
HETATM    7  N   UNL     1      44.087 -16.878   4.921  1.00  0.00    -0.353 N 
HETATM    8  C   UNL     1      42.924 -16.206   4.627  1.00  0.00     0.249 C 
HETATM    9  O   UNL     1      42.531 -15.306   5.359  1.00  0.00    -0.271 OA
HETATM   10  C   UNL     1      44.088 -19.823   2.426  1.00  0.00     0.035 C 
HETATM   11  C   UNL     1      43.560 -20.869   3.402  1.00  0.00     0.002 C 
HETATM   12  C   UNL     1      44.164 -20.690   4.790  1.00  0.00     0.002 C 
HETATM   13  C   UNL     1      43.912 -19.288   5.333  1.00  0.00     0.027 C 
HETATM   14  H   UNL     1      44.500 -16.601   5.809  1.00  0.00     0.163 HD
ENDROOT
BRANCH   1  15
HETATM   15  C   UNL     1      40.752 -16.193   3.299  1.00  0.00     0.146 C 
BRANCH  15  16
HETATM   16  C   UNL     1      40.395 -15.304   2.136  1.00  0.00     0.224 C 
HETATM   17  N   UNL     1      40.674 -13.976   2.115  1.00  0.00    -0.327 N 
HETATM   18  H   UNL     1      40.268 -13.527   1.296  1.00  0.00     0.169 HD
HETATM   19  O   UNL     1      39.859 -15.821   1.145  1.00  0.00    -0.273 OA
BRANCH  17  20
HETATM   20  C   UNL     1      41.374 -13.107   2.975  1.00  0.00     0.034 A 
HETATM   21  C   UNL     1      40.844 -12.477   4.103  1.00  0.00     0.032 A 
HETATM   22  C   UNL     1      41.643 -11.636   4.889  1.00  0.00     0.044 A 
HETATM   23  C   UNL     1      42.974 -11.433   4.556  1.00  0.00     0.116 A 
HETATM   24  C   UNL     1      43.528 -12.062   3.453  1.00  0.00     0.044 A 
HETATM   25  F   UNL     1      43.731 -10.629   5.312  1.00  0.00    -0.206 F 
HETATM   26  C   UNL     1      42.731 -12.900   2.669  1.00  0.00     0.032 A 
ENDBRANCH  17  20
ENDBRANCH  15  16
ENDBRANCH   1  15
TORSDOF 3
ENDMDL
MODEL 7
REMARK VINA RESULT:      -7.4      4.365      5.730
REMARK  3 active torsions:
REMARK  status: ('A' for Active; 'I' for Inactive)
REMARK    1  A    between atoms: C_2  and  N_3 
REMARK       I    between atoms: N_3  and  C_4 
REMARK    2  A    between atoms: C_4  and  C_5 
REMARK    3  A    between atoms: C_5  and  C_6 
ROOT
HETATM    1  C   UNL     1      41.889 -13.641   1.826  1.00  0.00     0.286 C 
HETATM    2  N   UNL     1      41.344 -14.253   0.542  1.00  0.00    -0.056 N 
HETATM    3  H   UNL     1      42.086 -14.108  -0.176  1.00  0.00     0.278 HD
HETATM    4  H   UNL     1      41.238 -15.270   0.641  1.00  0.00     0.278 HD
HETATM    5  C   UNL     1      40.053 -13.608   0.104  1.00  0.00     0.209 C 
HETATM    6  C   UNL     1      40.290 -12.089  -0.106  1.00  0.00     0.115 C 
HETATM    7  N   UNL     1      40.970 -11.471   1.034  1.00  0.00    -0.353 N 
HETATM    8  C   UNL     1      41.934 -12.098   1.788  1.00  0.00     0.249 C 
HETATM    9  O   UNL     1      42.706 -11.438   2.473  1.00  0.00    -0.271 OA
HETATM   10  C   UNL     1      39.536 -14.312  -1.150  1.00  0.00     0.035 C 
HETATM   11  C   UNL     1      40.341 -13.983  -2.403  1.00  0.00     0.002 C 
HETATM   12  C   UNL     1      40.455 -12.477  -2.610  1.00  0.00     0.002 C 
HETATM   13  C   UNL     1      41.068 -11.790  -1.395  1.00  0.00     0.027 C 
HETATM   14  H   UNL     1      41.036 -10.455   1.057  1.00  0.00     0.163 HD
ENDROOT
BRANCH   1  15
HETATM   15  C   UNL     1      43.253 -14.235   2.204  1.00  0.00     0.146 C 
BRANCH  15  16
HETATM   16  C   UNL     1      43.212 -15.741   2.185  1.00  0.00     0.224 C 
HETATM   17  N   UNL     1      43.177 -16.489   3.318  1.00  0.00    -0.327 N 
HETATM   18  H   UNL     1      43.256 -17.481   3.107  1.00  0.00     0.169 HD
HETATM   19  O   UNL     1      43.171 -16.314   1.086  1.00  0.00    -0.273 OA
BRANCH  17  20
HETATM   20  C   UNL     1      43.074 -16.185   4.690  1.00  0.00     0.034 A 
HETATM   21  C   UNL     1      41.999 -15.536   5.301  1.00  0.00     0.032 A 
HETATM   22  C   UNL     1      42.007 -15.293   6.681  1.00  0.00     0.044 A 
HETATM   23  C   UNL     1      43.082 -15.711   7.453  1.00  0.00     0.116 A 
HETATM   24  C   UNL     1      44.150 -16.374   6.873  1.00  0.00     0.044 A 
HETATM   25  F   UNL     1      43.081 -15.477   8.770  1.00  0.00    -0.206 F 
HETATM   26  C   UNL     1      44.142 -16.615   5.497  1.00  0.00     0.032 A 
ENDBRANCH  17  20
ENDBRANCH  15  16
ENDBRANCH   1  15
TORSDOF 3
ENDMDL
MODEL 8
REMARK VINA RESULT:      -7.3      4.199      7.281
REMARK  3 active torsions:
REMARK  status: ('A' for Active; 'I' for Inactive)
REMARK    1  A    between atoms: C_2  and  N_3 
REMARK       I    between atoms: N_3  and  C_4 
REMARK    2  A    between atoms: C_4  and  C_5 
REMARK    3  A    between atoms: C_5  and  C_6 
ROOT
HETATM    1  C   UNL     1      41.801 -11.795   3.516  1.00  0.00     0.286 C 
HETATM    2  N   UNL     1      40.950 -13.042   3.719  1.00  0.00    -0.056 N 
HETATM    3  H   UNL     1      41.234 -13.429   4.644  1.00  0.00     0.278 HD
HETATM    4  H   UNL     1      39.958 -12.795   3.806  1.00  0.00     0.278 HD
HETATM    5  C   UNL     1      41.167 -14.064   2.631  1.00  0.00     0.209 C 
HETATM    6  C   UNL     1      42.667 -14.460   2.596  1.00  0.00     0.115 C 
HETATM    7  N   UNL     1      43.548 -13.291   2.572  1.00  0.00    -0.353 N 
HETATM    8  C   UNL     1      43.285 -12.115   3.234  1.00  0.00     0.249 C 
HETATM    9  O   UNL     1      44.192 -11.327   3.475  1.00  0.00    -0.271 OA
HETATM   10  C   UNL     1      40.239 -15.256   2.866  1.00  0.00     0.035 C 
HETATM   11  C   UNL     1      40.671 -16.137   4.034  1.00  0.00     0.002 C 
HETATM   12  C   UNL     1      42.124 -16.574   3.893  1.00  0.00     0.002 C 
HETATM   13  C   UNL     1      43.059 -15.377   3.763  1.00  0.00     0.027 C 
HETATM   14  H   UNL     1      44.539 -13.443   2.398  1.00  0.00     0.163 HD
ENDROOT
BRANCH   1  15
HETATM   15  C   UNL     1      41.648 -10.809   4.683  1.00  0.00     0.146 C 
BRANCH  15  16
HETATM   16  C   UNL     1      41.351 -11.533   5.970  1.00  0.00     0.224 C 
HETATM   17  N   UNL     1      42.253 -11.638   6.978  1.00  0.00    -0.327 N 
HETATM   18  H   UNL     1      41.909 -12.246   7.718  1.00  0.00     0.169 HD
HETATM   19  O   UNL     1      40.220 -12.017   6.123  1.00  0.00    -0.273 OA
BRANCH  17  20
HETATM   20  C   UNL     1      43.540 -11.110   7.202  1.00  0.00     0.034 A 
HETATM   21  C   UNL     1      44.741 -11.689   6.785  1.00  0.00     0.032 A 
HETATM   22  C   UNL     1      45.965 -11.066   7.061  1.00  0.00     0.044 A 
HETATM   23  C   UNL     1      45.989  -9.857   7.742  1.00  0.00     0.116 A 
HETATM   24  C   UNL     1      44.812  -9.253   8.148  1.00  0.00     0.044 A 
HETATM   25  F   UNL     1      47.162  -9.267   8.000  1.00  0.00    -0.206 F 
HETATM   26  C   UNL     1      43.591  -9.876   7.873  1.00  0.00     0.032 A 
ENDBRANCH  17  20
ENDBRANCH  15  16
ENDBRANCH   1  15
TORSDOF 3
ENDMDL
MODEL 9
REMARK VINA RESULT:      -7.2      4.883      5.839
REMARK  3 active torsions:
REMARK  status: ('A' for Active; 'I' for Inactive)
REMARK    1  A    between atoms: C_2  and  N_3 
REMARK       I    between atoms: N_3  and  C_4 
REMARK    2  A    between atoms: C_4  and  C_5 
REMARK    3  A    between atoms: C_5  and  C_6 
ROOT
HETATM    1  C   UNL     1      40.795 -13.690   0.410  1.00  0.00     0.286 C 
HETATM    2  N   UNL     1      40.450 -12.391  -0.306  1.00  0.00    -0.056 N 
HETATM    3  H   UNL     1      39.543 -12.078   0.100  1.00  0.00     0.278 HD
HETATM    4  H   UNL     1      41.132 -11.658  -0.080  1.00  0.00     0.278 HD
HETATM    5  C   UNL     1      40.321 -12.579  -1.798  1.00  0.00     0.209 C 
HETATM    6  C   UNL     1      39.224 -13.637  -2.084  1.00  0.00     0.115 C 
HETATM    7  N   UNL     1      39.406 -14.854  -1.291  1.00  0.00    -0.353 N 
HETATM    8  C   UNL     1      39.888 -14.869  -0.003  1.00  0.00     0.249 C 
HETATM    9  O   UNL     1      39.685 -15.836   0.720  1.00  0.00    -0.271 OA
HETATM   10  C   UNL     1      40.036 -11.228  -2.454  1.00  0.00     0.035 C 
HETATM   11  C   UNL     1      38.617 -10.725  -2.209  1.00  0.00     0.002 C 
HETATM   12  C   UNL     1      37.580 -11.772  -2.602  1.00  0.00     0.002 C 
HETATM   13  C   UNL     1      37.807 -13.087  -1.866  1.00  0.00     0.027 C 
HETATM   14  H   UNL     1      38.828 -15.662  -1.515  1.00  0.00     0.163 HD
ENDROOT
BRANCH   1  15
HETATM   15  C   UNL     1      40.822 -13.506   1.934  1.00  0.00     0.146 C 
BRANCH  15  16
HETATM   16  C   UNL     1      42.172 -13.027   2.400  1.00  0.00     0.224 C 
HETATM   17  N   UNL     1      43.126 -13.868   2.873  1.00  0.00    -0.327 N 
HETATM   18  H   UNL     1      43.927 -13.352   3.232  1.00  0.00     0.169 HD
HETATM   19  O   UNL     1      42.429 -11.818   2.308  1.00  0.00    -0.273 OA
BRANCH  17  20
HETATM   20  C   UNL     1      43.231 -15.269   2.985  1.00  0.00     0.034 A 
HETATM   21  C   UNL     1      43.251 -16.171   1.919  1.00  0.00     0.032 A 
HETATM   22  C   UNL     1      43.365 -17.547   2.154  1.00  0.00     0.044 A 
HETATM   23  C   UNL     1      43.473 -18.023   3.453  1.00  0.00     0.116 A 
HETATM   24  C   UNL     1      43.476 -17.147   4.526  1.00  0.00     0.044 A 
HETATM   25  F   UNL     1      43.584 -19.338   3.669  1.00  0.00    -0.206 F 
HETATM   26  C   UNL     1      43.361 -15.774   4.291  1.00  0.00     0.032 A 
ENDBRANCH  17  20
ENDBRANCH  15  16
ENDBRANCH   1  15
TORSDOF 3
ENDMDL
MODEL 10
REMARK VINA RESULT:      -7.1      4.124      7.002
REMARK  3 active torsions:
REMARK  status: ('A' for Active; 'I' for Inactive)
REMARK    1  A    between atoms: C_2  and  N_3 
REMARK       I    between atoms: N_3  and  C_4 
REMARK    2  A    between atoms: C_4  and  C_5 
REMARK    3  A    between atoms: C_5  and  C_6 
ROOT
HETATM    1  C   UNL     1      41.149 -13.664   5.097  1.00  0.00     0.286 C 
HETATM    2  N   UNL     1      42.221 -14.746   5.119  1.00  0.00    -0.056 N 
HETATM    3  H   UNL     1      42.846 -14.538   4.311  1.00  0.00     0.278 HD
HETATM    4  H   UNL     1      42.804 -14.664   5.960  1.00  0.00     0.278 HD
HETATM    5  C   UNL     1      41.637 -16.131   4.989  1.00  0.00     0.209 C 
HETATM    6  C   UNL     1      40.833 -16.223   3.666  1.00  0.00     0.115 C 
HETATM    7  N   UNL     1      39.898 -15.108   3.506  1.00  0.00    -0.353 N 
HETATM    8  C   UNL     1      40.151 -13.824   3.930  1.00  0.00     0.249 C 
HETATM    9  O   UNL     1      39.518 -12.885   3.463  1.00  0.00    -0.271 OA
HETATM   10  C   UNL     1      42.760 -17.163   5.081  1.00  0.00     0.035 C 
HETATM   11  C   UNL     1      43.635 -17.215   3.832  1.00  0.00     0.002 C 
HETATM   12  C   UNL     1      42.797 -17.406   2.573  1.00  0.00     0.002 C 
HETATM   13  C   UNL     1      41.743 -16.314   2.432  1.00  0.00     0.027 C 
HETATM   14  H   UNL     1      39.222 -15.156   2.747  1.00  0.00     0.163 HD
ENDROOT
BRANCH   1  15
HETATM   15  C   UNL     1      41.763 -12.258   5.126  1.00  0.00     0.146 C 
BRANCH  15  16
HETATM   16  C   UNL     1      43.116 -12.243   4.465  1.00  0.00     0.224 C 
HETATM   17  N   UNL     1      44.223 -11.739   5.069  1.00  0.00    -0.327 N 
HETATM   18  H   UNL     1      45.016 -11.724   4.431  1.00  0.00     0.169 HD
HETATM   19  O   UNL     1      43.225 -12.749   3.338  1.00  0.00    -0.273 OA
BRANCH  17  20
HETATM   20  C   UNL     1      44.492 -11.229   6.354  1.00  0.00     0.034 A 
HETATM   21  C   UNL     1      43.535 -10.920   7.324  1.00  0.00     0.032 A 
HETATM   22  C   UNL     1      43.924 -10.422   8.574  1.00  0.00     0.044 A 
HETATM   23  C   UNL     1      45.270 -10.245   8.862  1.00  0.00     0.116 A 
HETATM   24  C   UNL     1      46.239 -10.563   7.925  1.00  0.00     0.044 A 
HETATM   25  F   UNL     1      45.634  -9.771  10.059  1.00  0.00    -0.206 F 
HETATM   26  C   UNL     1      45.849 -11.059   6.677  1.00  0.00     0.032 A 
ENDBRANCH  17  20
ENDBRANCH  15  16
ENDBRANCH   1  15
TORSDOF 3
ENDMDL
