MODEL 1
REMARK VINA RESULT:      -9.5      0.000      0.000
REMARK  7 active torsions:
REMARK  status: ('A' for Active; 'I' for Inactive)
REMARK       I    between atoms: C_2  and  N_3 
REMARK    1  A    between atoms: N_3  and  C_4 
REMARK    2  A    between atoms: C_7  and  C_8 
REMARK    3  A    between atoms: C_8  and  N_9 
REMARK    4  A    between atoms: C_18  and  C_19 
REMARK    5  A    between atoms: C_19  and  N_20 
REMARK    6  A    between atoms: C_24  and  O_25 
REMARK    7  A    between atoms: O_25  and  C_26 
ROOT
HETATM    1  N   UNL     1      43.493  -8.272   9.793  1.00  0.00    -0.061 N 
HETATM    2  H   UNL     1      44.230  -7.682  10.194  1.00  0.00     0.280 HD
HETATM    3  C   UNL     1      44.005  -8.623   8.414  1.00  0.00     0.276 C 
HETATM    4  C   UNL     1      43.187  -9.619   7.642  1.00  0.00     0.002 A 
HETATM    5  C   UNL     1      41.869  -9.328   7.288  1.00  0.00     0.076 A 
HETATM    6  O   UNL     1      41.299  -8.132   7.620  1.00  0.00    -0.349 OA
HETATM    7  C   UNL     1      41.066  -8.019   9.030  1.00  0.00     0.203 C 
HETATM    8  C   UNL     1      42.258  -7.378   9.750  1.00  0.00     0.262 C 
HETATM    9  C   UNL     1      43.746 -10.836   7.207  1.00  0.00     0.020 A 
HETATM   10  C   UNL     1      43.000 -11.753   6.440  1.00  0.00    -0.032 A 
HETATM   11  C   UNL     1      41.683 -11.421   6.092  1.00  0.00     0.011 A 
HETATM   12  C   UNL     1      41.126 -10.209   6.505  1.00  0.00     0.038 A 
ENDROOT
BRANCH  10  13
HETATM   13  C   UNL     1      43.612 -13.059   5.989  1.00  0.00     0.273 C 
BRANCH  13  14
HETATM   14  N   UNL     1      42.664 -13.957   5.213  1.00  0.00    -0.067 N 
HETATM   15  H   UNL     1      41.720 -13.571   5.342  1.00  0.00     0.280 HD
HETATM   16  C   UNL     1      42.959 -13.969   3.730  1.00  0.00     0.237 C 
HETATM   17  C   UNL     1      41.985 -14.885   3.002  1.00  0.00     0.060 C 
HETATM   18  C   UNL     1      42.039 -16.307   3.562  1.00  0.00     0.132 C 
HETATM   19  C   UNL     1      41.711 -16.259   5.055  1.00  0.00     0.060 C 
HETATM   20  C   UNL     1      42.674 -15.354   5.808  1.00  0.00     0.237 C 
BRANCH  18  21
HETATM   21  O   UNL     1      43.364 -16.842   3.449  1.00  0.00    -0.344 OA
BRANCH  21  22
HETATM   22  C   UNL     1      43.500 -18.194   3.320  1.00  0.00     0.086 A 
HETATM   23  C   UNL     1      43.996 -18.873   4.428  1.00  0.00     0.152 A 
HETATM   24  N   UNL     1      44.231 -20.202   4.470  1.00  0.00    -0.270 NA
HETATM   25  C   UNL     1      43.898 -20.907   3.368  1.00  0.00     0.116 A 
HETATM   26  C   UNL     1      43.363 -20.330   2.227  1.00  0.00     0.022 A 
HETATM   27  C   UNL     1      43.164 -18.950   2.203  1.00  0.00     0.039 A 
ENDBRANCH  21  22
ENDBRANCH  18  21
ENDBRANCH  13  14
ENDBRANCH  10  13
BRANCH   1  28
HETATM   28  C   UNL     1      43.352  -9.422  10.770  1.00  0.00     0.273 C 
BRANCH  28  29
HETATM   29  C   UNL     1      42.767  -9.055  12.108  1.00  0.00    -0.032 A 
HETATM   30  C   UNL     1      43.350  -8.086  12.935  1.00  0.00     0.011 A 
HETATM   31  C   UNL     1      42.799  -7.803  14.193  1.00  0.00     0.030 A 
HETATM   32  C   UNL     1      41.670  -8.489  14.648  1.00  0.00     0.034 A 
HETATM   33  C   UNL     1      41.066  -9.423  13.807  1.00  0.00     0.030 A 
HETATM   34  C   UNL     1      41.600  -9.696  12.547  1.00  0.00     0.011 A 
BRANCH  32  35
HETATM   35  N   UNL     1      41.166  -8.173  15.924  1.00  0.00    -0.328 N 
HETATM   36  C   UNL     1      40.419  -7.053  16.250  1.00  0.00     0.218 C 
HETATM   37  C   UNL     1      40.206  -6.890  17.734  1.00  0.00     0.117 C 
HETATM   38  O   UNL     1      39.918  -6.273  15.441  1.00  0.00    -0.274 OA
HETATM   39  H   UNL     1      41.293  -8.865  16.655  1.00  0.00     0.169 HD
ENDBRANCH  32  35
ENDBRANCH  28  29
ENDBRANCH   1  28
TORSDOF 7
ENDMDL
MODEL 2
REMARK VINA RESULT:      -9.2      5.256      9.378
REMARK  7 active torsions:
REMARK  status: ('A' for Active; 'I' for Inactive)
REMARK       I    between atoms: C_2  and  N_3 
REMARK    1  A    between atoms: N_3  and  C_4 
REMARK    2  A    between atoms: C_7  and  C_8 
REMARK    3  A    between atoms: C_8  and  N_9 
REMARK    4  A    between atoms: C_18  and  C_19 
REMARK    5  A    between atoms: C_19  and  N_20 
REMARK    6  A    between atoms: C_24  and  O_25 
REMARK    7  A    between atoms: O_25  and  C_26 
ROOT
HETATM    1  N   UNL     1      38.503  -9.238   3.334  1.00  0.00    -0.061 N 
HETATM    2  H   UNL     1      37.549  -9.374   2.982  1.00  0.00     0.280 HD
HETATM    3  C   UNL     1      38.715 -10.388   4.293  1.00  0.00     0.276 C 
HETATM    4  C   UNL     1      40.102 -10.532   4.851  1.00  0.00     0.002 A 
HETATM    5  C   UNL     1      40.654  -9.523   5.641  1.00  0.00     0.076 A 
HETATM    6  O   UNL     1      39.945  -8.392   5.934  1.00  0.00    -0.349 OA
HETATM    7  C   UNL     1      39.767  -7.554   4.785  1.00  0.00     0.203 C 
HETATM    8  C   UNL     1      38.470  -7.886   4.040  1.00  0.00     0.262 C 
HETATM    9  C   UNL     1      40.850 -11.708   4.646  1.00  0.00     0.020 A 
HETATM   10  C   UNL     1      42.131 -11.869   5.208  1.00  0.00    -0.032 A 
HETATM   11  C   UNL     1      42.649 -10.839   6.006  1.00  0.00     0.011 A 
HETATM   12  C   UNL     1      41.907  -9.677   6.230  1.00  0.00     0.038 A 
ENDROOT
BRANCH  10  13
HETATM   13  C   UNL     1      42.925 -13.133   4.970  1.00  0.00     0.273 C 
BRANCH  13  14
HETATM   14  N   UNL     1      42.325 -14.059   3.925  1.00  0.00    -0.067 N 
HETATM   15  H   UNL     1      41.404 -13.672   3.683  1.00  0.00     0.280 HD
HETATM   16  C   UNL     1      43.149 -14.117   2.659  1.00  0.00     0.237 C 
HETATM   17  C   UNL     1      42.507 -15.060   1.651  1.00  0.00     0.060 C 
HETATM   18  C   UNL     1      42.337 -16.463   2.234  1.00  0.00     0.132 C 
HETATM   19  C   UNL     1      41.478 -16.368   3.496  1.00  0.00     0.060 C 
HETATM   20  C   UNL     1      42.101 -15.436   4.525  1.00  0.00     0.237 C 
BRANCH  18  21
HETATM   21  O   UNL     1      43.604 -16.997   2.638  1.00  0.00    -0.344 OA
BRANCH  21  22
HETATM   22  C   UNL     1      43.671 -18.325   2.945  1.00  0.00     0.086 A 
HETATM   23  C   UNL     1      44.140 -18.641   4.216  1.00  0.00     0.152 A 
HETATM   24  N   UNL     1      44.308 -19.899   4.679  1.00  0.00    -0.270 NA
HETATM   25  C   UNL     1      43.932 -20.899   3.854  1.00  0.00     0.116 A 
HETATM   26  C   UNL     1      43.419 -20.688   2.584  1.00  0.00     0.022 A 
HETATM   27  C   UNL     1      43.289 -19.378   2.122  1.00  0.00     0.039 A 
ENDBRANCH  21  22
ENDBRANCH  18  21
ENDBRANCH  13  14
ENDBRANCH  10  13
BRANCH   1  28
HETATM   28  C   UNL     1      39.370  -9.230   2.091  1.00  0.00     0.273 C 
BRANCH  28  29
HETATM   29  C   UNL     1      39.141 -10.380   1.146  1.00  0.00    -0.032 A 
HETATM   30  C   UNL     1      37.975 -10.491   0.378  1.00  0.00     0.011 A 
HETATM   31  C   UNL     1      37.779 -11.598  -0.458  1.00  0.00     0.030 A 
HETATM   32  C   UNL     1      38.734 -12.616  -0.531  1.00  0.00     0.034 A 
HETATM   33  C   UNL     1      39.914 -12.484   0.202  1.00  0.00     0.030 A 
HETATM   34  C   UNL     1      40.121 -11.375   1.023  1.00  0.00     0.011 A 
BRANCH  32  35
HETATM   35  N   UNL     1      38.481 -13.711  -1.378  1.00  0.00    -0.328 N 
HETATM   36  C   UNL     1      38.843 -13.810  -2.711  1.00  0.00     0.218 C 
HETATM   37  C   UNL     1      38.250 -15.012  -3.402  1.00  0.00     0.117 C 
HETATM   38  O   UNL     1      39.609 -13.047  -3.298  1.00  0.00    -0.274 OA
HETATM   39  H   UNL     1      38.065 -14.535  -0.956  1.00  0.00     0.169 HD
ENDBRANCH  32  35
ENDBRANCH  28  29
ENDBRANCH   1  28
TORSDOF 7
ENDMDL
MODEL 3
REMARK VINA RESULT:      -9.1      2.318     12.646
REMARK  7 active torsions:
REMARK  status: ('A' for Active; 'I' for Inactive)
REMARK       I    between atoms: C_2  and  N_3 
REMARK    1  A    between atoms: N_3  and  C_4 
REMARK    2  A    between atoms: C_7  and  C_8 
REMARK    3  A    between atoms: C_8  and  N_9 
REMARK    4  A    between atoms: C_18  and  C_19 
REMARK    5  A    between atoms: C_19  and  N_20 
REMARK    6  A    between atoms: C_24  and  O_25 
REMARK    7  A    between atoms: O_25  and  C_26 
ROOT
HETATM    1  N   UNL     1      43.573 -11.795   6.370  1.00  0.00    -0.061 N 
HETATM    2  H   UNL     1      42.949 -11.918   5.565  1.00  0.00     0.280 HD
HETATM    3  C   UNL     1      43.037 -10.569   7.075  1.00  0.00     0.276 C 
HETATM    4  C   UNL     1      43.673 -10.237   8.395  1.00  0.00     0.002 A 
HETATM    5  C   UNL     1      45.030  -9.919   8.465  1.00  0.00     0.076 A 
HETATM    6  O   UNL     1      45.804  -9.888   7.340  1.00  0.00    -0.349 OA
HETATM    7  C   UNL     1      46.022 -11.197   6.799  1.00  0.00     0.203 C 
HETATM    8  C   UNL     1      44.953 -11.565   5.764  1.00  0.00     0.262 C 
HETATM    9  C   UNL     1      42.907 -10.179   9.576  1.00  0.00     0.020 A 
HETATM   10  C   UNL     1      43.488  -9.820  10.808  1.00  0.00    -0.032 A 
HETATM   11  C   UNL     1      44.851  -9.494  10.839  1.00  0.00     0.011 A 
HETATM   12  C   UNL     1      45.614  -9.533   9.669  1.00  0.00     0.038 A 
ENDROOT
BRANCH  10  13
HETATM   13  C   UNL     1      42.655  -9.771  12.068  1.00  0.00     0.273 C 
BRANCH  13  14
HETATM   14  N   UNL     1      42.739  -8.455  12.822  1.00  0.00    -0.067 N 
HETATM   15  H   UNL     1      43.736  -8.205  12.866  1.00  0.00     0.280 HD
HETATM   16  C   UNL     1      42.011  -7.334  12.115  1.00  0.00     0.237 C 
HETATM   17  C   UNL     1      42.124  -6.042  12.913  1.00  0.00     0.060 C 
HETATM   18  C   UNL     1      41.576  -6.217  14.330  1.00  0.00     0.132 C 
HETATM   19  C   UNL     1      42.351  -7.339  15.021  1.00  0.00     0.060 C 
HETATM   20  C   UNL     1      42.250  -8.644  14.247  1.00  0.00     0.237 C 
BRANCH  18  21
HETATM   21  O   UNL     1      40.203  -6.628  14.290  1.00  0.00    -0.344 OA
BRANCH  21  22
HETATM   22  C   UNL     1      39.260  -5.759  14.756  1.00  0.00     0.086 A 
HETATM   23  C   UNL     1      38.154  -5.552  13.938  1.00  0.00     0.152 A 
HETATM   24  N   UNL     1      37.143  -4.702  14.217  1.00  0.00    -0.270 NA
HETATM   25  C   UNL     1      37.205  -4.063  15.405  1.00  0.00     0.116 A 
HETATM   26  C   UNL     1      38.245  -4.228  16.306  1.00  0.00     0.022 A 
HETATM   27  C   UNL     1      39.292  -5.088  15.973  1.00  0.00     0.039 A 
ENDBRANCH  21  22
ENDBRANCH  18  21
ENDBRANCH  13  14
ENDBRANCH  10  13
BRANCH   1  28
HETATM   28  C   UNL     1      43.475 -13.103   7.130  1.00  0.00     0.273 C 
BRANCH  28  29
HETATM   29  C   UNL     1      43.511 -14.342   6.275  1.00  0.00    -0.032 A 
HETATM   30  C   UNL     1      42.772 -14.449   5.090  1.00  0.00     0.011 A 
HETATM   31  C   UNL     1      42.798 -15.636   4.343  1.00  0.00     0.030 A 
HETATM   32  C   UNL     1      43.547 -16.734   4.774  1.00  0.00     0.034 A 
HETATM   33  C   UNL     1      44.315 -16.611   5.932  1.00  0.00     0.030 A 
HETATM   34  C   UNL     1      44.307 -15.426   6.670  1.00  0.00     0.011 A 
BRANCH  32  35
HETATM   35  N   UNL     1      43.528 -17.904   3.993  1.00  0.00    -0.328 N 
HETATM   36  C   UNL     1      43.352 -17.964   2.620  1.00  0.00     0.218 C 
HETATM   37  C   UNL     1      43.169 -19.369   2.103  1.00  0.00     0.117 C 
HETATM   38  O   UNL     1      43.386 -17.000   1.857  1.00  0.00    -0.274 OA
HETATM   39  H   UNL     1      43.738 -18.778   4.464  1.00  0.00     0.169 HD
ENDBRANCH  32  35
ENDBRANCH  28  29
ENDBRANCH   1  28
TORSDOF 7
ENDMDL
MODEL 4
REMARK VINA RESULT:      -9.0      2.746     11.457
REMARK  7 active torsions:
REMARK  status: ('A' for Active; 'I' for Inactive)
REMARK       I    between atoms: C_2  and  N_3 
REMARK    1  A    between atoms: N_3  and  C_4 
REMARK    2  A    between atoms: C_7  and  C_8 
REMARK    3  A    between atoms: C_8  and  N_9 
REMARK    4  A    between atoms: C_18  and  C_19 
REMARK    5  A    between atoms: C_19  and  N_20 
REMARK    6  A    between atoms: C_24  and  O_25 
REMARK    7  A    between atoms: O_25  and  C_26 
ROOT
HETATM    1  N   UNL     1      40.513 -14.291   1.233  1.00  0.00    -0.061 N 
HETATM    2  H   UNL     1      40.420 -15.280   0.975  1.00  0.00     0.280 HD
HETATM    3  C   UNL     1      39.433 -14.074   2.270  1.00  0.00     0.276 C 
HETATM    4  C   UNL     1      39.433 -12.734   2.948  1.00  0.00     0.002 A 
HETATM    5  C   UNL     1      39.226 -11.568   2.210  1.00  0.00     0.076 A 
HETATM    6  O   UNL     1      39.006 -11.618   0.862  1.00  0.00    -0.349 OA
HETATM    7  C   UNL     1      40.181 -12.004   0.139  1.00  0.00     0.203 C 
HETATM    8  C   UNL     1      40.249 -13.523  -0.057  1.00  0.00     0.262 C 
HETATM    9  C   UNL     1      39.578 -12.627   4.345  1.00  0.00     0.020 A 
HETATM   10  C   UNL     1      39.529 -11.377   4.993  1.00  0.00    -0.032 A 
HETATM   11  C   UNL     1      39.306 -10.228   4.221  1.00  0.00     0.011 A 
HETATM   12  C   UNL     1      39.144 -10.327   2.837  1.00  0.00     0.038 A 
ENDROOT
BRANCH  10  13
HETATM   13  C   UNL     1      39.696 -11.279   6.493  1.00  0.00     0.273 C 
BRANCH  13  14
HETATM   14  N   UNL     1      40.386 -10.009   6.962  1.00  0.00    -0.067 N 
HETATM   15  H   UNL     1      40.194  -9.291   6.252  1.00  0.00     0.280 HD
HETATM   16  C   UNL     1      39.844  -9.509   8.282  1.00  0.00     0.237 C 
HETATM   17  C   UNL     1      40.571  -8.241   8.707  1.00  0.00     0.060 C 
HETATM   18  C   UNL     1      42.079  -8.474   8.810  1.00  0.00     0.132 C 
HETATM   19  C   UNL     1      42.593  -8.953   7.451  1.00  0.00     0.060 C 
HETATM   20  C   UNL     1      41.888 -10.224   7.005  1.00  0.00     0.237 C 
BRANCH  18  21
HETATM   21  O   UNL     1      42.364  -9.518   9.749  1.00  0.00    -0.344 OA
BRANCH  21  22
HETATM   22  C   UNL     1      42.420  -9.190  11.073  1.00  0.00     0.086 A 
HETATM   23  C   UNL     1      41.550  -9.873  11.915  1.00  0.00     0.152 A 
HETATM   24  N   UNL     1      41.441  -9.655  13.244  1.00  0.00    -0.270 NA
HETATM   25  C   UNL     1      42.286  -8.747  13.776  1.00  0.00     0.116 A 
HETATM   26  C   UNL     1      43.215  -8.040  13.028  1.00  0.00     0.022 A 
HETATM   27  C   UNL     1      43.280  -8.264  11.653  1.00  0.00     0.039 A 
ENDBRANCH  21  22
ENDBRANCH  18  21
ENDBRANCH  13  14
ENDBRANCH  10  13
BRANCH   1  28
HETATM   28  C   UNL     1      41.943 -14.157   1.715  1.00  0.00     0.273 C 
BRANCH  28  29
HETATM   29  C   UNL     1      42.475 -15.344   2.474  1.00  0.00    -0.032 A 
HETATM   30  C   UNL     1      42.403 -15.428   3.871  1.00  0.00     0.011 A 
HETATM   31  C   UNL     1      42.949 -16.529   4.544  1.00  0.00     0.030 A 
HETATM   32  C   UNL     1      43.584 -17.555   3.838  1.00  0.00     0.034 A 
HETATM   33  C   UNL     1      43.618 -17.490   2.445  1.00  0.00     0.030 A 
HETATM   34  C   UNL     1      43.062 -16.404   1.768  1.00  0.00     0.011 A 
BRANCH  32  35
HETATM   35  N   UNL     1      44.125 -18.631   4.565  1.00  0.00    -0.328 N 
HETATM   36  C   UNL     1      43.977 -19.975   4.261  1.00  0.00     0.218 C 
HETATM   37  C   UNL     1      44.495 -20.890   5.342  1.00  0.00     0.117 C 
HETATM   38  O   UNL     1      43.523 -20.419   3.208  1.00  0.00    -0.274 OA
HETATM   39  H   UNL     1      44.743 -18.404   5.337  1.00  0.00     0.169 HD
ENDBRANCH  32  35
ENDBRANCH  28  29
ENDBRANCH   1  28
TORSDOF 7
ENDMDL
MODEL 5
REMARK VINA RESULT:      -9.0      1.920     12.658
REMARK  7 active torsions:
REMARK  status: ('A' for Active; 'I' for Inactive)
REMARK       I    between atoms: C_2  and  N_3 
REMARK    1  A    between atoms: N_3  and  C_4 
REMARK    2  A    between atoms: C_7  and  C_8 
REMARK    3  A    between atoms: C_8  and  N_9 
REMARK    4  A    between atoms: C_18  and  C_19 
REMARK    5  A    between atoms: C_19  and  N_20 
REMARK    6  A    between atoms: C_24  and  O_25 
REMARK    7  A    between atoms: O_25  and  C_26 
ROOT
HETATM    1  N   UNL     1      43.718 -11.648   6.312  1.00  0.00    -0.061 N 
HETATM    2  H   UNL     1      43.132 -11.726   5.474  1.00  0.00     0.280 HD
HETATM    3  C   UNL     1      43.161 -10.450   7.048  1.00  0.00     0.276 C 
HETATM    4  C   UNL     1      43.737 -10.189   8.411  1.00  0.00     0.002 A 
HETATM    5  C   UNL     1      45.092  -9.890   8.559  1.00  0.00     0.076 A 
HETATM    6  O   UNL     1      45.919  -9.814   7.473  1.00  0.00    -0.349 OA
HETATM    7  C   UNL     1      46.150 -11.099   6.881  1.00  0.00     0.203 C 
HETATM    8  C   UNL     1      45.127 -11.405   5.781  1.00  0.00     0.262 C 
HETATM    9  C   UNL     1      42.918 -10.178   9.556  1.00  0.00     0.020 A 
HETATM   10  C   UNL     1      43.444  -9.884  10.830  1.00  0.00    -0.032 A 
HETATM   11  C   UNL     1      44.808  -9.576  10.939  1.00  0.00     0.011 A 
HETATM   12  C   UNL     1      45.624  -9.568   9.805  1.00  0.00     0.038 A 
ENDROOT
BRANCH  10  13
HETATM   13  C   UNL     1      42.553  -9.886  12.051  1.00  0.00     0.273 C 
BRANCH  13  14
HETATM   14  N   UNL     1      41.995  -8.522  12.418  1.00  0.00    -0.067 N 
HETATM   15  H   UNL     1      42.129  -7.918  11.596  1.00  0.00     0.280 HD
HETATM   16  C   UNL     1      40.514  -8.564  12.723  1.00  0.00     0.237 C 
HETATM   17  C   UNL     1      40.008  -7.176  13.088  1.00  0.00     0.060 C 
HETATM   18  C   UNL     1      40.776  -6.600  14.278  1.00  0.00     0.132 C 
HETATM   19  C   UNL     1      42.263  -6.549  13.923  1.00  0.00     0.060 C 
HETATM   20  C   UNL     1      42.797  -7.926  13.561  1.00  0.00     0.237 C 
BRANCH  18  21
HETATM   21  O   UNL     1      40.654  -7.461  15.418  1.00  0.00    -0.344 OA
BRANCH  21  22
HETATM   22  C   UNL     1      40.763  -6.901  16.658  1.00  0.00     0.086 A 
HETATM   23  C   UNL     1      41.700  -7.470  17.513  1.00  0.00     0.152 A 
HETATM   24  N   UNL     1      41.918  -7.072  18.785  1.00  0.00    -0.270 NA
HETATM   25  C   UNL     1      41.205  -6.009  19.213  1.00  0.00     0.116 A 
HETATM   26  C   UNL     1      40.274  -5.349  18.427  1.00  0.00     0.022 A 
HETATM   27  C   UNL     1      40.047  -5.805  17.129  1.00  0.00     0.039 A 
ENDBRANCH  21  22
ENDBRANCH  18  21
ENDBRANCH  13  14
ENDBRANCH  10  13
BRANCH   1  28
HETATM   28  C   UNL     1      43.573 -12.989   7.003  1.00  0.00     0.273 C 
BRANCH  28  29
HETATM   29  C   UNL     1      43.416 -14.169   6.080  1.00  0.00    -0.032 A 
HETATM   30  C   UNL     1      42.873 -14.042   4.795  1.00  0.00     0.011 A 
HETATM   31  C   UNL     1      42.703 -15.171   3.982  1.00  0.00     0.030 A 
HETATM   32  C   UNL     1      43.059 -16.442   4.442  1.00  0.00     0.034 A 
HETATM   33  C   UNL     1      43.639 -16.562   5.705  1.00  0.00     0.030 A 
HETATM   34  C   UNL     1      43.826 -15.438   6.512  1.00  0.00     0.011 A 
BRANCH  32  35
HETATM   35  N   UNL     1      42.856 -17.542   3.589  1.00  0.00    -0.328 N 
HETATM   36  C   UNL     1      43.764 -18.559   3.342  1.00  0.00     0.218 C 
HETATM   37  C   UNL     1      43.338 -19.479   2.225  1.00  0.00     0.117 C 
HETATM   38  O   UNL     1      44.798 -18.759   3.977  1.00  0.00    -0.274 OA
HETATM   39  H   UNL     1      41.935 -17.643   3.176  1.00  0.00     0.169 HD
ENDBRANCH  32  35
ENDBRANCH  28  29
ENDBRANCH   1  28
TORSDOF 7
ENDMDL
MODEL 6
REMARK VINA RESULT:      -8.9      3.776      7.370
REMARK  7 active torsions:
REMARK  status: ('A' for Active; 'I' for Inactive)
REMARK       I    between atoms: C_2  and  N_3 
REMARK    1  A    between atoms: N_3  and  C_4 
REMARK    2  A    between atoms: C_7  and  C_8 
REMARK    3  A    between atoms: C_8  and  N_9 
REMARK    4  A    between atoms: C_18  and  C_19 
REMARK    5  A    between atoms: C_19  and  N_20 
REMARK    6  A    between atoms: C_24  and  O_25 
REMARK    7  A    between atoms: O_25  and  C_26 
ROOT
HETATM    1  N   UNL     1      42.709 -14.594   7.218  1.00  0.00    -0.061 N 
HETATM    2  H   UNL     1      42.097 -13.966   7.751  1.00  0.00     0.280 HD
HETATM    3  C   UNL     1      41.815 -15.155   6.134  1.00  0.00     0.276 C 
HETATM    4  C   UNL     1      42.493 -16.001   5.095  1.00  0.00     0.002 A 
HETATM    5  C   UNL     1      43.125 -17.192   5.455  1.00  0.00     0.076 A 
HETATM    6  O   UNL     1      43.130 -17.621   6.752  1.00  0.00    -0.349 OA
HETATM    7  C   UNL     1      43.952 -16.797   7.589  1.00  0.00     0.203 C 
HETATM    8  C   UNL     1      43.149 -15.655   8.221  1.00  0.00     0.262 C 
HETATM    9  C   UNL     1      42.453 -15.648   3.732  1.00  0.00     0.020 A 
HETATM   10  C   UNL     1      43.044 -16.463   2.746  1.00  0.00    -0.032 A 
HETATM   11  C   UNL     1      43.659 -17.658   3.144  1.00  0.00     0.011 A 
HETATM   12  C   UNL     1      43.688 -18.025   4.491  1.00  0.00     0.038 A 
ENDROOT
BRANCH  10  13
HETATM   13  C   UNL     1      43.001 -16.065   1.289  1.00  0.00     0.273 C 
BRANCH  13  14
HETATM   14  N   UNL     1      42.151 -14.839   1.001  1.00  0.00    -0.067 N 
HETATM   15  H   UNL     1      42.385 -14.536   0.046  1.00  0.00     0.280 HD
HETATM   16  C   UNL     1      40.670 -15.138   1.041  1.00  0.00     0.237 C 
HETATM   17  C   UNL     1      39.866 -13.878   0.751  1.00  0.00     0.060 C 
HETATM   18  C   UNL     1      40.207 -12.763   1.741  1.00  0.00     0.132 C 
HETATM   19  C   UNL     1      41.705 -12.471   1.653  1.00  0.00     0.060 C 
HETATM   20  C   UNL     1      42.533 -13.713   1.946  1.00  0.00     0.237 C 
BRANCH  18  21
HETATM   21  O   UNL     1      39.948 -13.188   3.085  1.00  0.00    -0.344 OA
BRANCH  21  22
HETATM   22  C   UNL     1      39.504 -12.256   3.977  1.00  0.00     0.086 A 
HETATM   23  C   UNL     1      39.413 -12.664   5.303  1.00  0.00     0.152 A 
HETATM   24  N   UNL     1      38.960 -11.891   6.314  1.00  0.00    -0.270 NA
HETATM   25  C   UNL     1      38.633 -10.620   5.999  1.00  0.00     0.116 A 
HETATM   26  C   UNL     1      38.722 -10.105   4.714  1.00  0.00     0.022 A 
HETATM   27  C   UNL     1      39.162 -10.940   3.686  1.00  0.00     0.039 A 
ENDBRANCH  21  22
ENDBRANCH  18  21
ENDBRANCH  13  14
ENDBRANCH  10  13
BRANCH   1  28
HETATM   28  C   UNL     1      43.851 -13.712   6.757  1.00  0.00     0.273 C 
BRANCH  28  29
HETATM   29  C   UNL     1      43.656 -12.238   6.997  1.00  0.00    -0.032 A 
HETATM   30  C   UNL     1      44.490 -11.508   7.855  1.00  0.00     0.011 A 
HETATM   31  C   UNL     1      44.250 -10.146   8.086  1.00  0.00     0.030 A 
HETATM   32  C   UNL     1      43.171  -9.497   7.479  1.00  0.00     0.034 A 
HETATM   33  C   UNL     1      42.368 -10.215   6.593  1.00  0.00     0.030 A 
HETATM   34  C   UNL     1      42.612 -11.567   6.346  1.00  0.00     0.011 A 
BRANCH  32  35
HETATM   35  N   UNL     1      42.970  -8.132   7.756  1.00  0.00    -0.328 N 
HETATM   36  C   UNL     1      42.216  -7.616   8.797  1.00  0.00     0.218 C 
HETATM   37  C   UNL     1      42.019  -6.123   8.706  1.00  0.00     0.117 C 
HETATM   38  O   UNL     1      41.777  -8.263   9.745  1.00  0.00    -0.274 OA
HETATM   39  H   UNL     1      43.484  -7.465   7.191  1.00  0.00     0.169 HD
ENDBRANCH  32  35
ENDBRANCH  28  29
ENDBRANCH   1  28
TORSDOF 7
ENDMDL
MODEL 7
REMARK VINA RESULT:      -8.8      1.597      2.182
REMARK  7 active torsions:
REMARK  status: ('A' for Active; 'I' for Inactive)
REMARK       I    between atoms: C_2  and  N_3 
REMARK    1  A    between atoms: N_3  and  C_4 
REMARK    2  A    between atoms: C_7  and  C_8 
REMARK    3  A    between atoms: C_8  and  N_9 
REMARK    4  A    between atoms: C_18  and  C_19 
REMARK    5  A    between atoms: C_19  and  N_20 
REMARK    6  A    between atoms: C_24  and  O_25 
REMARK    7  A    between atoms: O_25  and  C_26 
ROOT
HETATM    1  N   UNL     1      43.403  -8.057   9.646  1.00  0.00    -0.061 N 
HETATM    2  H   UNL     1      44.250  -8.155  10.216  1.00  0.00     0.280 HD
HETATM    3  C   UNL     1      43.682  -8.890   8.415  1.00  0.00     0.276 C 
HETATM    4  C   UNL     1      42.535  -9.056   7.459  1.00  0.00     0.002 A 
HETATM    5  C   UNL     1      41.983  -7.947   6.817  1.00  0.00     0.076 A 
HETATM    6  O   UNL     1      42.479  -6.691   7.031  1.00  0.00    -0.349 OA
HETATM    7  C   UNL     1      42.189  -6.216   8.352  1.00  0.00     0.203 C 
HETATM    8  C   UNL     1      43.310  -6.567   9.337  1.00  0.00     0.262 C 
HETATM    9  C   UNL     1      42.034 -10.333   7.141  1.00  0.00     0.020 A 
HETATM   10  C   UNL     1      40.992 -10.500   6.208  1.00  0.00    -0.032 A 
HETATM   11  C   UNL     1      40.470  -9.364   5.573  1.00  0.00     0.011 A 
HETATM   12  C   UNL     1      40.974  -8.095   5.870  1.00  0.00     0.038 A 
ENDROOT
BRANCH  10  13
HETATM   13  C   UNL     1      40.459 -11.877   5.885  1.00  0.00     0.273 C 
BRANCH  13  14
HETATM   14  N   UNL     1      41.332 -13.017   6.382  1.00  0.00    -0.067 N 
HETATM   15  H   UNL     1      41.466 -12.867   7.391  1.00  0.00     0.280 HD
HETATM   16  C   UNL     1      40.679 -14.369   6.200  1.00  0.00     0.237 C 
HETATM   17  C   UNL     1      41.596 -15.473   6.709  1.00  0.00     0.060 C 
HETATM   18  C   UNL     1      42.950 -15.440   6.000  1.00  0.00     0.132 C 
HETATM   19  C   UNL     1      43.589 -14.069   6.228  1.00  0.00     0.060 C 
HETATM   20  C   UNL     1      42.696 -12.947   5.721  1.00  0.00     0.237 C 
BRANCH  18  21
HETATM   21  O   UNL     1      42.780 -15.584   4.584  1.00  0.00    -0.344 OA
BRANCH  21  22
HETATM   22  C   UNL     1      43.149 -16.767   4.012  1.00  0.00     0.086 A 
HETATM   23  C   UNL     1      44.042 -17.550   4.735  1.00  0.00     0.152 A 
HETATM   24  N   UNL     1      44.544 -18.730   4.310  1.00  0.00    -0.270 NA
HETATM   25  C   UNL     1      44.088 -19.186   3.125  1.00  0.00     0.116 A 
HETATM   26  C   UNL     1      43.170 -18.499   2.345  1.00  0.00     0.022 A 
HETATM   27  C   UNL     1      42.696 -17.267   2.796  1.00  0.00     0.039 A 
ENDBRANCH  21  22
ENDBRANCH  18  21
ENDBRANCH  13  14
ENDBRANCH  10  13
BRANCH   1  28
HETATM   28  C   UNL     1      42.282  -8.542  10.544  1.00  0.00     0.273 C 
BRANCH  28  29
HETATM   29  C   UNL     1      42.220  -7.886  11.898  1.00  0.00    -0.032 A 
HETATM   30  C   UNL     1      41.098  -7.165  12.325  1.00  0.00     0.011 A 
HETATM   31  C   UNL     1      41.095  -6.532  13.576  1.00  0.00     0.030 A 
HETATM   32  C   UNL     1      42.213  -6.597  14.412  1.00  0.00     0.034 A 
HETATM   33  C   UNL     1      43.314  -7.350  14.003  1.00  0.00     0.030 A 
HETATM   34  C   UNL     1      43.316  -7.996  12.766  1.00  0.00     0.011 A 
BRANCH  32  35
HETATM   35  N   UNL     1      42.161  -5.933  15.651  1.00  0.00    -0.328 N 
HETATM   36  C   UNL     1      41.738  -6.482  16.851  1.00  0.00     0.218 C 
HETATM   37  C   UNL     1      41.599  -5.463  17.955  1.00  0.00     0.117 C 
HETATM   38  O   UNL     1      41.536  -7.678  17.053  1.00  0.00    -0.274 OA
HETATM   39  H   UNL     1      42.539  -4.992  15.688  1.00  0.00     0.169 HD
ENDBRANCH  32  35
ENDBRANCH  28  29
ENDBRANCH   1  28
TORSDOF 7
ENDMDL
MODEL 8
REMARK VINA RESULT:      -8.7      4.207      7.747
REMARK  7 active torsions:
REMARK  status: ('A' for Active; 'I' for Inactive)
REMARK       I    between atoms: C_2  and  N_3 
REMARK    1  A    between atoms: N_3  and  C_4 
REMARK    2  A    between atoms: C_7  and  C_8 
REMARK    3  A    between atoms: C_8  and  N_9 
REMARK    4  A    between atoms: C_18  and  C_19 
REMARK    5  A    between atoms: C_19  and  N_20 
REMARK    6  A    between atoms: C_24  and  O_25 
REMARK    7  A    between atoms: O_25  and  C_26 
ROOT
HETATM    1  N   UNL     1      40.240  -8.102   5.493  1.00  0.00    -0.061 N 
HETATM    2  H   UNL     1      39.244  -8.079   5.246  1.00  0.00     0.280 HD
HETATM    3  C   UNL     1      40.372  -9.306   6.398  1.00  0.00     0.276 C 
HETATM    4  C   UNL     1      41.772  -9.680   6.795  1.00  0.00     0.002 A 
HETATM    5  C   UNL     1      42.555  -8.796   7.540  1.00  0.00     0.076 A 
HETATM    6  O   UNL     1      42.064  -7.583   7.934  1.00  0.00    -0.349 OA
HETATM    7  C   UNL     1      41.896  -6.685   6.829  1.00  0.00     0.203 C 
HETATM    8  C   UNL     1      40.491  -6.788   6.226  1.00  0.00     0.262 C 
HETATM    9  C   UNL     1      42.302 -10.946   6.483  1.00  0.00     0.020 A 
HETATM   10  C   UNL     1      43.596 -11.321   6.896  1.00  0.00    -0.032 A 
HETATM   11  C   UNL     1      44.349 -10.412   7.654  1.00  0.00     0.011 A 
HETATM   12  C   UNL     1      43.824  -9.160   7.983  1.00  0.00     0.038 A 
ENDROOT
BRANCH  10  13
HETATM   13  C   UNL     1      44.155 -12.681   6.545  1.00  0.00     0.273 C 
BRANCH  13  14
HETATM   14  N   UNL     1      43.104 -13.704   6.151  1.00  0.00    -0.067 N 
HETATM   15  H   UNL     1      42.202 -13.347   6.493  1.00  0.00     0.280 HD
HETATM   16  C   UNL     1      42.994 -13.876   4.652  1.00  0.00     0.237 C 
HETATM   17  C   UNL     1      41.933 -14.913   4.313  1.00  0.00     0.060 C 
HETATM   18  C   UNL     1      42.238 -16.256   4.977  1.00  0.00     0.132 C 
HETATM   19  C   UNL     1      42.315 -16.048   6.490  1.00  0.00     0.060 C 
HETATM   20  C   UNL     1      43.375 -15.020   6.858  1.00  0.00     0.237 C 
BRANCH  18  21
HETATM   21  O   UNL     1      43.521 -16.742   4.562  1.00  0.00    -0.344 OA
BRANCH  21  22
HETATM   22  C   UNL     1      43.577 -17.960   3.950  1.00  0.00     0.086 A 
HETATM   23  C   UNL     1      43.957 -19.035   4.747  1.00  0.00     0.152 A 
HETATM   24  N   UNL     1      44.102 -20.303   4.305  1.00  0.00    -0.270 NA
HETATM   25  C   UNL     1      43.795 -20.527   3.011  1.00  0.00     0.116 A 
HETATM   26  C   UNL     1      43.371 -19.532   2.143  1.00  0.00     0.022 A 
HETATM   27  C   UNL     1      43.264 -18.226   2.622  1.00  0.00     0.039 A 
ENDBRANCH  21  22
ENDBRANCH  18  21
ENDBRANCH  13  14
ENDBRANCH  10  13
BRANCH   1  28
HETATM   28  C   UNL     1      40.960  -8.179   4.162  1.00  0.00     0.273 C 
BRANCH  28  29
HETATM   29  C   UNL     1      40.741  -9.453   3.391  1.00  0.00    -0.032 A 
HETATM   30  C   UNL     1      39.462  -9.890   3.022  1.00  0.00     0.011 A 
HETATM   31  C   UNL     1      39.295 -11.104   2.341  1.00  0.00     0.030 A 
HETATM   32  C   UNL     1      40.398 -11.906   2.032  1.00  0.00     0.034 A 
HETATM   33  C   UNL     1      41.674 -11.451   2.362  1.00  0.00     0.030 A 
HETATM   34  C   UNL     1      41.847 -10.234   3.025  1.00  0.00     0.011 A 
BRANCH  32  35
HETATM   35  N   UNL     1      40.172 -13.121   1.359  1.00  0.00    -0.328 N 
HETATM   36  C   UNL     1      40.307 -13.334  -0.003  1.00  0.00     0.218 C 
HETATM   37  C   UNL     1      39.794 -14.681  -0.449  1.00  0.00     0.117 C 
HETATM   38  O   UNL     1      40.832 -12.554  -0.796  1.00  0.00    -0.274 OA
HETATM   39  H   UNL     1      39.968 -13.934   1.930  1.00  0.00     0.169 HD
ENDBRANCH  32  35
ENDBRANCH  28  29
ENDBRANCH   1  28
TORSDOF 7
ENDMDL
MODEL 9
REMARK VINA RESULT:      -8.7      2.260     11.883
REMARK  7 active torsions:
REMARK  status: ('A' for Active; 'I' for Inactive)
REMARK       I    between atoms: C_2  and  N_3 
REMARK    1  A    between atoms: N_3  and  C_4 
REMARK    2  A    between atoms: C_7  and  C_8 
REMARK    3  A    between atoms: C_8  and  N_9 
REMARK    4  A    between atoms: C_18  and  C_19 
REMARK    5  A    between atoms: C_19  and  N_20 
REMARK    6  A    between atoms: C_24  and  O_25 
REMARK    7  A    between atoms: O_25  and  C_26 
ROOT
HETATM    1  N   UNL     1      39.852 -12.778   3.774  1.00  0.00    -0.061 N 
HETATM    2  H   UNL     1      39.481 -13.733   3.814  1.00  0.00     0.280 HD
HETATM    3  C   UNL     1      39.789 -12.293   5.205  1.00  0.00     0.276 C 
HETATM    4  C   UNL     1      40.420 -10.957   5.475  1.00  0.00     0.002 A 
HETATM    5  C   UNL     1      39.927  -9.804   4.862  1.00  0.00     0.076 A 
HETATM    6  O   UNL     1      38.855  -9.862   4.016  1.00  0.00    -0.349 OA
HETATM    7  C   UNL     1      39.175 -10.520   2.784  1.00  0.00     0.203 C 
HETATM    8  C   UNL     1      38.894 -12.025   2.857  1.00  0.00     0.262 C 
HETATM    9  C   UNL     1      41.478 -10.826   6.396  1.00  0.00     0.020 A 
HETATM   10  C   UNL     1      42.041  -9.569   6.691  1.00  0.00    -0.032 A 
HETATM   11  C   UNL     1      41.511  -8.432   6.065  1.00  0.00     0.011 A 
HETATM   12  C   UNL     1      40.451  -8.550   5.164  1.00  0.00     0.038 A 
ENDROOT
BRANCH  10  13
HETATM   13  C   UNL     1      43.183  -9.447   7.675  1.00  0.00     0.273 C 
BRANCH  13  14
HETATM   14  N   UNL     1      42.878 -10.000   9.056  1.00  0.00    -0.067 N 
HETATM   15  H   UNL     1      42.475 -10.936   8.916  1.00  0.00     0.280 HD
HETATM   16  C   UNL     1      44.120 -10.155   9.906  1.00  0.00     0.237 C 
HETATM   17  C   UNL     1      43.758 -10.708  11.277  1.00  0.00     0.060 C 
HETATM   18  C   UNL     1      42.742  -9.811  11.986  1.00  0.00     0.132 C 
HETATM   19  C   UNL     1      41.493  -9.700  11.110  1.00  0.00     0.060 C 
HETATM   20  C   UNL     1      41.825  -9.143   9.735  1.00  0.00     0.237 C 
BRANCH  18  21
HETATM   21  O   UNL     1      43.261  -8.484  12.134  1.00  0.00    -0.344 OA
BRANCH  21  22
HETATM   22  C   UNL     1      42.710  -7.685  13.094  1.00  0.00     0.086 A 
HETATM   23  C   UNL     1      42.300  -6.421  12.684  1.00  0.00     0.152 A 
HETATM   24  N   UNL     1      41.769  -5.485  13.501  1.00  0.00    -0.270 NA
HETATM   25  C   UNL     1      41.581  -5.847  14.788  1.00  0.00     0.116 A 
HETATM   26  C   UNL     1      41.922  -7.095  15.287  1.00  0.00     0.022 A 
HETATM   27  C   UNL     1      42.499  -8.027  14.425  1.00  0.00     0.039 A 
ENDBRANCH  21  22
ENDBRANCH  18  21
ENDBRANCH  13  14
ENDBRANCH  10  13
BRANCH   1  28
HETATM   28  C   UNL     1      41.237 -12.932   3.177  1.00  0.00     0.273 C 
BRANCH  28  29
HETATM   29  C   UNL     1      41.640 -14.347   2.857  1.00  0.00    -0.032 A 
HETATM   30  C   UNL     1      40.845 -15.445   3.209  1.00  0.00     0.011 A 
HETATM   31  C   UNL     1      41.275 -16.750   2.932  1.00  0.00     0.030 A 
HETATM   32  C   UNL     1      42.507 -16.979   2.314  1.00  0.00     0.034 A 
HETATM   33  C   UNL     1      43.279 -15.884   1.927  1.00  0.00     0.030 A 
HETATM   34  C   UNL     1      42.848 -14.582   2.185  1.00  0.00     0.011 A 
BRANCH  32  35
HETATM   35  N   UNL     1      42.896 -18.310   2.070  1.00  0.00    -0.328 N 
HETATM   36  C   UNL     1      43.700 -19.086   2.888  1.00  0.00     0.218 C 
HETATM   37  C   UNL     1      44.107 -20.394   2.256  1.00  0.00     0.117 C 
HETATM   38  O   UNL     1      44.030 -18.800   4.038  1.00  0.00    -0.274 OA
HETATM   39  H   UNL     1      42.488 -18.770   1.263  1.00  0.00     0.169 HD
ENDBRANCH  32  35
ENDBRANCH  28  29
ENDBRANCH   1  28
TORSDOF 7
ENDMDL
MODEL 10
REMARK VINA RESULT:      -8.4      4.378     11.825
REMARK  7 active torsions:
REMARK  status: ('A' for Active; 'I' for Inactive)
REMARK       I    between atoms: C_2  and  N_3 
REMARK    1  A    between atoms: N_3  and  C_4 
REMARK    2  A    between atoms: C_7  and  C_8 
REMARK    3  A    between atoms: C_8  and  N_9 
REMARK    4  A    between atoms: C_18  and  C_19 
REMARK    5  A    between atoms: C_19  and  N_20 
REMARK    6  A    between atoms: C_24  and  O_25 
REMARK    7  A    between atoms: O_25  and  C_26 
ROOT
HETATM    1  N   UNL     1      42.083 -14.623   1.085  1.00  0.00    -0.061 N 
HETATM    2  H   UNL     1      42.560 -14.346   0.220  1.00  0.00     0.280 HD
HETATM    3  C   UNL     1      42.274 -13.442   2.011  1.00  0.00     0.276 C 
HETATM    4  C   UNL     1      41.538 -13.505   3.318  1.00  0.00     0.002 A 
HETATM    5  C   UNL     1      41.817 -14.515   4.239  1.00  0.00     0.076 A 
HETATM    6  O   UNL     1      42.772 -15.458   3.980  1.00  0.00    -0.349 OA
HETATM    7  C   UNL     1      42.372 -16.359   2.940  1.00  0.00     0.203 C 
HETATM    8  C   UNL     1      42.826 -15.866   1.561  1.00  0.00     0.262 C 
HETATM    9  C   UNL     1      40.599 -12.516   3.671  1.00  0.00     0.020 A 
HETATM   10  C   UNL     1      39.941 -12.542   4.917  1.00  0.00    -0.032 A 
HETATM   11  C   UNL     1      40.256 -13.566   5.822  1.00  0.00     0.011 A 
HETATM   12  C   UNL     1      41.200 -14.540   5.487  1.00  0.00     0.038 A 
ENDROOT
BRANCH  10  13
HETATM   13  C   UNL     1      38.928 -11.479   5.277  1.00  0.00     0.273 C 
BRANCH  13  14
HETATM   14  N   UNL     1      39.529 -10.228   5.895  1.00  0.00    -0.067 N 
HETATM   15  H   UNL     1      38.972  -9.434   5.551  1.00  0.00     0.280 HD
HETATM   16  C   UNL     1      39.446 -10.231   7.405  1.00  0.00     0.237 C 
HETATM   17  C   UNL     1      40.064  -8.960   7.971  1.00  0.00     0.060 C 
HETATM   18  C   UNL     1      41.517  -8.802   7.522  1.00  0.00     0.132 C 
HETATM   19  C   UNL     1      41.557  -8.778   5.994  1.00  0.00     0.060 C 
HETATM   20  C   UNL     1      40.952 -10.041   5.401  1.00  0.00     0.237 C 
BRANCH  18  21
HETATM   21  O   UNL     1      42.297  -9.931   7.937  1.00  0.00    -0.344 OA
BRANCH  21  22
HETATM   22  C   UNL     1      43.656  -9.810   7.923  1.00  0.00     0.086 A 
HETATM   23  C   UNL     1      44.172  -8.599   8.372  1.00  0.00     0.152 A 
HETATM   24  N   UNL     1      45.486  -8.288   8.394  1.00  0.00    -0.270 NA
HETATM   25  C   UNL     1      46.341  -9.257   8.005  1.00  0.00     0.116 A 
HETATM   26  C   UNL     1      45.930 -10.509   7.576  1.00  0.00     0.022 A 
HETATM   27  C   UNL     1      44.563 -10.788   7.532  1.00  0.00     0.039 A 
ENDBRANCH  21  22
ENDBRANCH  18  21
ENDBRANCH  13  14
ENDBRANCH  10  13
BRANCH   1  28
HETATM   28  C   UNL     1      40.660 -14.917   0.657  1.00  0.00     0.273 C 
BRANCH  28  29
HETATM   29  C   UNL     1      40.069 -13.930  -0.315  1.00  0.00    -0.032 A 
HETATM   30  C   UNL     1      39.359 -12.800   0.111  1.00  0.00     0.011 A 
HETATM   31  C   UNL     1      38.786 -11.928  -0.826  1.00  0.00     0.030 A 
HETATM   32  C   UNL     1      38.902 -12.176  -2.196  1.00  0.00     0.034 A 
HETATM   33  C   UNL     1      39.644 -13.278  -2.620  1.00  0.00     0.030 A 
HETATM   34  C   UNL     1      40.231 -14.141  -1.692  1.00  0.00     0.011 A 
BRANCH  32  35
HETATM   35  N   UNL     1      38.298 -11.274  -3.092  1.00  0.00    -0.328 N 
HETATM   36  C   UNL     1      38.846 -10.084  -3.543  1.00  0.00     0.218 C 
HETATM   37  C   UNL     1      37.873  -9.240  -4.327  1.00  0.00     0.117 C 
HETATM   38  O   UNL     1      40.015  -9.737  -3.386  1.00  0.00    -0.274 OA
HETATM   39  H   UNL     1      37.415 -11.555  -3.506  1.00  0.00     0.169 HD
ENDBRANCH  32  35
ENDBRANCH  28  29
ENDBRANCH   1  28
TORSDOF 7
ENDMDL
