MODEL 1
REMARK VINA RESULT:      -9.3      0.000      0.000
REMARK  5 active torsions:
REMARK  status: ('A' for Active; 'I' for Inactive)
REMARK    1  A    between atoms: C_6  and  C_7 
REMARK    2  A    between atoms: C_7  and  C_8 
REMARK       I    between atoms: C_8  and  N_9 
REMARK    3  A    between atoms: N_9  and  C_10 
REMARK    4  A    between atoms: C_11  and  O_12 
REMARK    5  A    between atoms: O_12  and  C_13 
ROOT
HETATM    1  C   UNL     1      41.461 -16.054   4.605  1.00  0.00     0.069 A 
HETATM    2  C   UNL     1      42.771 -16.413   4.952  1.00  0.00     0.102 A 
HETATM    3  C   UNL     1      43.234 -16.222   6.267  1.00  0.00     0.039 A 
HETATM    4  C   UNL     1      42.394 -15.710   7.253  1.00  0.00     0.003 A 
HETATM    5  C   UNL     1      41.090 -15.362   6.927  1.00  0.00     0.002 A 
HETATM    6  C   UNL     1      40.633 -15.527   5.617  1.00  0.00     0.032 A 
ENDROOT
BRANCH   1   7
HETATM    7  N   UNL     1      40.822 -16.205   3.352  1.00  0.00    -0.324 N 
HETATM    8  C   UNL     1      40.130 -15.300   2.565  1.00  0.00     0.228 C 
HETATM    9  O   UNL     1      39.693 -14.203   2.895  1.00  0.00    -0.273 OA
HETATM   10  H   UNL     1      40.960 -17.112   2.909  1.00  0.00     0.169 HD
BRANCH   8  11
HETATM   11  C   UNL     1      39.863 -15.817   1.154  1.00  0.00     0.164 C 
BRANCH  11  12
HETATM   12  C   UNL     1      40.175 -14.785   0.121  1.00  0.00     0.065 A 
HETATM   13  N   UNL     1      41.121 -13.864   0.360  1.00  0.00    -0.179 NA
HETATM   14  N   UNL     1      41.096 -13.082  -0.732  1.00  0.00    -0.282 N 
HETATM   15  C   UNL     1      40.099 -13.405  -1.610  1.00  0.00     0.026 A 
HETATM   16  H   UNL     1      41.768 -12.323  -0.798  1.00  0.00     0.189 HD
HETATM   17  C   UNL     1      39.815 -12.608  -2.824  1.00  0.00     0.070 C 
HETATM   18  C   UNL     1      39.503 -14.534  -1.096  1.00  0.00     0.055 A 
ENDBRANCH  11  12
ENDBRANCH   8  11
ENDBRANCH   1   7
BRANCH   2  19
HETATM   19  O   UNL     1      43.673 -16.874   4.027  1.00  0.00    -0.308 OA
BRANCH  19  20
HETATM   20  C   UNL     1      43.801 -18.239   3.886  1.00  0.00     0.082 A 
HETATM   21  C   UNL     1      44.123 -19.100   4.937  1.00  0.00     0.079 A 
HETATM   22  C   UNL     1      44.178 -20.471   4.703  1.00  0.00     0.122 A 
HETATM   23  F   UNL     1      44.488 -21.299   5.708  1.00  0.00    -0.206 F 
HETATM   24  C   UNL     1      43.911 -20.998   3.445  1.00  0.00     0.084 A 
HETATM   25  C   UNL     1      43.573 -20.131   2.415  1.00  0.00     0.122 A 
HETATM   26  F   UNL     1      43.302 -20.626   1.201  1.00  0.00    -0.206 F 
HETATM   27  C   UNL     1      43.508 -18.757   2.624  1.00  0.00     0.079 A 
ENDBRANCH  19  20
ENDBRANCH   2  19
TORSDOF 5
ENDMDL
MODEL 2
REMARK VINA RESULT:      -9.2      1.181      2.068
REMARK  5 active torsions:
REMARK  status: ('A' for Active; 'I' for Inactive)
REMARK    1  A    between atoms: C_6  and  C_7 
REMARK    2  A    between atoms: C_7  and  C_8 
REMARK       I    between atoms: C_8  and  N_9 
REMARK    3  A    between atoms: N_9  and  C_10 
REMARK    4  A    between atoms: C_11  and  O_12 
REMARK    5  A    between atoms: O_12  and  C_13 
ROOT
HETATM    1  C   UNL     1      41.829 -15.480   4.045  1.00  0.00     0.069 A 
HETATM    2  C   UNL     1      42.686 -16.308   4.785  1.00  0.00     0.102 A 
HETATM    3  C   UNL     1      42.460 -16.517   6.159  1.00  0.00     0.039 A 
HETATM    4  C   UNL     1      41.366 -15.938   6.798  1.00  0.00     0.003 A 
HETATM    5  C   UNL     1      40.502 -15.127   6.075  1.00  0.00     0.002 A 
HETATM    6  C   UNL     1      40.736 -14.897   4.717  1.00  0.00     0.032 A 
ENDROOT
BRANCH   1   7
HETATM    7  N   UNL     1      41.885 -15.187   2.663  1.00  0.00    -0.324 N 
HETATM    8  C   UNL     1      40.941 -15.329   1.660  1.00  0.00     0.228 C 
HETATM    9  O   UNL     1      39.905 -15.982   1.696  1.00  0.00    -0.273 OA
HETATM   10  H   UNL     1      42.736 -14.714   2.361  1.00  0.00     0.169 HD
BRANCH   8  11
HETATM   11  C   UNL     1      41.328 -14.612   0.369  1.00  0.00     0.164 C 
BRANCH  11  12
HETATM   12  C   UNL     1      40.154 -13.934  -0.257  1.00  0.00     0.065 A 
HETATM   13  N   UNL     1      39.473 -13.004   0.431  1.00  0.00    -0.179 NA
HETATM   14  N   UNL     1      38.472 -12.657  -0.396  1.00  0.00    -0.282 N 
HETATM   15  C   UNL     1      38.427 -13.405  -1.540  1.00  0.00     0.026 A 
HETATM   16  H   UNL     1      37.835 -11.924  -0.102  1.00  0.00     0.189 HD
HETATM   17  C   UNL     1      37.344 -13.273  -2.538  1.00  0.00     0.070 C 
HETATM   18  C   UNL     1      39.533 -14.224  -1.492  1.00  0.00     0.055 A 
ENDBRANCH  11  12
ENDBRANCH   8  11
ENDBRANCH   1   7
BRANCH   2  19
HETATM   19  O   UNL     1      43.813 -16.868   4.239  1.00  0.00    -0.308 OA
BRANCH  19  20
HETATM   20  C   UNL     1      43.776 -18.215   3.944  1.00  0.00     0.082 A 
HETATM   21  C   UNL     1      43.472 -18.723   2.680  1.00  0.00     0.079 A 
HETATM   22  C   UNL     1      43.511 -20.099   2.472  1.00  0.00     0.122 A 
HETATM   23  F   UNL     1      43.219 -20.590   1.261  1.00  0.00    -0.206 F 
HETATM   24  C   UNL     1      43.857 -20.973   3.496  1.00  0.00     0.084 A 
HETATM   25  C   UNL     1      44.175 -20.450   4.741  1.00  0.00     0.122 A 
HETATM   26  F   UNL     1      44.521 -21.281   5.734  1.00  0.00    -0.206 F 
HETATM   27  C   UNL     1      44.146 -19.080   4.974  1.00  0.00     0.079 A 
ENDBRANCH  19  20
ENDBRANCH   2  19
TORSDOF 5
ENDMDL
MODEL 3
REMARK VINA RESULT:      -9.2      3.488      6.044
REMARK  5 active torsions:
REMARK  status: ('A' for Active; 'I' for Inactive)
REMARK    1  A    between atoms: C_6  and  C_7 
REMARK    2  A    between atoms: C_7  and  C_8 
REMARK       I    between atoms: C_8  and  N_9 
REMARK    3  A    between atoms: N_9  and  C_10 
REMARK    4  A    between atoms: C_11  and  O_12 
REMARK    5  A    between atoms: O_12  and  C_13 
ROOT
HETATM    1  C   UNL     1      43.636 -18.598   5.195  1.00  0.00     0.069 A 
HETATM    2  C   UNL     1      43.889 -18.257   3.859  1.00  0.00     0.102 A 
HETATM    3  C   UNL     1      44.128 -19.263   2.903  1.00  0.00     0.039 A 
HETATM    4  C   UNL     1      44.081 -20.609   3.256  1.00  0.00     0.003 A 
HETATM    5  C   UNL     1      43.819 -20.962   4.573  1.00  0.00     0.002 A 
HETATM    6  C   UNL     1      43.605 -19.967   5.530  1.00  0.00     0.032 A 
ENDROOT
BRANCH   1   7
HETATM    7  N   UNL     1      43.345 -17.730   6.272  1.00  0.00    -0.324 N 
HETATM    8  C   UNL     1      44.027 -16.633   6.772  1.00  0.00     0.228 C 
HETATM    9  O   UNL     1      45.186 -16.306   6.543  1.00  0.00    -0.273 OA
HETATM   10  H   UNL     1      42.438 -17.882   6.711  1.00  0.00     0.169 HD
BRANCH   8  11
HETATM   11  C   UNL     1      43.200 -15.813   7.759  1.00  0.00     0.164 C 
BRANCH  11  12
HETATM   12  C   UNL     1      41.991 -15.226   7.110  1.00  0.00     0.065 A 
HETATM   13  N   UNL     1      40.866 -15.951   7.012  1.00  0.00    -0.179 NA
HETATM   14  N   UNL     1      40.022 -15.150   6.339  1.00  0.00    -0.282 N 
HETATM   15  C   UNL     1      40.599 -13.987   5.911  1.00  0.00     0.026 A 
HETATM   16  H   UNL     1      39.074 -15.476   6.176  1.00  0.00     0.189 HD
HETATM   17  C   UNL     1      39.890 -13.010   5.057  1.00  0.00     0.070 C 
HETATM   18  C   UNL     1      41.875 -13.993   6.430  1.00  0.00     0.055 A 
ENDBRANCH  11  12
ENDBRANCH   8  11
ENDBRANCH   1   7
BRANCH   2  19
HETATM   19  O   UNL     1      44.004 -16.954   3.445  1.00  0.00    -0.308 OA
BRANCH  19  20
HETATM   20  C   UNL     1      42.870 -16.336   2.965  1.00  0.00     0.082 A 
HETATM   21  C   UNL     1      41.573 -16.699   3.335  1.00  0.00     0.079 A 
HETATM   22  C   UNL     1      40.494 -15.977   2.833  1.00  0.00     0.122 A 
HETATM   23  F   UNL     1      39.249 -16.323   3.186  1.00  0.00    -0.206 F 
HETATM   24  C   UNL     1      40.684 -14.898   1.978  1.00  0.00     0.084 A 
HETATM   25  C   UNL     1      41.980 -14.538   1.636  1.00  0.00     0.122 A 
HETATM   26  F   UNL     1      42.178 -13.492   0.822  1.00  0.00    -0.206 F 
HETATM   27  C   UNL     1      43.075 -15.241   2.126  1.00  0.00     0.079 A 
ENDBRANCH  19  20
ENDBRANCH   2  19
TORSDOF 5
ENDMDL
MODEL 4
REMARK VINA RESULT:      -9.0      3.812      5.977
REMARK  5 active torsions:
REMARK  status: ('A' for Active; 'I' for Inactive)
REMARK    1  A    between atoms: C_6  and  C_7 
REMARK    2  A    between atoms: C_7  and  C_8 
REMARK       I    between atoms: C_8  and  N_9 
REMARK    3  A    between atoms: N_9  and  C_10 
REMARK    4  A    between atoms: C_11  and  O_12 
REMARK    5  A    between atoms: O_12  and  C_13 
ROOT
HETATM    1  C   UNL     1      42.492 -14.547   5.570  1.00  0.00     0.069 A 
HETATM    2  C   UNL     1      42.405 -15.715   4.799  1.00  0.00     0.102 A 
HETATM    3  C   UNL     1      41.265 -16.538   4.884  1.00  0.00     0.039 A 
HETATM    4  C   UNL     1      40.193 -16.190   5.703  1.00  0.00     0.003 A 
HETATM    5  C   UNL     1      40.261 -15.030   6.462  1.00  0.00     0.002 A 
HETATM    6  C   UNL     1      41.400 -14.223   6.399  1.00  0.00     0.032 A 
ENDROOT
BRANCH   1   7
HETATM    7  N   UNL     1      43.537 -13.595   5.587  1.00  0.00    -0.324 N 
HETATM    8  C   UNL     1      43.623 -12.323   5.045  1.00  0.00     0.228 C 
HETATM    9  O   UNL     1      42.889 -11.819   4.202  1.00  0.00    -0.273 OA
HETATM   10  H   UNL     1      44.338 -13.849   6.163  1.00  0.00     0.169 HD
BRANCH   8  11
HETATM   11  C   UNL     1      44.826 -11.535   5.557  1.00  0.00     0.164 C 
BRANCH  11  12
HETATM   12  C   UNL     1      44.681 -11.186   7.001  1.00  0.00     0.065 A 
HETATM   13  N   UNL     1      43.497 -11.347   7.613  1.00  0.00    -0.179 NA
HETATM   14  N   UNL     1      43.712 -10.892   8.859  1.00  0.00    -0.282 N 
HETATM   15  C   UNL     1      44.954 -10.349   9.035  1.00  0.00     0.026 A 
HETATM   16  H   UNL     1      42.953 -10.951   9.532  1.00  0.00     0.189 HD
HETATM   17  C   UNL     1      45.367  -9.687  10.291  1.00  0.00     0.070 C 
HETATM   18  C   UNL     1      45.622 -10.558   7.848  1.00  0.00     0.055 A 
ENDBRANCH  11  12
ENDBRANCH   8  11
ENDBRANCH   1   7
BRANCH   2  19
HETATM   19  O   UNL     1      43.439 -16.151   4.011  1.00  0.00    -0.308 OA
BRANCH  19  20
HETATM   20  C   UNL     1      43.646 -17.511   3.926  1.00  0.00     0.082 A 
HETATM   21  C   UNL     1      43.966 -18.317   5.021  1.00  0.00     0.079 A 
HETATM   22  C   UNL     1      44.104 -19.690   4.839  1.00  0.00     0.122 A 
HETATM   23  F   UNL     1      44.412 -20.465   5.886  1.00  0.00    -0.206 F 
HETATM   24  C   UNL     1      43.922 -20.273   3.590  1.00  0.00     0.084 A 
HETATM   25  C   UNL     1      43.585 -19.461   2.517  1.00  0.00     0.122 A 
HETATM   26  F   UNL     1      43.395 -20.012   1.310  1.00  0.00    -0.206 F 
HETATM   27  C   UNL     1      43.438 -18.087   2.673  1.00  0.00     0.079 A 
ENDBRANCH  19  20
ENDBRANCH   2  19
TORSDOF 5
ENDMDL
MODEL 5
REMARK VINA RESULT:      -8.9      3.059      4.914
REMARK  5 active torsions:
REMARK  status: ('A' for Active; 'I' for Inactive)
REMARK    1  A    between atoms: C_6  and  C_7 
REMARK    2  A    between atoms: C_7  and  C_8 
REMARK       I    between atoms: C_8  and  N_9 
REMARK    3  A    between atoms: N_9  and  C_10 
REMARK    4  A    between atoms: C_11  and  O_12 
REMARK    5  A    between atoms: O_12  and  C_13 
ROOT
HETATM    1  C   UNL     1      42.878 -17.606   2.932  1.00  0.00     0.069 A 
HETATM    2  C   UNL     1      43.682 -17.504   4.076  1.00  0.00     0.102 A 
HETATM    3  C   UNL     1      44.329 -18.643   4.593  1.00  0.00     0.039 A 
HETATM    4  C   UNL     1      44.214 -19.878   3.960  1.00  0.00     0.003 A 
HETATM    5  C   UNL     1      43.431 -19.991   2.819  1.00  0.00     0.002 A 
HETATM    6  C   UNL     1      42.768 -18.869   2.317  1.00  0.00     0.032 A 
ENDROOT
BRANCH   1   7
HETATM    7  N   UNL     1      42.187 -16.571   2.262  1.00  0.00    -0.324 N 
HETATM    8  C   UNL     1      42.648 -15.472   1.557  1.00  0.00     0.228 C 
HETATM    9  O   UNL     1      43.780 -15.003   1.560  1.00  0.00    -0.273 OA
HETATM   10  H   UNL     1      41.176 -16.691   2.218  1.00  0.00     0.169 HD
BRANCH   8  11
HETATM   11  C   UNL     1      41.554 -14.777   0.749  1.00  0.00     0.164 C 
BRANCH  11  12
HETATM   12  C   UNL     1      40.614 -14.023   1.631  1.00  0.00     0.065 A 
HETATM   13  N   UNL     1      39.600 -14.664   2.232  1.00  0.00    -0.179 NA
HETATM   14  N   UNL     1      38.942 -13.690   2.884  1.00  0.00    -0.282 N 
HETATM   15  C   UNL     1      39.435 -12.439   2.636  1.00  0.00     0.026 A 
HETATM   16  H   UNL     1      38.143 -13.946   3.456  1.00  0.00     0.189 HD
HETATM   17  C   UNL     1      38.797 -11.211   3.159  1.00  0.00     0.070 C 
HETATM   18  C   UNL     1      40.549 -12.628   1.849  1.00  0.00     0.055 A 
ENDBRANCH  11  12
ENDBRANCH   8  11
ENDBRANCH   1   7
BRANCH   2  19
HETATM   19  O   UNL     1      43.803 -16.335   4.784  1.00  0.00    -0.308 OA
BRANCH  19  20
HETATM   20  C   UNL     1      42.643 -15.737   5.229  1.00  0.00     0.082 A 
HETATM   21  C   UNL     1      41.628 -16.420   5.903  1.00  0.00     0.079 A 
HETATM   22  C   UNL     1      40.518 -15.714   6.358  1.00  0.00     0.122 A 
HETATM   23  F   UNL     1      39.543 -16.365   7.003  1.00  0.00    -0.206 F 
HETATM   24  C   UNL     1      40.406 -14.343   6.161  1.00  0.00     0.084 A 
HETATM   25  C   UNL     1      41.432 -13.676   5.506  1.00  0.00     0.122 A 
HETATM   26  F   UNL     1      41.343 -12.352   5.320  1.00  0.00    -0.206 F 
HETATM   27  C   UNL     1      42.553 -14.357   5.045  1.00  0.00     0.079 A 
ENDBRANCH  19  20
ENDBRANCH   2  19
TORSDOF 5
ENDMDL
MODEL 6
REMARK VINA RESULT:      -8.8      3.636      6.066
REMARK  5 active torsions:
REMARK  status: ('A' for Active; 'I' for Inactive)
REMARK    1  A    between atoms: C_6  and  C_7 
REMARK    2  A    between atoms: C_7  and  C_8 
REMARK       I    between atoms: C_8  and  N_9 
REMARK    3  A    between atoms: N_9  and  C_10 
REMARK    4  A    between atoms: C_11  and  O_12 
REMARK    5  A    between atoms: O_12  and  C_13 
ROOT
HETATM    1  C   UNL     1      41.891 -14.805   3.843  1.00  0.00     0.069 A 
HETATM    2  C   UNL     1      42.234 -15.622   2.756  1.00  0.00     0.102 A 
HETATM    3  C   UNL     1      41.288 -15.899   1.751  1.00  0.00     0.039 A 
HETATM    4  C   UNL     1      40.012 -15.342   1.797  1.00  0.00     0.003 A 
HETATM    5  C   UNL     1      39.663 -14.521   2.861  1.00  0.00     0.002 A 
HETATM    6  C   UNL     1      40.591 -14.262   3.873  1.00  0.00     0.032 A 
ENDROOT
BRANCH   1   7
HETATM    7  N   UNL     1      42.716 -14.397   4.916  1.00  0.00    -0.324 N 
HETATM    8  C   UNL     1      42.878 -13.165   5.527  1.00  0.00     0.228 C 
HETATM    9  O   UNL     1      42.516 -12.071   5.110  1.00  0.00    -0.273 OA
HETATM   10  H   UNL     1      43.223 -15.152   5.376  1.00  0.00     0.169 HD
BRANCH   8  11
HETATM   11  C   UNL     1      43.656 -13.245   6.838  1.00  0.00     0.164 C 
BRANCH  11  12
HETATM   12  C   UNL     1      44.455 -12.008   7.080  1.00  0.00     0.065 A 
HETATM   13  N   UNL     1      45.577 -11.787   6.376  1.00  0.00    -0.179 NA
HETATM   14  N   UNL     1      46.056 -10.638   6.882  1.00  0.00    -0.282 N 
HETATM   15  C   UNL     1      45.342 -10.174   7.952  1.00  0.00     0.026 A 
HETATM   16  H   UNL     1      46.897 -10.244   6.471  1.00  0.00     0.189 HD
HETATM   17  C   UNL     1      45.755  -8.988   8.733  1.00  0.00     0.070 C 
HETATM   18  C   UNL     1      44.271 -11.029   8.082  1.00  0.00     0.055 A 
ENDBRANCH  11  12
ENDBRANCH   8  11
ENDBRANCH   1   7
BRANCH   2  19
HETATM   19  O   UNL     1      43.451 -16.249   2.666  1.00  0.00    -0.308 OA
BRANCH  19  20
HETATM   20  C   UNL     1      43.491 -17.602   2.928  1.00  0.00     0.082 A 
HETATM   21  C   UNL     1      43.258 -18.585   1.964  1.00  0.00     0.079 A 
HETATM   22  C   UNL     1      43.373 -19.926   2.318  1.00  0.00     0.122 A 
HETATM   23  F   UNL     1      43.150 -20.871   1.396  1.00  0.00    -0.206 F 
HETATM   24  C   UNL     1      43.724 -20.303   3.609  1.00  0.00     0.084 A 
HETATM   25  C   UNL     1      43.971 -19.314   4.550  1.00  0.00     0.122 A 
HETATM   26  F   UNL     1      44.321 -19.663   5.795  1.00  0.00    -0.206 F 
HETATM   27  C   UNL     1      43.866 -17.967   4.221  1.00  0.00     0.079 A 
ENDBRANCH  19  20
ENDBRANCH   2  19
TORSDOF 5
ENDMDL
MODEL 7
REMARK VINA RESULT:      -8.3     13.263     14.548
REMARK  5 active torsions:
REMARK  status: ('A' for Active; 'I' for Inactive)
REMARK    1  A    between atoms: C_6  and  C_7 
REMARK    2  A    between atoms: C_7  and  C_8 
REMARK       I    between atoms: C_8  and  N_9 
REMARK    3  A    between atoms: N_9  and  C_10 
REMARK    4  A    between atoms: C_11  and  O_12 
REMARK    5  A    between atoms: O_12  and  C_13 
ROOT
HETATM    1  C   UNL     1      46.001 -29.313   2.798  1.00  0.00     0.069 A 
HETATM    2  C   UNL     1      47.209 -28.701   2.433  1.00  0.00     0.102 A 
HETATM    3  C   UNL     1      48.398 -29.010   3.121  1.00  0.00     0.039 A 
HETATM    4  C   UNL     1      48.404 -29.952   4.147  1.00  0.00     0.003 A 
HETATM    5  C   UNL     1      47.218 -30.575   4.510  1.00  0.00     0.002 A 
HETATM    6  C   UNL     1      46.031 -30.254   3.846  1.00  0.00     0.032 A 
ENDROOT
BRANCH   1   7
HETATM    7  N   UNL     1      44.730 -29.149   2.201  1.00  0.00    -0.324 N 
HETATM    8  C   UNL     1      44.068 -29.895   1.240  1.00  0.00     0.228 C 
HETATM    9  O   UNL     1      44.544 -30.746   0.496  1.00  0.00    -0.273 OA
HETATM   10  H   UNL     1      44.165 -28.400   2.599  1.00  0.00     0.169 HD
BRANCH   8  11
HETATM   11  C   UNL     1      42.594 -29.523   1.105  1.00  0.00     0.164 C 
BRANCH  11  12
HETATM   12  C   UNL     1      41.749 -30.256   2.093  1.00  0.00     0.065 A 
HETATM   13  N   UNL     1      41.916 -30.039   3.407  1.00  0.00    -0.179 NA
HETATM   14  N   UNL     1      41.050 -30.887   3.988  1.00  0.00    -0.282 N 
HETATM   15  C   UNL     1      40.416 -31.711   3.100  1.00  0.00     0.026 A 
HETATM   16  H   UNL     1      40.968 -30.875   5.000  1.00  0.00     0.189 HD
HETATM   17  C   UNL     1      39.506 -32.797   3.527  1.00  0.00     0.070 C 
HETATM   18  C   UNL     1      40.826 -31.298   1.852  1.00  0.00     0.055 A 
ENDBRANCH  11  12
ENDBRANCH   8  11
ENDBRANCH   1   7
BRANCH   2  19
HETATM   19  O   UNL     1      47.274 -27.726   1.470  1.00  0.00    -0.308 OA
BRANCH  19  20
HETATM   20  C   UNL     1      47.331 -28.132   0.154  1.00  0.00     0.082 A 
HETATM   21  C   UNL     1      48.382 -28.881  -0.381  1.00  0.00     0.079 A 
HETATM   22  C   UNL     1      48.321 -29.286  -1.711  1.00  0.00     0.122 A 
HETATM   23  F   UNL     1      49.327 -30.003  -2.227  1.00  0.00    -0.206 F 
HETATM   24  C   UNL     1      47.231 -28.968  -2.512  1.00  0.00     0.084 A 
HETATM   25  C   UNL     1      46.187 -28.240  -1.960  1.00  0.00     0.122 A 
HETATM   26  F   UNL     1      45.125 -27.936  -2.718  1.00  0.00    -0.206 F 
HETATM   27  C   UNL     1      46.222 -27.826  -0.633  1.00  0.00     0.079 A 
ENDBRANCH  19  20
ENDBRANCH   2  19
TORSDOF 5
ENDMDL
MODEL 8
REMARK VINA RESULT:      -8.3     13.264     14.600
REMARK  5 active torsions:
REMARK  status: ('A' for Active; 'I' for Inactive)
REMARK    1  A    between atoms: C_6  and  C_7 
REMARK    2  A    between atoms: C_7  and  C_8 
REMARK       I    between atoms: C_8  and  N_9 
REMARK    3  A    between atoms: N_9  and  C_10 
REMARK    4  A    between atoms: C_11  and  O_12 
REMARK    5  A    between atoms: O_12  and  C_13 
ROOT
HETATM    1  C   UNL     1      45.983 -29.314   2.788  1.00  0.00     0.069 A 
HETATM    2  C   UNL     1      47.183 -28.697   2.411  1.00  0.00     0.102 A 
HETATM    3  C   UNL     1      48.378 -28.992   3.094  1.00  0.00     0.039 A 
HETATM    4  C   UNL     1      48.398 -29.927   4.127  1.00  0.00     0.003 A 
HETATM    5  C   UNL     1      47.218 -30.556   4.502  1.00  0.00     0.002 A 
HETATM    6  C   UNL     1      46.026 -30.248   3.843  1.00  0.00     0.032 A 
ENDROOT
BRANCH   1   7
HETATM    7  N   UNL     1      44.706 -29.163   2.198  1.00  0.00    -0.324 N 
HETATM    8  C   UNL     1      44.028 -29.942   1.276  1.00  0.00     0.228 C 
HETATM    9  O   UNL     1      44.488 -30.827   0.563  1.00  0.00    -0.273 OA
HETATM   10  H   UNL     1      44.152 -28.394   2.571  1.00  0.00     0.169 HD
BRANCH   8  11
HETATM   11  C   UNL     1      42.555 -29.563   1.141  1.00  0.00     0.164 C 
BRANCH  11  12
HETATM   12  C   UNL     1      41.703 -30.312   2.112  1.00  0.00     0.065 A 
HETATM   13  N   UNL     1      41.878 -30.136   3.430  1.00  0.00    -0.179 NA
HETATM   14  N   UNL     1      41.002 -30.988   3.990  1.00  0.00    -0.282 N 
HETATM   15  C   UNL     1      40.352 -31.775   3.082  1.00  0.00     0.026 A 
HETATM   16  H   UNL     1      40.925 -31.003   5.003  1.00  0.00     0.189 HD
HETATM   17  C   UNL     1      39.428 -32.860   3.481  1.00  0.00     0.070 C 
HETATM   18  C   UNL     1      40.764 -31.333   1.845  1.00  0.00     0.055 A 
ENDBRANCH  11  12
ENDBRANCH   8  11
ENDBRANCH   1   7
BRANCH   2  19
HETATM   19  O   UNL     1      47.235 -27.728   1.441  1.00  0.00    -0.308 OA
BRANCH  19  20
HETATM   20  C   UNL     1      47.152 -28.137   0.127  1.00  0.00     0.082 A 
HETATM   21  C   UNL     1      46.066 -27.857  -0.705  1.00  0.00     0.079 A 
HETATM   22  C   UNL     1      46.100 -28.271  -2.034  1.00  0.00     0.122 A 
HETATM   23  F   UNL     1      45.060 -28.005  -2.833  1.00  0.00    -0.206 F 
HETATM   24  C   UNL     1      47.199 -28.949  -2.548  1.00  0.00     0.084 A 
HETATM   25  C   UNL     1      48.278 -29.203  -1.714  1.00  0.00     0.122 A 
HETATM   26  F   UNL     1      49.348 -29.846  -2.200  1.00  0.00    -0.206 F 
HETATM   27  C   UNL     1      48.270 -28.798  -0.383  1.00  0.00     0.079 A 
ENDBRANCH  19  20
ENDBRANCH   2  19
TORSDOF 5
ENDMDL
MODEL 9
REMARK VINA RESULT:      -8.2      2.918      3.458
REMARK  5 active torsions:
REMARK  status: ('A' for Active; 'I' for Inactive)
REMARK    1  A    between atoms: C_6  and  C_7 
REMARK    2  A    between atoms: C_7  and  C_8 
REMARK       I    between atoms: C_8  and  N_9 
REMARK    3  A    between atoms: N_9  and  C_10 
REMARK    4  A    between atoms: C_11  and  O_12 
REMARK    5  A    between atoms: O_12  and  C_13 
ROOT
HETATM    1  C   UNL     1      42.367 -12.532   5.195  1.00  0.00     0.069 A 
HETATM    2  C   UNL     1      42.775 -13.620   5.981  1.00  0.00     0.102 A 
HETATM    3  C   UNL     1      43.953 -13.538   6.747  1.00  0.00     0.039 A 
HETATM    4  C   UNL     1      44.711 -12.369   6.769  1.00  0.00     0.003 A 
HETATM    5  C   UNL     1      44.312 -11.281   6.006  1.00  0.00     0.002 A 
HETATM    6  C   UNL     1      43.156 -11.366   5.225  1.00  0.00     0.032 A 
ENDROOT
BRANCH   1   7
HETATM    7  N   UNL     1      41.205 -12.427   4.396  1.00  0.00    -0.324 N 
HETATM    8  C   UNL     1      39.861 -12.445   4.730  1.00  0.00     0.228 C 
HETATM    9  O   UNL     1      39.359 -12.808   5.788  1.00  0.00    -0.273 OA
HETATM   10  H   UNL     1      41.380 -12.223   3.413  1.00  0.00     0.169 HD
BRANCH   8  11
HETATM   11  C   UNL     1      38.954 -12.005   3.584  1.00  0.00     0.164 C 
BRANCH  11  12
HETATM   12  C   UNL     1      39.231 -12.776   2.336  1.00  0.00     0.065 A 
HETATM   13  N   UNL     1      39.436 -14.100   2.399  1.00  0.00    -0.179 NA
HETATM   14  N   UNL     1      39.705 -14.447   1.129  1.00  0.00    -0.282 N 
HETATM   15  C   UNL     1      39.785 -13.381   0.278  1.00  0.00     0.026 A 
HETATM   16  H   UNL     1      39.859 -15.429   0.919  1.00  0.00     0.189 HD
HETATM   17  C   UNL     1      40.181 -13.518  -1.141  1.00  0.00     0.070 C 
HETATM   18  C   UNL     1      39.445 -12.279   1.031  1.00  0.00     0.055 A 
ENDBRANCH  11  12
ENDBRANCH   8  11
ENDBRANCH   1   7
BRANCH   2  19
HETATM   19  O   UNL     1      42.112 -14.820   5.970  1.00  0.00    -0.308 OA
BRANCH  19  20
HETATM   20  C   UNL     1      42.537 -15.775   5.072  1.00  0.00     0.082 A 
HETATM   21  C   UNL     1      43.638 -16.607   5.287  1.00  0.00     0.079 A 
HETATM   22  C   UNL     1      43.955 -17.576   4.339  1.00  0.00     0.122 A 
HETATM   23  F   UNL     1      45.010 -18.375   4.542  1.00  0.00    -0.206 F 
HETATM   24  C   UNL     1      43.191 -17.736   3.189  1.00  0.00     0.084 A 
HETATM   25  C   UNL     1      42.089 -16.915   3.000  1.00  0.00     0.122 A 
HETATM   26  F   UNL     1      41.337 -17.067   1.901  1.00  0.00    -0.206 F 
HETATM   27  C   UNL     1      41.749 -15.941   3.933  1.00  0.00     0.079 A 
ENDBRANCH  19  20
ENDBRANCH   2  19
TORSDOF 5
ENDMDL
MODEL 10
REMARK VINA RESULT:      -8.2      3.721      5.526
REMARK  5 active torsions:
REMARK  status: ('A' for Active; 'I' for Inactive)
REMARK    1  A    between atoms: C_6  and  C_7 
REMARK    2  A    between atoms: C_7  and  C_8 
REMARK       I    between atoms: C_8  and  N_9 
REMARK    3  A    between atoms: N_9  and  C_10 
REMARK    4  A    between atoms: C_11  and  O_12 
REMARK    5  A    between atoms: O_12  and  C_13 
ROOT
HETATM    1  C   UNL     1      41.995 -14.209   3.546  1.00  0.00     0.069 A 
HETATM    2  C   UNL     1      42.282 -15.427   2.913  1.00  0.00     0.102 A 
HETATM    3  C   UNL     1      41.270 -16.124   2.225  1.00  0.00     0.039 A 
HETATM    4  C   UNL     1      39.982 -15.602   2.130  1.00  0.00     0.003 A 
HETATM    5  C   UNL     1      39.688 -14.391   2.741  1.00  0.00     0.002 A 
HETATM    6  C   UNL     1      40.683 -13.707   3.444  1.00  0.00     0.032 A 
ENDROOT
BRANCH   1   7
HETATM    7  N   UNL     1      42.887 -13.364   4.246  1.00  0.00    -0.324 N 
HETATM    8  C   UNL     1      43.411 -12.123   3.927  1.00  0.00     0.228 C 
HETATM    9  O   UNL     1      43.413 -11.571   2.832  1.00  0.00    -0.273 OA
HETATM   10  H   UNL     1      43.128 -13.681   5.184  1.00  0.00     0.169 HD
BRANCH   8  11
HETATM   11  C   UNL     1      44.103 -11.444   5.106  1.00  0.00     0.164 C 
BRANCH  11  12
HETATM   12  C   UNL     1      43.116 -10.845   6.052  1.00  0.00     0.065 A 
HETATM   13  N   UNL     1      43.366 -10.845   7.370  1.00  0.00    -0.179 NA
HETATM   14  N   UNL     1      42.266 -10.292   7.910  1.00  0.00    -0.282 N 
HETATM   15  C   UNL     1      41.281 -10.037   6.997  1.00  0.00     0.026 A 
HETATM   16  H   UNL     1      42.242 -10.148   8.915  1.00  0.00     0.189 HD
HETATM   17  C   UNL     1      39.945  -9.535   7.383  1.00  0.00     0.070 C 
HETATM   18  C   UNL     1      41.820 -10.356   5.770  1.00  0.00     0.055 A 
ENDBRANCH  11  12
ENDBRANCH   8  11
ENDBRANCH   1   7
BRANCH   2  19
HETATM   19  O   UNL     1      43.510 -16.030   3.007  1.00  0.00    -0.308 OA
BRANCH  19  20
HETATM   20  C   UNL     1      43.587 -17.213   3.710  1.00  0.00     0.082 A 
HETATM   21  C   UNL     1      43.853 -18.450   3.119  1.00  0.00     0.079 A 
HETATM   22  C   UNL     1      43.961 -19.580   3.925  1.00  0.00     0.122 A 
HETATM   23  F   UNL     1      44.214 -20.768   3.361  1.00  0.00    -0.206 F 
HETATM   24  C   UNL     1      43.819 -19.497   5.305  1.00  0.00     0.084 A 
HETATM   25  C   UNL     1      43.575 -18.258   5.878  1.00  0.00     0.122 A 
HETATM   26  F   UNL     1      43.447 -18.162   7.208  1.00  0.00    -0.206 F 
HETATM   27  C   UNL     1      43.465 -17.113   5.096  1.00  0.00     0.079 A 
ENDBRANCH  19  20
ENDBRANCH   2  19
TORSDOF 5
ENDMDL
