MODEL 1
REMARK VINA RESULT:      -9.0      0.000      0.000
REMARK  9 active torsions:
REMARK  status: ('A' for Active; 'I' for Inactive)
REMARK    1  A    between atoms: C_2  and  O_3 
REMARK    2  A    between atoms: O_3  and  C_4 
REMARK    3  A    between atoms: C_5  and  O_6 
REMARK    4  A    between atoms: C_9  and  C_10 
REMARK    5  A    between atoms: C_10  and  N_11 
REMARK    6  A    between atoms: C_13  and  C_14 
REMARK       I    between atoms: C_14  and  N_15 
REMARK    7  A    between atoms: N_15  and  C_16 
REMARK    8  A    between atoms: C_28  and  S_29 
REMARK    9  A    between atoms: S_29  and  C_30 
ROOT
HETATM    1  N   UNL     1      41.935 -13.143   2.840  1.00  0.00    -0.053 N 
HETATM    2  H   UNL     1      42.841 -13.610   2.974  1.00  0.00     0.281 HD
HETATM    3  C   UNL     1      42.269 -11.661   2.608  1.00  0.00     0.281 C 
HETATM    4  C   UNL     1      41.086 -11.149   1.810  1.00  0.00     0.060 C 
HETATM    5  C   UNL     1      40.647 -12.336   0.941  1.00  0.00     0.082 C 
HETATM    6  C   UNL     1      41.338 -13.583   1.523  1.00  0.00     0.252 C 
ENDROOT
BRANCH   3   7
HETATM    7  C   UNL     1      42.714 -10.897   3.865  1.00  0.00     0.253 C 
HETATM    8  N   UNL     1      43.668 -11.521   4.644  1.00  0.00    -0.325 N 
HETATM    9  H   UNL     1      44.109 -12.368   4.305  1.00  0.00     0.169 HD
HETATM   10  O   UNL     1      42.155  -9.834   4.128  1.00  0.00    -0.271 OA
BRANCH   8  11
HETATM   11  C   UNL     1      44.095 -11.115   5.935  1.00  0.00     0.037 A 
HETATM   12  C   UNL     1      43.232 -10.626   6.923  1.00  0.00     0.062 A 
HETATM   13  C   UNL     1      43.722 -10.291   8.205  1.00  0.00     0.077 A 
HETATM   14  C   UNL     1      45.083 -10.439   8.467  1.00  0.00     0.035 A 
HETATM   15  N   UNL     1      42.961  -9.828   9.264  1.00  0.00    -0.245 NA
HETATM   16  S   UNL     1      45.393  -9.962  10.092  1.00  0.00    -0.073 SA
HETATM   17  C   UNL     1      45.972 -10.912   7.491  1.00  0.00     0.023 A 
HETATM   18  C   UNL     1      43.723  -9.634  10.317  1.00  0.00     0.072 A 
HETATM   19  C   UNL     1      43.219  -9.150  11.632  1.00  0.00     0.079 C 
HETATM   20  C   UNL     1      45.454 -11.253   6.232  1.00  0.00     0.031 A 
ENDBRANCH   8  11
ENDBRANCH   3   7
BRANCH   1  21
HETATM   21  C   UNL     1      41.140 -13.556   4.069  1.00  0.00     0.274 C 
BRANCH  21  22
HETATM   22  C   UNL     1      41.740 -14.614   4.956  1.00  0.00    -0.030 A 
HETATM   23  C   UNL     1      41.280 -14.768   6.277  1.00  0.00     0.012 A 
HETATM   24  C   UNL     1      41.832 -15.732   7.115  1.00  0.00     0.040 A 
HETATM   25  C   UNL     1      42.847 -16.546   6.636  1.00  0.00     0.099 A 
HETATM   26  C   UNL     1      43.326 -16.424   5.330  1.00  0.00     0.102 A 
HETATM   27  C   UNL     1      42.751 -15.474   4.482  1.00  0.00     0.048 A 
BRANCH  25  28
HETATM   28  O   UNL     1      43.372 -17.480   7.485  1.00  0.00    -0.358 OA
HETATM   29  H   UNL     1      43.749 -18.178   6.914  1.00  0.00     0.218 HD
ENDBRANCH  25  28
BRANCH  26  30
HETATM   30  O   UNL     1      44.337 -17.287   5.004  1.00  0.00    -0.349 OA
BRANCH  30  31
HETATM   31  C   UNL     1      44.031 -18.323   4.072  1.00  0.00     0.171 C 
HETATM   32  C   UNL     1      44.310 -19.651   4.753  1.00  0.00     0.034 C 
ENDBRANCH  30  31
ENDBRANCH  26  30
ENDBRANCH  21  22
ENDBRANCH   1  21
BRANCH   5  33
HETATM   33  S   UNL     1      41.145 -12.050  -0.799  1.00  0.00    -0.104 SA
BRANCH  33  34
HETATM   34  C   UNL     1      39.776 -12.814  -1.656  1.00  0.00     0.093 A 
HETATM   35  N   UNL     1      38.571 -12.204  -1.577  1.00  0.00    -0.254 NA
HETATM   36  C   UNL     1      37.543 -12.795  -2.233  1.00  0.00     0.118 A 
HETATM   37  C   UNL     1      37.658 -13.977  -2.943  1.00  0.00     0.019 A 
HETATM   38  C   UNL     1      38.901 -14.593  -2.991  1.00  0.00     0.004 A 
HETATM   39  C   UNL     1      39.982 -14.005  -2.341  1.00  0.00     0.039 A 
ENDBRANCH  33  34
ENDBRANCH   5  33
TORSDOF 9
ENDMDL
MODEL 2
REMARK VINA RESULT:      -8.8      3.231      8.689
REMARK  9 active torsions:
REMARK  status: ('A' for Active; 'I' for Inactive)
REMARK    1  A    between atoms: C_2  and  O_3 
REMARK    2  A    between atoms: O_3  and  C_4 
REMARK    3  A    between atoms: C_5  and  O_6 
REMARK    4  A    between atoms: C_9  and  C_10 
REMARK    5  A    between atoms: C_10  and  N_11 
REMARK    6  A    between atoms: C_13  and  C_14 
REMARK       I    between atoms: C_14  and  N_15 
REMARK    7  A    between atoms: N_15  and  C_16 
REMARK    8  A    between atoms: C_28  and  S_29 
REMARK    9  A    between atoms: S_29  and  C_30 
ROOT
HETATM    1  N   UNL     1      41.083 -10.336   4.738  1.00  0.00    -0.053 N 
HETATM    2  H   UNL     1      41.277 -10.027   3.777  1.00  0.00     0.281 HD
HETATM    3  C   UNL     1      42.413 -10.895   5.266  1.00  0.00     0.281 C 
HETATM    4  C   UNL     1      42.297 -10.735   6.768  1.00  0.00     0.060 C 
HETATM    5  C   UNL     1      41.473  -9.455   6.971  1.00  0.00     0.082 C 
HETATM    6  C   UNL     1      40.835  -9.126   5.609  1.00  0.00     0.252 C 
ENDROOT
BRANCH   3   7
HETATM    7  C   UNL     1      42.813 -12.260   4.685  1.00  0.00     0.253 C 
HETATM    8  N   UNL     1      42.530 -13.358   5.474  1.00  0.00    -0.325 N 
HETATM    9  H   UNL     1      41.979 -13.234   6.316  1.00  0.00     0.169 HD
HETATM   10  O   UNL     1      43.409 -12.284   3.610  1.00  0.00    -0.271 OA
BRANCH   8  11
HETATM   11  C   UNL     1      42.966 -14.689   5.250  1.00  0.00     0.037 A 
HETATM   12  C   UNL     1      42.590 -15.455   4.140  1.00  0.00     0.062 A 
HETATM   13  C   UNL     1      43.108 -16.756   3.955  1.00  0.00     0.077 A 
HETATM   14  C   UNL     1      43.988 -17.274   4.903  1.00  0.00     0.035 A 
HETATM   15  N   UNL     1      42.831 -17.590   2.886  1.00  0.00    -0.245 NA
HETATM   16  S   UNL     1      44.455 -18.860   4.425  1.00  0.00    -0.073 SA
HETATM   17  C   UNL     1      44.370 -16.534   6.032  1.00  0.00     0.023 A 
HETATM   18  C   UNL     1      43.491 -18.720   3.011  1.00  0.00     0.072 A 
HETATM   19  C   UNL     1      43.430 -19.834   2.026  1.00  0.00     0.079 C 
HETATM   20  C   UNL     1      43.853 -15.238   6.181  1.00  0.00     0.031 A 
ENDBRANCH   8  11
ENDBRANCH   3   7
BRANCH   1  21
HETATM   21  C   UNL     1      39.885 -11.259   4.576  1.00  0.00     0.274 C 
BRANCH  21  22
HETATM   22  C   UNL     1      39.402 -11.524   3.174  1.00  0.00    -0.030 A 
HETATM   23  C   UNL     1      38.401 -10.711   2.610  1.00  0.00     0.012 A 
HETATM   24  C   UNL     1      37.934 -10.950   1.321  1.00  0.00     0.040 A 
HETATM   25  C   UNL     1      38.465 -12.002   0.592  1.00  0.00     0.099 A 
HETATM   26  C   UNL     1      39.461 -12.827   1.118  1.00  0.00     0.102 A 
HETATM   27  C   UNL     1      39.948 -12.568   2.402  1.00  0.00     0.048 A 
BRANCH  25  28
HETATM   28  O   UNL     1      37.981 -12.214  -0.670  1.00  0.00    -0.358 OA
HETATM   29  H   UNL     1      38.183 -11.400  -1.173  1.00  0.00     0.218 HD
ENDBRANCH  25  28
BRANCH  26  30
HETATM   30  O   UNL     1      39.877 -13.831   0.287  1.00  0.00    -0.349 OA
BRANCH  30  31
HETATM   31  C   UNL     1      40.779 -14.793   0.831  1.00  0.00     0.171 C 
HETATM   32  C   UNL     1      39.954 -15.964   1.333  1.00  0.00     0.034 C 
ENDBRANCH  30  31
ENDBRANCH  26  30
ENDBRANCH  21  22
ENDBRANCH   1  21
BRANCH   5  33
HETATM   33  S   UNL     1      42.565  -8.099   7.541  1.00  0.00    -0.104 SA
BRANCH  33  34
HETATM   34  C   UNL     1      43.407  -8.910   8.892  1.00  0.00     0.093 A 
HETATM   35  N   UNL     1      42.645  -9.420   9.888  1.00  0.00    -0.254 NA
HETATM   36  C   UNL     1      43.298 -10.033  10.904  1.00  0.00     0.118 A 
HETATM   37  C   UNL     1      44.676 -10.138  10.985  1.00  0.00     0.019 A 
HETATM   38  C   UNL     1      45.435  -9.588   9.960  1.00  0.00     0.004 A 
HETATM   39  C   UNL     1      44.795  -8.965   8.893  1.00  0.00     0.039 A 
ENDBRANCH  33  34
ENDBRANCH   5  33
TORSDOF 9
ENDMDL
MODEL 3
REMARK VINA RESULT:      -8.7      1.917      8.705
REMARK  9 active torsions:
REMARK  status: ('A' for Active; 'I' for Inactive)
REMARK    1  A    between atoms: C_2  and  O_3 
REMARK    2  A    between atoms: O_3  and  C_4 
REMARK    3  A    between atoms: C_5  and  O_6 
REMARK    4  A    between atoms: C_9  and  C_10 
REMARK    5  A    between atoms: C_10  and  N_11 
REMARK    6  A    between atoms: C_13  and  C_14 
REMARK       I    between atoms: C_14  and  N_15 
REMARK    7  A    between atoms: N_15  and  C_16 
REMARK    8  A    between atoms: C_28  and  S_29 
REMARK    9  A    between atoms: S_29  and  C_30 
ROOT
HETATM    1  N   UNL     1      42.255 -13.086   5.664  1.00  0.00    -0.053 N 
HETATM    2  H   UNL     1      41.695 -13.762   6.201  1.00  0.00     0.281 HD
HETATM    3  C   UNL     1      41.235 -12.182   4.953  1.00  0.00     0.281 C 
HETATM    4  C   UNL     1      41.998 -10.891   4.730  1.00  0.00     0.060 C 
HETATM    5  C   UNL     1      42.936 -10.768   5.940  1.00  0.00     0.082 C 
HETATM    6  C   UNL     1      42.955 -12.150   6.621  1.00  0.00     0.252 C 
ENDROOT
BRANCH   3   7
HETATM    7  C   UNL     1      40.509 -12.838   3.769  1.00  0.00     0.253 C 
HETATM    8  N   UNL     1      40.855 -12.371   2.516  1.00  0.00    -0.325 N 
HETATM    9  H   UNL     1      41.633 -11.728   2.423  1.00  0.00     0.169 HD
HETATM   10  O   UNL     1      39.635 -13.669   4.009  1.00  0.00    -0.271 OA
BRANCH   8  11
HETATM   11  C   UNL     1      40.199 -12.676   1.295  1.00  0.00     0.037 A 
HETATM   12  C   UNL     1      39.152 -11.915   0.762  1.00  0.00     0.062 A 
HETATM   13  C   UNL     1      38.583 -12.249  -0.487  1.00  0.00     0.077 A 
HETATM   14  C   UNL     1      39.068 -13.360  -1.174  1.00  0.00     0.035 A 
HETATM   15  N   UNL     1      37.568 -11.555  -1.122  1.00  0.00    -0.245 NA
HETATM   16  S   UNL     1      38.200 -13.526  -2.651  1.00  0.00    -0.073 SA
HETATM   17  C   UNL     1      40.106 -14.148  -0.657  1.00  0.00     0.023 A 
HETATM   18  C   UNL     1      37.289 -12.119  -2.276  1.00  0.00     0.072 A 
HETATM   19  C   UNL     1      36.253 -11.617  -3.220  1.00  0.00     0.079 C 
HETATM   20  C   UNL     1      40.664 -13.783   0.578  1.00  0.00     0.031 A 
ENDBRANCH   8  11
ENDBRANCH   3   7
BRANCH   1  21
HETATM   21  C   UNL     1      43.183 -13.970   4.845  1.00  0.00     0.274 C 
BRANCH  21  22
HETATM   22  C   UNL     1      43.243 -15.431   5.207  1.00  0.00    -0.030 A 
HETATM   23  C   UNL     1      42.979 -15.839   6.528  1.00  0.00     0.012 A 
HETATM   24  C   UNL     1      43.043 -17.184   6.883  1.00  0.00     0.040 A 
HETATM   25  C   UNL     1      43.372 -18.124   5.920  1.00  0.00     0.099 A 
HETATM   26  C   UNL     1      43.637 -17.755   4.599  1.00  0.00     0.102 A 
HETATM   27  C   UNL     1      43.545 -16.409   4.239  1.00  0.00     0.048 A 
BRANCH  25  28
HETATM   28  O   UNL     1      43.432 -19.436   6.301  1.00  0.00    -0.358 OA
HETATM   29  H   UNL     1      43.925 -19.897   5.594  1.00  0.00     0.218 HD
ENDBRANCH  25  28
BRANCH  26  30
HETATM   30  O   UNL     1      43.960 -18.791   3.765  1.00  0.00    -0.349 OA
BRANCH  30  31
HETATM   31  C   UNL     1      43.324 -18.820   2.488  1.00  0.00     0.171 C 
HETATM   32  C   UNL     1      43.385 -20.247   1.976  1.00  0.00     0.034 C 
ENDBRANCH  30  31
ENDBRANCH  26  30
ENDBRANCH  21  22
ENDBRANCH   1  21
BRANCH   5  33
HETATM   33  S   UNL     1      42.316  -9.473   7.078  1.00  0.00    -0.104 SA
BRANCH  33  34
HETATM   34  C   UNL     1      43.516  -9.600   8.396  1.00  0.00     0.093 A 
HETATM   35  N   UNL     1      43.073 -10.016   9.606  1.00  0.00    -0.254 NA
HETATM   36  C   UNL     1      43.995 -10.108  10.594  1.00  0.00     0.118 A 
HETATM   37  C   UNL     1      45.332  -9.782  10.437  1.00  0.00     0.019 A 
HETATM   38  C   UNL     1      45.755  -9.339   9.191  1.00  0.00     0.004 A 
HETATM   39  C   UNL     1      44.836  -9.248   8.149  1.00  0.00     0.039 A 
ENDBRANCH  33  34
ENDBRANCH   5  33
TORSDOF 9
ENDMDL
MODEL 4
REMARK VINA RESULT:      -8.7      2.990      8.769
REMARK  9 active torsions:
REMARK  status: ('A' for Active; 'I' for Inactive)
REMARK    1  A    between atoms: C_2  and  O_3 
REMARK    2  A    between atoms: O_3  and  C_4 
REMARK    3  A    between atoms: C_5  and  O_6 
REMARK    4  A    between atoms: C_9  and  C_10 
REMARK    5  A    between atoms: C_10  and  N_11 
REMARK    6  A    between atoms: C_13  and  C_14 
REMARK       I    between atoms: C_14  and  N_15 
REMARK    7  A    between atoms: N_15  and  C_16 
REMARK    8  A    between atoms: C_28  and  S_29 
REMARK    9  A    between atoms: S_29  and  C_30 
ROOT
HETATM    1  N   UNL     1      41.363 -10.565   4.455  1.00  0.00    -0.053 N 
HETATM    2  H   UNL     1      41.656 -10.265   3.516  1.00  0.00     0.281 HD
HETATM    3  C   UNL     1      42.613 -11.189   5.094  1.00  0.00     0.281 C 
HETATM    4  C   UNL     1      42.373 -11.025   6.582  1.00  0.00     0.060 C 
HETATM    5  C   UNL     1      41.598  -9.705   6.718  1.00  0.00     0.082 C 
HETATM    6  C   UNL     1      41.099  -9.345   5.306  1.00  0.00     0.252 C 
ENDROOT
BRANCH   3   7
HETATM    7  C   UNL     1      42.996 -12.572   4.545  1.00  0.00     0.253 C 
HETATM    8  N   UNL     1      42.641 -13.652   5.329  1.00  0.00    -0.325 N 
HETATM    9  H   UNL     1      42.057 -13.503   6.144  1.00  0.00     0.169 HD
HETATM   10  O   UNL     1      43.639 -12.625   3.499  1.00  0.00    -0.271 OA
BRANCH   8  11
HETATM   11  C   UNL     1      43.044 -14.998   5.137  1.00  0.00     0.037 A 
HETATM   12  C   UNL     1      42.737 -15.747   3.994  1.00  0.00     0.062 A 
HETATM   13  C   UNL     1      43.219 -17.068   3.848  1.00  0.00     0.077 A 
HETATM   14  C   UNL     1      43.993 -17.620   4.867  1.00  0.00     0.035 A 
HETATM   15  N   UNL     1      43.004 -17.888   2.755  1.00  0.00    -0.245 NA
HETATM   16  S   UNL     1      44.439 -19.222   4.423  1.00  0.00    -0.073 SA
HETATM   17  C   UNL     1      44.304 -16.897   6.027  1.00  0.00     0.023 A 
HETATM   18  C   UNL     1      43.608 -19.042   2.931  1.00  0.00     0.072 A 
HETATM   19  C   UNL     1      43.590 -20.152   1.938  1.00  0.00     0.079 C 
HETATM   20  C   UNL     1      43.825 -15.583   6.139  1.00  0.00     0.031 A 
ENDBRANCH   8  11
ENDBRANCH   3   7
BRANCH   1  21
HETATM   21  C   UNL     1      40.141 -11.428   4.184  1.00  0.00     0.274 C 
BRANCH  21  22
HETATM   22  C   UNL     1      40.166 -12.296   2.953  1.00  0.00    -0.030 A 
HETATM   23  C   UNL     1      39.801 -13.652   3.042  1.00  0.00     0.012 A 
HETATM   24  C   UNL     1      39.831 -14.472   1.917  1.00  0.00     0.040 A 
HETATM   25  C   UNL     1      40.227 -13.938   0.701  1.00  0.00     0.099 A 
HETATM   26  C   UNL     1      40.593 -12.596   0.575  1.00  0.00     0.102 A 
HETATM   27  C   UNL     1      40.535 -11.770   1.700  1.00  0.00     0.048 A 
BRANCH  25  28
HETATM   28  O   UNL     1      40.252 -14.771  -0.385  1.00  0.00    -0.358 OA
HETATM   29  H   UNL     1      39.474 -14.527  -0.925  1.00  0.00     0.218 HD
ENDBRANCH  25  28
BRANCH  26  30
HETATM   30  O   UNL     1      40.973 -12.218  -0.684  1.00  0.00    -0.349 OA
BRANCH  30  31
HETATM   31  C   UNL     1      40.071 -11.385  -1.411  1.00  0.00     0.171 C 
HETATM   32  C   UNL     1      39.836 -12.031  -2.764  1.00  0.00     0.034 C 
ENDBRANCH  30  31
ENDBRANCH  26  30
ENDBRANCH  21  22
ENDBRANCH   1  21
BRANCH   5  33
HETATM   33  S   UNL     1      42.701  -8.405   7.388  1.00  0.00    -0.104 SA
BRANCH  33  34
HETATM   34  C   UNL     1      43.198  -9.165   8.927  1.00  0.00     0.093 A 
HETATM   35  N   UNL     1      42.233  -9.397   9.848  1.00  0.00    -0.254 NA
HETATM   36  C   UNL     1      42.625  -9.975  11.009  1.00  0.00     0.118 A 
HETATM   37  C   UNL     1      43.936 -10.309  11.302  1.00  0.00     0.019 A 
HETATM   38  C   UNL     1      44.908 -10.041  10.348  1.00  0.00     0.004 A 
HETATM   39  C   UNL     1      44.537  -9.462   9.137  1.00  0.00     0.039 A 
ENDBRANCH  33  34
ENDBRANCH   5  33
TORSDOF 9
ENDMDL
MODEL 5
REMARK VINA RESULT:      -8.6      1.485      1.863
REMARK  9 active torsions:
REMARK  status: ('A' for Active; 'I' for Inactive)
REMARK    1  A    between atoms: C_2  and  O_3 
REMARK    2  A    between atoms: O_3  and  C_4 
REMARK    3  A    between atoms: C_5  and  O_6 
REMARK    4  A    between atoms: C_9  and  C_10 
REMARK    5  A    between atoms: C_10  and  N_11 
REMARK    6  A    between atoms: C_13  and  C_14 
REMARK       I    between atoms: C_14  and  N_15 
REMARK    7  A    between atoms: N_15  and  C_16 
REMARK    8  A    between atoms: C_28  and  S_29 
REMARK    9  A    between atoms: S_29  and  C_30 
ROOT
HETATM    1  N   UNL     1      41.073 -14.721   2.014  1.00  0.00    -0.053 N 
HETATM    2  H   UNL     1      42.050 -14.998   2.176  1.00  0.00     0.281 HD
HETATM    3  C   UNL     1      41.098 -13.190   1.882  1.00  0.00     0.281 C 
HETATM    4  C   UNL     1      39.872 -12.884   1.046  1.00  0.00     0.060 C 
HETATM    5  C   UNL     1      39.733 -14.078   0.089  1.00  0.00     0.082 C 
HETATM    6  C   UNL     1      40.644 -15.189   0.643  1.00  0.00     0.252 C 
ENDROOT
BRANCH   3   7
HETATM    7  C   UNL     1      41.314 -12.434   3.202  1.00  0.00     0.253 C 
HETATM    8  N   UNL     1      42.592 -12.482   3.724  1.00  0.00    -0.325 N 
HETATM    9  H   UNL     1      43.337 -12.893   3.173  1.00  0.00     0.169 HD
HETATM   10  O   UNL     1      40.341 -11.904   3.735  1.00  0.00    -0.271 OA
BRANCH   8  11
HETATM   11  C   UNL     1      42.993 -12.031   5.008  1.00  0.00     0.037 A 
HETATM   12  C   UNL     1      42.812 -10.720   5.464  1.00  0.00     0.062 A 
HETATM   13  C   UNL     1      43.188 -10.357   6.778  1.00  0.00     0.077 A 
HETATM   14  C   UNL     1      43.757 -11.321   7.607  1.00  0.00     0.035 A 
HETATM   15  N   UNL     1      43.030  -9.105   7.344  1.00  0.00    -0.245 NA
HETATM   16  S   UNL     1      44.111 -10.606   9.132  1.00  0.00    -0.073 SA
HETATM   17  C   UNL     1      43.963 -12.637   7.171  1.00  0.00     0.023 A 
HETATM   18  C   UNL     1      43.464  -9.113   8.585  1.00  0.00     0.072 A 
HETATM   19  C   UNL     1      43.428  -7.929   9.487  1.00  0.00     0.079 C 
HETATM   20  C   UNL     1      43.565 -12.974   5.868  1.00  0.00     0.031 A 
ENDBRANCH   8  11
ENDBRANCH   3   7
BRANCH   1  21
HETATM   21  C   UNL     1      40.327 -15.369   3.170  1.00  0.00     0.274 C 
BRANCH  21  22
HETATM   22  C   UNL     1      41.148 -15.856   4.336  1.00  0.00    -0.030 A 
HETATM   23  C   UNL     1      40.704 -15.627   5.652  1.00  0.00     0.012 A 
HETATM   24  C   UNL     1      41.457 -16.060   6.740  1.00  0.00     0.040 A 
HETATM   25  C   UNL     1      42.654 -16.722   6.517  1.00  0.00     0.099 A 
HETATM   26  C   UNL     1      43.122 -16.969   5.225  1.00  0.00     0.102 A 
HETATM   27  C   UNL     1      42.352 -16.559   4.134  1.00  0.00     0.048 A 
BRANCH  25  28
HETATM   28  O   UNL     1      43.372 -17.129   7.608  1.00  0.00    -0.358 OA
HETATM   29  H   UNL     1      43.347 -16.382   8.238  1.00  0.00     0.218 HD
ENDBRANCH  25  28
BRANCH  26  30
HETATM   30  O   UNL     1      44.324 -17.621   5.163  1.00  0.00    -0.349 OA
BRANCH  30  31
HETATM   31  C   UNL     1      44.371 -18.824   4.396  1.00  0.00     0.171 C 
HETATM   32  C   UNL     1      44.038 -19.975   5.326  1.00  0.00     0.034 C 
ENDBRANCH  30  31
ENDBRANCH  26  30
ENDBRANCH  21  22
ENDBRANCH   1  21
BRANCH   5  33
HETATM   33  S   UNL     1      40.240 -13.582  -1.600  1.00  0.00    -0.104 SA
BRANCH  33  34
HETATM   34  C   UNL     1      38.790 -12.672  -2.116  1.00  0.00     0.093 A 
HETATM   35  N   UNL     1      38.843 -11.321  -2.047  1.00  0.00    -0.254 NA
HETATM   36  C   UNL     1      37.737 -10.646  -2.443  1.00  0.00     0.118 A 
HETATM   37  C   UNL     1      36.575 -11.257  -2.882  1.00  0.00     0.019 A 
HETATM   38  C   UNL     1      36.541 -12.644  -2.924  1.00  0.00     0.004 A 
HETATM   39  C   UNL     1      37.666 -13.368  -2.539  1.00  0.00     0.039 A 
ENDBRANCH  33  34
ENDBRANCH   5  33
TORSDOF 9
ENDMDL
MODEL 6
REMARK VINA RESULT:      -8.5      1.438      2.178
REMARK  9 active torsions:
REMARK  status: ('A' for Active; 'I' for Inactive)
REMARK    1  A    between atoms: C_2  and  O_3 
REMARK    2  A    between atoms: O_3  and  C_4 
REMARK    3  A    between atoms: C_5  and  O_6 
REMARK    4  A    between atoms: C_9  and  C_10 
REMARK    5  A    between atoms: C_10  and  N_11 
REMARK    6  A    between atoms: C_13  and  C_14 
REMARK       I    between atoms: C_14  and  N_15 
REMARK    7  A    between atoms: N_15  and  C_16 
REMARK    8  A    between atoms: C_28  and  S_29 
REMARK    9  A    between atoms: S_29  and  C_30 
ROOT
HETATM    1  N   UNL     1      41.058 -13.193   2.840  1.00  0.00    -0.053 N 
HETATM    2  H   UNL     1      42.078 -13.224   2.705  1.00  0.00     0.281 HD
HETATM    3  C   UNL     1      40.754 -11.776   3.350  1.00  0.00     0.281 C 
HETATM    4  C   UNL     1      39.314 -11.549   2.934  1.00  0.00     0.060 C 
HETATM    5  C   UNL     1      39.158 -12.308   1.608  1.00  0.00     0.082 C 
HETATM    6  C   UNL     1      40.378 -13.240   1.491  1.00  0.00     0.252 C 
ENDROOT
BRANCH   3   7
HETATM    7  C   UNL     1      41.164 -11.516   4.808  1.00  0.00     0.253 C 
HETATM    8  N   UNL     1      42.356 -10.843   4.988  1.00  0.00    -0.325 N 
HETATM    9  H   UNL     1      42.833 -10.454   4.183  1.00  0.00     0.169 HD
HETATM   10  O   UNL     1      40.455 -11.973   5.702  1.00  0.00    -0.271 OA
BRANCH   8  11
HETATM   11  C   UNL     1      43.036 -10.653   6.219  1.00  0.00     0.037 A 
HETATM   12  C   UNL     1      42.537  -9.877   7.272  1.00  0.00     0.062 A 
HETATM   13  C   UNL     1      43.244  -9.777   8.491  1.00  0.00     0.077 A 
HETATM   14  C   UNL     1      44.457 -10.450   8.624  1.00  0.00     0.035 A 
HETATM   15  N   UNL     1      42.835  -9.066   9.605  1.00  0.00    -0.245 NA
HETATM   16  S   UNL     1      45.090 -10.154  10.197  1.00  0.00    -0.073 SA
HETATM   17  C   UNL     1      44.987 -11.223   7.581  1.00  0.00     0.023 A 
HETATM   18  C   UNL     1      43.714  -9.199  10.574  1.00  0.00     0.072 A 
HETATM   19  C   UNL     1      43.574  -8.573  11.917  1.00  0.00     0.079 C 
HETATM   20  C   UNL     1      44.254 -11.317   6.388  1.00  0.00     0.031 A 
ENDBRANCH   8  11
ENDBRANCH   3   7
BRANCH   1  21
HETATM   21  C   UNL     1      40.785 -14.394   3.732  1.00  0.00     0.274 C 
BRANCH  21  22
HETATM   22  C   UNL     1      41.735 -15.559   3.632  1.00  0.00    -0.030 A 
HETATM   23  C   UNL     1      41.660 -16.435   2.533  1.00  0.00     0.012 A 
HETATM   24  C   UNL     1      42.522 -17.524   2.432  1.00  0.00     0.040 A 
HETATM   25  C   UNL     1      43.460 -17.741   3.428  1.00  0.00     0.099 A 
HETATM   26  C   UNL     1      43.564 -16.891   4.531  1.00  0.00     0.102 A 
HETATM   27  C   UNL     1      42.717 -15.783   4.617  1.00  0.00     0.048 A 
BRANCH  25  28
HETATM   28  O   UNL     1      44.288 -18.822   3.302  1.00  0.00    -0.358 OA
HETATM   29  H   UNL     1      43.997 -19.288   2.493  1.00  0.00     0.218 HD
ENDBRANCH  25  28
BRANCH  26  30
HETATM   30  O   UNL     1      44.528 -17.239   5.438  1.00  0.00    -0.349 OA
BRANCH  30  31
HETATM   31  C   UNL     1      44.751 -16.342   6.525  1.00  0.00     0.171 C 
HETATM   32  C   UNL     1      43.970 -16.862   7.718  1.00  0.00     0.034 C 
ENDBRANCH  30  31
ENDBRANCH  26  30
ENDBRANCH  21  22
ENDBRANCH   1  21
BRANCH   5  33
HETATM   33  S   UNL     1      39.092 -11.118   0.216  1.00  0.00    -0.104 SA
BRANCH  33  34
HETATM   34  C   UNL     1      38.973 -12.245  -1.165  1.00  0.00     0.093 A 
HETATM   35  N   UNL     1      40.123 -12.589  -1.792  1.00  0.00    -0.254 NA
HETATM   36  C   UNL     1      40.017 -13.445  -2.836  1.00  0.00     0.118 A 
HETATM   37  C   UNL     1      38.817 -13.955  -3.299  1.00  0.00     0.019 A 
HETATM   38  C   UNL     1      37.650 -13.570  -2.651  1.00  0.00     0.004 A 
HETATM   39  C   UNL     1      37.725 -12.703  -1.564  1.00  0.00     0.039 A 
ENDBRANCH  33  34
ENDBRANCH   5  33
TORSDOF 9
ENDMDL
MODEL 7
REMARK VINA RESULT:      -8.5      4.341      6.866
REMARK  9 active torsions:
REMARK  status: ('A' for Active; 'I' for Inactive)
REMARK    1  A    between atoms: C_2  and  O_3 
REMARK    2  A    between atoms: O_3  and  C_4 
REMARK    3  A    between atoms: C_5  and  O_6 
REMARK    4  A    between atoms: C_9  and  C_10 
REMARK    5  A    between atoms: C_10  and  N_11 
REMARK    6  A    between atoms: C_13  and  C_14 
REMARK       I    between atoms: C_14  and  N_15 
REMARK    7  A    between atoms: N_15  and  C_16 
REMARK    8  A    between atoms: C_28  and  S_29 
REMARK    9  A    between atoms: S_29  and  C_30 
ROOT
HETATM    1  N   UNL     1      42.634 -13.290   5.322  1.00  0.00    -0.053 N 
HETATM    2  H   UNL     1      42.997 -12.446   4.859  1.00  0.00     0.281 HD
HETATM    3  C   UNL     1      41.145 -13.354   4.950  1.00  0.00     0.281 C 
HETATM    4  C   UNL     1      40.811 -14.828   5.067  1.00  0.00     0.060 C 
HETATM    5  C   UNL     1      42.093 -15.562   4.644  1.00  0.00     0.082 C 
HETATM    6  C   UNL     1      43.220 -14.514   4.656  1.00  0.00     0.252 C 
ENDROOT
BRANCH   3   7
HETATM    7  C   UNL     1      40.257 -12.325   5.668  1.00  0.00     0.253 C 
HETATM    8  N   UNL     1      40.704 -11.019   5.639  1.00  0.00    -0.325 N 
HETATM    9  H   UNL     1      41.503 -10.780   5.062  1.00  0.00     0.169 HD
HETATM   10  O   UNL     1      39.265 -12.731   6.268  1.00  0.00    -0.271 OA
BRANCH   8  11
HETATM   11  C   UNL     1      40.171  -9.932   6.379  1.00  0.00     0.037 A 
HETATM   12  C   UNL     1      39.952  -9.964   7.761  1.00  0.00     0.062 A 
HETATM   13  C   UNL     1      39.468  -8.823   8.440  1.00  0.00     0.077 A 
HETATM   14  C   UNL     1      39.196  -7.669   7.710  1.00  0.00     0.035 A 
HETATM   15  N   UNL     1      39.243  -8.731   9.802  1.00  0.00    -0.245 NA
HETATM   16  S   UNL     1      38.627  -6.450   8.784  1.00  0.00    -0.073 SA
HETATM   17  C   UNL     1      39.392  -7.613   6.322  1.00  0.00     0.023 A 
HETATM   18  C   UNL     1      38.814  -7.526  10.108  1.00  0.00     0.072 A 
HETATM   19  C   UNL     1      38.487  -7.085  11.492  1.00  0.00     0.079 C 
HETATM   20  C   UNL     1      39.889  -8.756   5.677  1.00  0.00     0.031 A 
ENDBRANCH   8  11
ENDBRANCH   3   7
BRANCH   1  21
HETATM   21  C   UNL     1      43.045 -13.098   6.774  1.00  0.00     0.274 C 
BRANCH  21  22
HETATM   22  C   UNL     1      44.009 -11.982   7.078  1.00  0.00    -0.030 A 
HETATM   23  C   UNL     1      45.265 -11.946   6.444  1.00  0.00     0.012 A 
HETATM   24  C   UNL     1      46.173 -10.928   6.723  1.00  0.00     0.040 A 
HETATM   25  C   UNL     1      45.829  -9.944   7.636  1.00  0.00     0.099 A 
HETATM   26  C   UNL     1      44.590  -9.945   8.280  1.00  0.00     0.102 A 
HETATM   27  C   UNL     1      43.669 -10.952   7.978  1.00  0.00     0.048 A 
BRANCH  25  28
HETATM   28  O   UNL     1      46.745  -8.961   7.891  1.00  0.00    -0.358 OA
HETATM   29  H   UNL     1      46.230  -8.136   7.992  1.00  0.00     0.218 HD
ENDBRANCH  25  28
BRANCH  26  30
HETATM   30  O   UNL     1      44.398  -8.918   9.162  1.00  0.00    -0.349 OA
BRANCH  30  31
HETATM   31  C   UNL     1      43.066  -8.425   9.306  1.00  0.00     0.171 C 
HETATM   32  C   UNL     1      42.881  -7.298   8.308  1.00  0.00     0.034 C 
ENDBRANCH  30  31
ENDBRANCH  26  30
ENDBRANCH  21  22
ENDBRANCH   1  21
BRANCH   5  33
HETATM   33  S   UNL     1      41.872 -16.285   2.975  1.00  0.00    -0.104 SA
BRANCH  33  34
HETATM   34  C   UNL     1      42.774 -17.816   3.166  1.00  0.00     0.093 A 
HETATM   35  N   UNL     1      43.442 -18.007   4.328  1.00  0.00    -0.254 NA
HETATM   36  C   UNL     1      44.119 -19.173   4.458  1.00  0.00     0.118 A 
HETATM   37  C   UNL     1      44.181 -20.145   3.474  1.00  0.00     0.019 A 
HETATM   38  C   UNL     1      43.503 -19.914   2.284  1.00  0.00     0.004 A 
HETATM   39  C   UNL     1      42.784 -18.733   2.124  1.00  0.00     0.039 A 
ENDBRANCH  33  34
ENDBRANCH   5  33
TORSDOF 9
ENDMDL
MODEL 8
REMARK VINA RESULT:      -8.4      3.638      9.156
REMARK  9 active torsions:
REMARK  status: ('A' for Active; 'I' for Inactive)
REMARK    1  A    between atoms: C_2  and  O_3 
REMARK    2  A    between atoms: O_3  and  C_4 
REMARK    3  A    between atoms: C_5  and  O_6 
REMARK    4  A    between atoms: C_9  and  C_10 
REMARK    5  A    between atoms: C_10  and  N_11 
REMARK    6  A    between atoms: C_13  and  C_14 
REMARK       I    between atoms: C_14  and  N_15 
REMARK    7  A    between atoms: N_15  and  C_16 
REMARK    8  A    between atoms: C_28  and  S_29 
REMARK    9  A    between atoms: S_29  and  C_30 
ROOT
HETATM    1  N   UNL     1      41.571 -14.271   4.805  1.00  0.00    -0.053 N 
HETATM    2  H   UNL     1      41.873 -13.357   4.443  1.00  0.00     0.281 HD
HETATM    3  C   UNL     1      41.689 -15.240   3.618  1.00  0.00     0.281 C 
HETATM    4  C   UNL     1      41.876 -16.592   4.279  1.00  0.00     0.060 C 
HETATM    5  C   UNL     1      42.674 -16.303   5.559  1.00  0.00     0.082 C 
HETATM    6  C   UNL     1      42.601 -14.782   5.786  1.00  0.00     0.252 C 
ENDROOT
BRANCH   3   7
HETATM    7  C   UNL     1      40.605 -15.075   2.542  1.00  0.00     0.253 C 
HETATM    8  N   UNL     1      40.900 -14.195   1.519  1.00  0.00    -0.325 N 
HETATM    9  H   UNL     1      41.833 -13.803   1.455  1.00  0.00     0.169 HD
HETATM   10  O   UNL     1      39.540 -15.669   2.692  1.00  0.00    -0.271 OA
BRANCH   8  11
HETATM   11  C   UNL     1      40.001 -13.732   0.524  1.00  0.00     0.037 A 
HETATM   12  C   UNL     1      39.322 -12.510   0.596  1.00  0.00     0.062 A 
HETATM   13  C   UNL     1      38.483 -12.090  -0.461  1.00  0.00     0.077 A 
HETATM   14  C   UNL     1      38.328 -12.919  -1.570  1.00  0.00     0.035 A 
HETATM   15  N   UNL     1      37.787 -10.895  -0.511  1.00  0.00    -0.245 NA
HETATM   16  S   UNL     1      37.262 -12.161  -2.689  1.00  0.00    -0.073 SA
HETATM   17  C   UNL     1      38.985 -14.154  -1.662  1.00  0.00     0.023 A 
HETATM   18  C   UNL     1      37.120 -10.808  -1.641  1.00  0.00     0.072 A 
HETATM   19  C   UNL     1      36.276  -9.643  -2.022  1.00  0.00     0.079 C 
HETATM   20  C   UNL     1      39.825 -14.538  -0.605  1.00  0.00     0.031 A 
ENDBRANCH   8  11
ENDBRANCH   3   7
BRANCH   1  21
HETATM   21  C   UNL     1      40.207 -13.978   5.410  1.00  0.00     0.274 C 
BRANCH  21  22
HETATM   22  C   UNL     1      39.693 -12.566   5.305  1.00  0.00    -0.030 A 
HETATM   23  C   UNL     1      39.387 -12.022   4.043  1.00  0.00     0.012 A 
HETATM   24  C   UNL     1      38.923 -10.714   3.927  1.00  0.00     0.040 A 
HETATM   25  C   UNL     1      38.764  -9.947   5.070  1.00  0.00     0.099 A 
HETATM   26  C   UNL     1      39.055 -10.456   6.338  1.00  0.00     0.102 A 
HETATM   27  C   UNL     1      39.494 -11.777   6.455  1.00  0.00     0.048 A 
BRANCH  25  28
HETATM   28  O   UNL     1      38.312  -8.665   4.922  1.00  0.00    -0.358 OA
HETATM   29  H   UNL     1      37.939  -8.617   4.019  1.00  0.00     0.218 HD
ENDBRANCH  25  28
BRANCH  26  30
HETATM   30  O   UNL     1      38.861  -9.578   7.369  1.00  0.00    -0.349 OA
BRANCH  30  31
HETATM   31  C   UNL     1      39.135 -10.052   8.687  1.00  0.00     0.171 C 
HETATM   32  C   UNL     1      39.116  -8.856   9.620  1.00  0.00     0.034 C 
ENDBRANCH  30  31
ENDBRANCH  26  30
ENDBRANCH  21  22
ENDBRANCH   1  21
BRANCH   5  33
HETATM   33  S   UNL     1      44.405 -16.865   5.351  1.00  0.00    -0.104 SA
BRANCH  33  34
HETATM   34  C   UNL     1      44.137 -18.457   4.584  1.00  0.00     0.093 A 
HETATM   35  N   UNL     1      44.053 -19.535   5.398  1.00  0.00    -0.254 NA
HETATM   36  C   UNL     1      43.848 -20.735   4.802  1.00  0.00     0.118 A 
HETATM   37  C   UNL     1      43.749 -20.910   3.433  1.00  0.00     0.019 A 
HETATM   38  C   UNL     1      43.860 -19.790   2.620  1.00  0.00     0.004 A 
HETATM   39  C   UNL     1      44.054 -18.539   3.201  1.00  0.00     0.039 A 
ENDBRANCH  33  34
ENDBRANCH   5  33
TORSDOF 9
ENDMDL
MODEL 9
REMARK VINA RESULT:      -8.3      3.530      8.859
REMARK  9 active torsions:
REMARK  status: ('A' for Active; 'I' for Inactive)
REMARK    1  A    between atoms: C_2  and  O_3 
REMARK    2  A    between atoms: O_3  and  C_4 
REMARK    3  A    between atoms: C_5  and  O_6 
REMARK    4  A    between atoms: C_9  and  C_10 
REMARK    5  A    between atoms: C_10  and  N_11 
REMARK    6  A    between atoms: C_13  and  C_14 
REMARK       I    between atoms: C_14  and  N_15 
REMARK    7  A    between atoms: N_15  and  C_16 
REMARK    8  A    between atoms: C_28  and  S_29 
REMARK    9  A    between atoms: S_29  and  C_30 
ROOT
HETATM    1  N   UNL     1      40.449 -11.530   4.036  1.00  0.00    -0.053 N 
HETATM    2  H   UNL     1      41.179 -11.616   3.316  1.00  0.00     0.281 HD
HETATM    3  C   UNL     1      41.140 -11.880   5.363  1.00  0.00     0.281 C 
HETATM    4  C   UNL     1      40.307 -11.156   6.402  1.00  0.00     0.060 C 
HETATM    5  C   UNL     1      39.828  -9.874   5.705  1.00  0.00     0.082 C 
HETATM    6  C   UNL     1      40.083 -10.073   4.200  1.00  0.00     0.252 C 
ENDROOT
BRANCH   3   7
HETATM    7  C   UNL     1      41.445 -13.374   5.555  1.00  0.00     0.253 C 
HETATM    8  N   UNL     1      42.582 -13.843   4.926  1.00  0.00    -0.325 N 
HETATM    9  H   UNL     1      43.212 -13.184   4.484  1.00  0.00     0.169 HD
HETATM   10  O   UNL     1      40.640 -14.057   6.184  1.00  0.00    -0.271 OA
BRANCH   8  11
HETATM   11  C   UNL     1      42.970 -15.202   4.795  1.00  0.00     0.037 A 
HETATM   12  C   UNL     1      42.733 -15.972   3.650  1.00  0.00     0.062 A 
HETATM   13  C   UNL     1      43.196 -17.305   3.571  1.00  0.00     0.077 A 
HETATM   14  C   UNL     1      43.879 -17.847   4.657  1.00  0.00     0.035 A 
HETATM   15  N   UNL     1      43.046 -18.146   2.483  1.00  0.00    -0.245 NA
HETATM   16  S   UNL     1      44.322 -19.468   4.285  1.00  0.00    -0.073 SA
HETATM   17  C   UNL     1      44.118 -17.103   5.822  1.00  0.00     0.023 A 
HETATM   18  C   UNL     1      43.610 -19.308   2.731  1.00  0.00     0.072 A 
HETATM   19  C   UNL     1      43.643 -20.441   1.765  1.00  0.00     0.079 C 
HETATM   20  C   UNL     1      43.660 -15.777   5.866  1.00  0.00     0.031 A 
ENDBRANCH   8  11
ENDBRANCH   3   7
BRANCH   1  21
HETATM   21  C   UNL     1      39.328 -12.412   3.510  1.00  0.00     0.274 C 
BRANCH  21  22
HETATM   22  C   UNL     1      39.474 -12.955   2.112  1.00  0.00    -0.030 A 
HETATM   23  C   UNL     1      39.965 -14.258   1.913  1.00  0.00     0.012 A 
HETATM   24  C   UNL     1      40.118 -14.771   0.627  1.00  0.00     0.040 A 
HETATM   25  C   UNL     1      39.782 -13.982  -0.462  1.00  0.00     0.099 A 
HETATM   26  C   UNL     1      39.288 -12.686  -0.300  1.00  0.00     0.102 A 
HETATM   27  C   UNL     1      39.109 -12.184   0.991  1.00  0.00     0.048 A 
BRANCH  25  28
HETATM   28  O   UNL     1      39.948 -14.513  -1.711  1.00  0.00    -0.358 OA
HETATM   29  H   UNL     1      39.073 -14.460  -2.143  1.00  0.00     0.218 HD
ENDBRANCH  25  28
BRANCH  26  30
HETATM   30  O   UNL     1      39.012 -12.025  -1.466  1.00  0.00    -0.349 OA
BRANCH  30  31
HETATM   31  C   UNL     1      37.883 -11.152  -1.466  1.00  0.00     0.171 C 
HETATM   32  C   UNL     1      36.973 -11.577  -2.604  1.00  0.00     0.034 C 
ENDBRANCH  30  31
ENDBRANCH  26  30
ENDBRANCH  21  22
ENDBRANCH   1  21
BRANCH   5  33
HETATM   33  S   UNL     1      40.754  -8.433   6.354  1.00  0.00    -0.104 SA
BRANCH  33  34
HETATM   34  C   UNL     1      40.539  -8.676   8.111  1.00  0.00     0.093 A 
HETATM   35  N   UNL     1      41.636  -8.997   8.837  1.00  0.00    -0.254 NA
HETATM   36  C   UNL     1      41.457  -9.176  10.167  1.00  0.00     0.118 A 
HETATM   37  C   UNL     1      40.231  -9.074  10.803  1.00  0.00     0.019 A 
HETATM   38  C   UNL     1      39.119  -8.764  10.032  1.00  0.00     0.004 A 
HETATM   39  C   UNL     1      39.270  -8.558   8.663  1.00  0.00     0.039 A 
ENDBRANCH  33  34
ENDBRANCH   5  33
TORSDOF 9
ENDMDL
MODEL 10
REMARK VINA RESULT:      -8.1      3.696      8.982
REMARK  9 active torsions:
REMARK  status: ('A' for Active; 'I' for Inactive)
REMARK    1  A    between atoms: C_2  and  O_3 
REMARK    2  A    between atoms: O_3  and  C_4 
REMARK    3  A    between atoms: C_5  and  O_6 
REMARK    4  A    between atoms: C_9  and  C_10 
REMARK    5  A    between atoms: C_10  and  N_11 
REMARK    6  A    between atoms: C_13  and  C_14 
REMARK       I    between atoms: C_14  and  N_15 
REMARK    7  A    between atoms: N_15  and  C_16 
REMARK    8  A    between atoms: C_28  and  S_29 
REMARK    9  A    between atoms: S_29  and  C_30 
ROOT
HETATM    1  N   UNL     1      41.775 -13.988   5.228  1.00  0.00    -0.053 N 
HETATM    2  H   UNL     1      42.164 -13.059   5.439  1.00  0.00     0.281 HD
HETATM    3  C   UNL     1      42.320 -14.354   3.839  1.00  0.00     0.281 C 
HETATM    4  C   UNL     1      42.293 -15.870   3.835  1.00  0.00     0.060 C 
HETATM    5  C   UNL     1      42.588 -16.279   5.285  1.00  0.00     0.082 C 
HETATM    6  C   UNL     1      42.409 -15.011   6.141  1.00  0.00     0.252 C 
ENDROOT
BRANCH   3   7
HETATM    7  C   UNL     1      41.676 -13.589   2.673  1.00  0.00     0.253 C 
HETATM    8  N   UNL     1      40.532 -14.151   2.141  1.00  0.00    -0.325 N 
HETATM    9  H   UNL     1      40.110 -14.948   2.604  1.00  0.00     0.169 HD
HETATM   10  O   UNL     1      42.246 -12.585   2.250  1.00  0.00    -0.271 OA
BRANCH   8  11
HETATM   11  C   UNL     1      39.870 -13.745   0.954  1.00  0.00     0.037 A 
HETATM   12  C   UNL     1      39.134 -12.559   0.840  1.00  0.00     0.062 A 
HETATM   13  C   UNL     1      38.546 -12.193  -0.392  1.00  0.00     0.077 A 
HETATM   14  C   UNL     1      38.696 -13.038  -1.489  1.00  0.00     0.035 A 
HETATM   15  N   UNL     1      37.825 -11.036  -0.628  1.00  0.00    -0.245 NA
HETATM   16  S   UNL     1      37.886 -12.347  -2.841  1.00  0.00    -0.073 SA
HETATM   17  C   UNL     1      39.416 -14.238  -1.399  1.00  0.00     0.023 A 
HETATM   18  C   UNL     1      37.437 -10.994  -1.883  1.00  0.00     0.072 A 
HETATM   19  C   UNL     1      36.650  -9.878  -2.475  1.00  0.00     0.079 C 
HETATM   20  C   UNL     1      40.003 -14.569  -0.168  1.00  0.00     0.031 A 
ENDBRANCH   8  11
ENDBRANCH   3   7
BRANCH   1  21
HETATM   21  C   UNL     1      40.280 -13.796   5.429  1.00  0.00     0.274 C 
BRANCH  21  22
HETATM   22  C   UNL     1      39.778 -12.384   5.580  1.00  0.00    -0.030 A 
HETATM   23  C   UNL     1      39.764 -11.775   6.848  1.00  0.00     0.012 A 
HETATM   24  C   UNL     1      39.292 -10.475   7.008  1.00  0.00     0.040 A 
HETATM   25  C   UNL     1      38.832  -9.780   5.900  1.00  0.00     0.099 A 
HETATM   26  C   UNL     1      38.834 -10.352   4.626  1.00  0.00     0.102 A 
HETATM   27  C   UNL     1      39.334 -11.646   4.464  1.00  0.00     0.048 A 
BRANCH  25  28
HETATM   28  O   UNL     1      38.370  -8.507   6.091  1.00  0.00    -0.358 OA
HETATM   29  H   UNL     1      37.490  -8.476   5.665  1.00  0.00     0.218 HD
ENDBRANCH  25  28
BRANCH  26  30
HETATM   30  O   UNL     1      38.339  -9.550   3.634  1.00  0.00    -0.349 OA
BRANCH  30  31
HETATM   31  C   UNL     1      39.178  -9.324   2.502  1.00  0.00     0.171 C 
HETATM   32  C   UNL     1      40.257  -8.341   2.918  1.00  0.00     0.034 C 
ENDBRANCH  30  31
ENDBRANCH  26  30
ENDBRANCH  21  22
ENDBRANCH   1  21
BRANCH   5  33
HETATM   33  S   UNL     1      44.295 -16.933   5.411  1.00  0.00    -0.104 SA
BRANCH  33  34
HETATM   34  C   UNL     1      44.090 -18.522   4.620  1.00  0.00     0.093 A 
HETATM   35  N   UNL     1      44.068 -19.617   5.416  1.00  0.00    -0.254 NA
HETATM   36  C   UNL     1      43.910 -20.814   4.802  1.00  0.00     0.118 A 
HETATM   37  C   UNL     1      43.798 -20.971   3.431  1.00  0.00     0.019 A 
HETATM   38  C   UNL     1      43.844 -19.833   2.637  1.00  0.00     0.004 A 
HETATM   39  C   UNL     1      43.989 -18.585   3.237  1.00  0.00     0.039 A 
ENDBRANCH  33  34
ENDBRANCH   5  33
TORSDOF 9
ENDMDL
