MODEL 1
REMARK VINA RESULT:      -9.5      0.000      0.000
REMARK  5 active torsions:
REMARK  status: ('A' for Active; 'I' for Inactive)
REMARK    1  A    between atoms: C_2  and  C_3 
REMARK    2  A    between atoms: N_4  and  C_6 
REMARK    3  A    between atoms: C_6  and  C_7 
REMARK    4  A    between atoms: N_14  and  C_16 
REMARK    5  A    between atoms: C_16  and  C_17 
ROOT
HETATM    1  C   UNL     1      43.176 -11.851   4.438  1.00  0.00    -0.032 A 
HETATM    2  C   UNL     1      42.540 -13.111   4.497  1.00  0.00     0.020 A 
HETATM    3  C   UNL     1      41.611 -13.514   3.513  1.00  0.00     0.002 A 
HETATM    4  C   UNL     1      41.321 -12.626   2.475  1.00  0.00     0.076 A 
HETATM    5  O   UNL     1      40.389 -12.933   1.525  1.00  0.00    -0.349 OA
HETATM    6  C   UNL     1      40.860 -13.941   0.622  1.00  0.00     0.203 C 
HETATM    7  C   UNL     1      40.478 -15.336   1.116  1.00  0.00     0.262 C 
HETATM    8  N   UNL     1      41.234 -15.760   2.371  1.00  0.00    -0.061 N 
HETATM    9  H   UNL     1      40.824 -16.672   2.614  1.00  0.00     0.280 HD
HETATM   10  C   UNL     1      40.940 -14.863   3.559  1.00  0.00     0.276 C 
HETATM   11  C   UNL     1      41.930 -11.379   2.403  1.00  0.00     0.038 A 
HETATM   12  C   UNL     1      42.872 -11.005   3.361  1.00  0.00     0.011 A 
ENDROOT
BRANCH   1  13
HETATM   13  C   UNL     1      44.201 -11.441   5.477  1.00  0.00     0.274 C 
BRANCH  13  14
HETATM   14  N   UNL     1      43.714 -10.653   6.675  1.00  0.00    -0.053 N 
HETATM   15  C   UNL     1      44.347 -11.026   8.037  1.00  0.00     0.279 C 
HETATM   16  C   UNL     1      43.724 -10.280   9.249  1.00  0.00     0.248 C 
HETATM   17  N   UNL     1      42.466  -9.758   9.102  1.00  0.00    -0.358 N 
HETATM   18  O   UNL     1      44.284 -10.212  10.337  1.00  0.00    -0.271 OA
HETATM   19  C   UNL     1      41.812  -9.542   7.830  1.00  0.00     0.150 C 
HETATM   20  H   UNL     1      42.127  -9.259   9.924  1.00  0.00     0.162 HD
HETATM   21  C   UNL     1      42.195 -10.602   6.794  1.00  0.00     0.256 C 
HETATM   22  H   UNL     1      43.995  -9.680   6.502  1.00  0.00     0.281 HD
BRANCH  15  23
HETATM   23  C   UNL     1      45.873 -10.818   8.021  1.00  0.00     0.038 C 
HETATM   24  C   UNL     1      46.318  -9.365   7.888  1.00  0.00     0.007 C 
ENDBRANCH  15  23
ENDBRANCH  13  14
ENDBRANCH   1  13
BRANCH   8  25
HETATM   25  C   UNL     1      42.712 -16.020   2.189  1.00  0.00     0.274 C 
BRANCH  25  26
HETATM   26  C   UNL     1      43.238 -17.214   2.939  1.00  0.00    -0.029 A 
HETATM   27  C   UNL     1      43.272 -18.482   2.338  1.00  0.00     0.054 A 
HETATM   28  C   UNL     1      43.752 -19.581   3.051  1.00  0.00     0.155 A 
HETATM   29  F   UNL     1      43.774 -20.779   2.455  1.00  0.00    -0.203 F 
HETATM   30  C   UNL     1      44.200 -19.435   4.357  1.00  0.00     0.154 A 
HETATM   31  F   UNL     1      44.658 -20.492   5.039  1.00  0.00    -0.203 F 
HETATM   32  C   UNL     1      44.172 -18.187   4.969  1.00  0.00     0.046 A 
HETATM   33  C   UNL     1      43.693 -17.079   4.264  1.00  0.00     0.012 A 
ENDBRANCH  25  26
ENDBRANCH   8  25
TORSDOF 5
ENDMDL
MODEL 2
REMARK VINA RESULT:      -9.1      1.569      2.205
REMARK  5 active torsions:
REMARK  status: ('A' for Active; 'I' for Inactive)
REMARK    1  A    between atoms: C_2  and  C_3 
REMARK    2  A    between atoms: N_4  and  C_6 
REMARK    3  A    between atoms: C_6  and  C_7 
REMARK    4  A    between atoms: N_14  and  C_16 
REMARK    5  A    between atoms: C_16  and  C_17 
ROOT
HETATM    1  C   UNL     1      40.236 -12.098   4.798  1.00  0.00    -0.032 A 
HETATM    2  C   UNL     1      40.192 -13.401   4.256  1.00  0.00     0.020 A 
HETATM    3  C   UNL     1      39.868 -13.624   2.900  1.00  0.00     0.002 A 
HETATM    4  C   UNL     1      39.576 -12.518   2.100  1.00  0.00     0.076 A 
HETATM    5  O   UNL     1      39.199 -12.671   0.796  1.00  0.00    -0.349 OA
HETATM    6  C   UNL     1      40.298 -13.067  -0.033  1.00  0.00     0.203 C 
HETATM    7  C   UNL     1      40.391 -14.590  -0.124  1.00  0.00     0.262 C 
HETATM    8  N   UNL     1      40.823 -15.247   1.184  1.00  0.00    -0.061 N 
HETATM    9  H   UNL     1      40.772 -16.255   0.987  1.00  0.00     0.280 HD
HETATM   10  C   UNL     1      39.833 -15.011   2.309  1.00  0.00     0.276 C 
HETATM   11  C   UNL     1      39.607 -11.227   2.616  1.00  0.00     0.038 A 
HETATM   12  C   UNL     1      39.962 -11.017   3.948  1.00  0.00     0.011 A 
ENDROOT
BRANCH   1  13
HETATM   13  C   UNL     1      40.622 -11.864   6.245  1.00  0.00     0.274 C 
BRANCH  13  14
HETATM   14  N   UNL     1      41.793 -10.946   6.524  1.00  0.00    -0.053 N 
HETATM   15  C   UNL     1      43.143 -11.638   6.832  1.00  0.00     0.279 C 
HETATM   16  C   UNL     1      44.278 -10.657   7.235  1.00  0.00     0.248 C 
HETATM   17  N   UNL     1      43.921  -9.423   7.709  1.00  0.00    -0.358 N 
HETATM   18  O   UNL     1      45.462 -10.978   7.213  1.00  0.00    -0.271 OA
HETATM   19  C   UNL     1      42.611  -8.832   7.548  1.00  0.00     0.150 C 
HETATM   20  H   UNL     1      44.713  -8.820   7.931  1.00  0.00     0.162 HD
HETATM   21  C   UNL     1      41.495  -9.879   7.572  1.00  0.00     0.256 C 
HETATM   22  H   UNL     1      41.949 -10.420   5.654  1.00  0.00     0.281 HD
BRANCH  15  23
HETATM   23  C   UNL     1      43.602 -12.517   5.653  1.00  0.00     0.038 C 
HETATM   24  C   UNL     1      43.777 -11.774   4.332  1.00  0.00     0.007 C 
ENDBRANCH  15  23
ENDBRANCH  13  14
ENDBRANCH   1  13
BRANCH   8  25
HETATM   25  C   UNL     1      42.253 -14.992   1.604  1.00  0.00     0.274 C 
BRANCH  25  26
HETATM   26  C   UNL     1      42.837 -16.036   2.517  1.00  0.00    -0.029 A 
HETATM   27  C   UNL     1      43.087 -17.337   2.054  1.00  0.00     0.054 A 
HETATM   28  C   UNL     1      43.618 -18.296   2.917  1.00  0.00     0.155 A 
HETATM   29  F   UNL     1      43.848 -19.529   2.450  1.00  0.00    -0.203 F 
HETATM   30  C   UNL     1      43.902 -17.979   4.238  1.00  0.00     0.154 A 
HETATM   31  F   UNL     1      44.409 -18.902   5.064  1.00  0.00    -0.203 F 
HETATM   32  C   UNL     1      43.658 -16.696   4.714  1.00  0.00     0.046 A 
HETATM   33  C   UNL     1      43.127 -15.726   3.859  1.00  0.00     0.012 A 
ENDBRANCH  25  26
ENDBRANCH   8  25
TORSDOF 5
ENDMDL
MODEL 3
REMARK VINA RESULT:      -9.0      3.471      6.885
REMARK  5 active torsions:
REMARK  status: ('A' for Active; 'I' for Inactive)
REMARK    1  A    between atoms: C_2  and  C_3 
REMARK    2  A    between atoms: N_4  and  C_6 
REMARK    3  A    between atoms: C_6  and  C_7 
REMARK    4  A    between atoms: N_14  and  C_16 
REMARK    5  A    between atoms: C_16  and  C_17 
ROOT
HETATM    1  C   UNL     1      40.530 -11.953   1.693  1.00  0.00    -0.032 A 
HETATM    2  C   UNL     1      41.724 -12.424   2.283  1.00  0.00     0.020 A 
HETATM    3  C   UNL     1      41.725 -13.043   3.552  1.00  0.00     0.002 A 
HETATM    4  C   UNL     1      40.509 -13.169   4.226  1.00  0.00     0.076 A 
HETATM    5  O   UNL     1      40.450 -13.705   5.481  1.00  0.00    -0.349 OA
HETATM    6  C   UNL     1      40.668 -15.121   5.466  1.00  0.00     0.203 C 
HETATM    7  C   UNL     1      42.150 -15.447   5.647  1.00  0.00     0.262 C 
HETATM    8  N   UNL     1      43.005 -15.057   4.444  1.00  0.00    -0.061 N 
HETATM    9  H   UNL     1      43.966 -15.270   4.741  1.00  0.00     0.280 HD
HETATM   10  C   UNL     1      42.992 -13.562   4.182  1.00  0.00     0.276 C 
HETATM   11  C   UNL     1      39.323 -12.705   3.667  1.00  0.00     0.038 A 
HETATM   12  C   UNL     1      39.330 -12.127   2.398  1.00  0.00     0.011 A 
ENDROOT
BRANCH   1  13
HETATM   13  C   UNL     1      40.532 -11.325   0.314  1.00  0.00     0.274 C 
BRANCH  13  14
HETATM   14  N   UNL     1      39.475 -11.779  -0.670  1.00  0.00    -0.053 N 
HETATM   15  C   UNL     1      39.969 -12.668  -1.836  1.00  0.00     0.279 C 
HETATM   16  C   UNL     1      38.873 -13.001  -2.885  1.00  0.00     0.248 C 
HETATM   17  N   UNL     1      37.782 -12.176  -2.956  1.00  0.00    -0.358 N 
HETATM   18  O   UNL     1      38.989 -13.920  -3.689  1.00  0.00    -0.271 OA
HETATM   19  C   UNL     1      37.398 -11.236  -1.926  1.00  0.00     0.150 C 
HETATM   20  H   UNL     1      37.089 -12.464  -3.646  1.00  0.00     0.162 HD
HETATM   21  C   UNL     1      38.609 -10.642  -1.202  1.00  0.00     0.256 C 
HETATM   22  H   UNL     1      38.828 -12.370  -0.133  1.00  0.00     0.281 HD
BRANCH  15  23
HETATM   23  C   UNL     1      40.609 -13.969  -1.316  1.00  0.00     0.038 C 
HETATM   24  C   UNL     1      39.707 -14.811  -0.420  1.00  0.00     0.007 C 
ENDBRANCH  15  23
ENDBRANCH  13  14
ENDBRANCH   1  13
BRANCH   8  25
HETATM   25  C   UNL     1      42.781 -15.870   3.190  1.00  0.00     0.274 C 
BRANCH  25  26
HETATM   26  C   UNL     1      43.199 -17.312   3.291  1.00  0.00    -0.029 A 
HETATM   27  C   UNL     1      42.845 -18.235   2.295  1.00  0.00     0.054 A 
HETATM   28  C   UNL     1      43.231 -19.570   2.410  1.00  0.00     0.155 A 
HETATM   29  F   UNL     1      42.881 -20.430   1.445  1.00  0.00    -0.203 F 
HETATM   30  C   UNL     1      43.965 -20.003   3.506  1.00  0.00     0.154 A 
HETATM   31  F   UNL     1      44.331 -21.285   3.614  1.00  0.00    -0.203 F 
HETATM   32  C   UNL     1      44.322 -19.103   4.504  1.00  0.00     0.046 A 
HETATM   33  C   UNL     1      43.942 -17.762   4.399  1.00  0.00     0.012 A 
ENDBRANCH  25  26
ENDBRANCH   8  25
TORSDOF 5
ENDMDL
MODEL 4
REMARK VINA RESULT:      -8.8      3.763      7.745
REMARK  5 active torsions:
REMARK  status: ('A' for Active; 'I' for Inactive)
REMARK    1  A    between atoms: C_2  and  C_3 
REMARK    2  A    between atoms: N_4  and  C_6 
REMARK    3  A    between atoms: C_6  and  C_7 
REMARK    4  A    between atoms: N_14  and  C_16 
REMARK    5  A    between atoms: C_16  and  C_17 
ROOT
HETATM    1  C   UNL     1      41.721 -15.276   2.611  1.00  0.00    -0.032 A 
HETATM    2  C   UNL     1      42.613 -14.189   2.752  1.00  0.00     0.020 A 
HETATM    3  C   UNL     1      42.150 -12.856   2.793  1.00  0.00     0.002 A 
HETATM    4  C   UNL     1      40.777 -12.630   2.675  1.00  0.00     0.076 A 
HETATM    5  O   UNL     1      40.271 -11.362   2.648  1.00  0.00    -0.349 OA
HETATM    6  C   UNL     1      40.334 -10.736   3.936  1.00  0.00     0.203 C 
HETATM    7  C   UNL     1      41.641  -9.962   4.103  1.00  0.00     0.262 C 
HETATM    8  N   UNL     1      42.867 -10.865   4.211  1.00  0.00    -0.061 N 
HETATM    9  H   UNL     1      43.658 -10.209   4.247  1.00  0.00     0.280 HD
HETATM   10  C   UNL     1      43.093 -11.692   2.958  1.00  0.00     0.276 C 
HETATM   11  C   UNL     1      39.883 -13.684   2.528  1.00  0.00     0.038 A 
HETATM   12  C   UNL     1      40.349 -14.999   2.524  1.00  0.00     0.011 A 
ENDROOT
BRANCH   1  13
HETATM   13  C   UNL     1      42.223 -16.706   2.607  1.00  0.00     0.274 C 
BRANCH  13  14
HETATM   14  N   UNL     1      42.944 -17.204   3.842  1.00  0.00    -0.053 N 
HETATM   15  C   UNL     1      43.240 -18.722   3.891  1.00  0.00     0.279 C 
HETATM   16  C   UNL     1      43.865 -19.201   5.230  1.00  0.00     0.248 C 
HETATM   17  N   UNL     1      43.686 -18.415   6.338  1.00  0.00    -0.358 N 
HETATM   18  O   UNL     1      44.439 -20.279   5.339  1.00  0.00    -0.271 OA
HETATM   19  C   UNL     1      43.267 -17.032   6.302  1.00  0.00     0.150 C 
HETATM   20  H   UNL     1      44.143 -18.773   7.177  1.00  0.00     0.162 HD
HETATM   21  C   UNL     1      42.303 -16.747   5.148  1.00  0.00     0.256 C 
HETATM   22  H   UNL     1      43.865 -16.747   3.831  1.00  0.00     0.281 HD
BRANCH  15  23
HETATM   23  C   UNL     1      44.130 -19.157   2.712  1.00  0.00     0.038 C 
HETATM   24  C   UNL     1      43.572 -20.309   1.881  1.00  0.00     0.007 C 
ENDBRANCH  15  23
ENDBRANCH  13  14
ENDBRANCH   1  13
BRANCH   8  25
HETATM   25  C   UNL     1      42.967 -11.685   5.477  1.00  0.00     0.274 C 
BRANCH  25  26
HETATM   26  C   UNL     1      43.810 -11.071   6.560  1.00  0.00    -0.029 A 
HETATM   27  C   UNL     1      45.208 -11.202   6.544  1.00  0.00     0.054 A 
HETATM   28  C   UNL     1      45.975 -10.636   7.563  1.00  0.00     0.155 A 
HETATM   29  F   UNL     1      47.305 -10.776   7.523  1.00  0.00    -0.203 F 
HETATM   30  C   UNL     1      45.370  -9.941   8.600  1.00  0.00     0.154 A 
HETATM   31  F   UNL     1      46.109  -9.401   9.577  1.00  0.00    -0.203 F 
HETATM   32  C   UNL     1      43.987  -9.803   8.634  1.00  0.00     0.046 A 
HETATM   33  C   UNL     1      43.208 -10.365   7.618  1.00  0.00     0.012 A 
ENDBRANCH  25  26
ENDBRANCH   8  25
TORSDOF 5
ENDMDL
MODEL 5
REMARK VINA RESULT:      -8.7      1.620      2.684
REMARK  5 active torsions:
REMARK  status: ('A' for Active; 'I' for Inactive)
REMARK    1  A    between atoms: C_2  and  C_3 
REMARK    2  A    between atoms: N_4  and  C_6 
REMARK    3  A    between atoms: C_6  and  C_7 
REMARK    4  A    between atoms: N_14  and  C_16 
REMARK    5  A    between atoms: C_16  and  C_17 
ROOT
HETATM    1  C   UNL     1      43.414 -11.634   5.911  1.00  0.00    -0.032 A 
HETATM    2  C   UNL     1      42.931 -12.853   6.437  1.00  0.00     0.020 A 
HETATM    3  C   UNL     1      41.919 -13.589   5.782  1.00  0.00     0.002 A 
HETATM    4  C   UNL     1      41.389 -13.073   4.597  1.00  0.00     0.076 A 
HETATM    5  O   UNL     1      40.369 -13.706   3.947  1.00  0.00    -0.349 OA
HETATM    6  C   UNL     1      40.810 -14.909   3.306  1.00  0.00     0.203 C 
HETATM    7  C   UNL     1      40.653 -16.111   4.237  1.00  0.00     0.262 C 
HETATM    8  N   UNL     1      41.623 -16.092   5.416  1.00  0.00    -0.061 N 
HETATM    9  H   UNL     1      41.352 -16.911   5.975  1.00  0.00     0.280 HD
HETATM   10  C   UNL     1      41.408 -14.898   6.327  1.00  0.00     0.276 C 
HETATM   11  C   UNL     1      41.845 -11.871   4.067  1.00  0.00     0.038 A 
HETATM   12  C   UNL     1      42.870 -11.171   4.705  1.00  0.00     0.011 A 
ENDROOT
BRANCH   1  13
HETATM   13  C   UNL     1      44.527 -10.871   6.601  1.00  0.00     0.274 C 
BRANCH  13  14
HETATM   14  N   UNL     1      44.288 -10.404   8.021  1.00  0.00    -0.053 N 
HETATM   15  C   UNL     1      43.481  -9.093   8.179  1.00  0.00     0.279 C 
HETATM   16  C   UNL     1      43.374  -8.590   9.645  1.00  0.00     0.248 C 
HETATM   17  N   UNL     1      44.308  -9.031  10.544  1.00  0.00    -0.358 N 
HETATM   18  O   UNL     1      42.537  -7.766   9.997  1.00  0.00    -0.271 OA
HETATM   19  C   UNL     1      45.169 -10.174  10.335  1.00  0.00     0.150 C 
HETATM   20  H   UNL     1      44.166  -8.684  11.492  1.00  0.00     0.162 HD
HETATM   21  C   UNL     1      45.557 -10.348   8.865  1.00  0.00     0.256 C 
HETATM   22  H   UNL     1      43.714 -11.133   8.462  1.00  0.00     0.281 HD
BRANCH  15  23
HETATM   23  C   UNL     1      42.074  -9.226   7.566  1.00  0.00     0.038 C 
HETATM   24  C   UNL     1      41.719  -8.151   6.543  1.00  0.00     0.007 C 
ENDBRANCH  15  23
ENDBRANCH  13  14
ENDBRANCH   1  13
BRANCH   8  25
HETATM   25  C   UNL     1      43.079 -16.307   5.070  1.00  0.00     0.274 C 
BRANCH  25  26
HETATM   26  C   UNL     1      43.401 -17.670   4.521  1.00  0.00    -0.029 A 
HETATM   27  C   UNL     1      43.816 -18.707   5.372  1.00  0.00     0.054 A 
HETATM   28  C   UNL     1      44.122 -19.963   4.845  1.00  0.00     0.155 A 
HETATM   29  F   UNL     1      44.514 -20.934   5.678  1.00  0.00    -0.203 F 
HETATM   30  C   UNL     1      44.023 -20.201   3.482  1.00  0.00     0.154 A 
HETATM   31  F   UNL     1      44.320 -21.405   2.980  1.00  0.00    -0.203 F 
HETATM   32  C   UNL     1      43.617 -19.185   2.624  1.00  0.00     0.046 A 
HETATM   33  C   UNL     1      43.307 -17.923   3.140  1.00  0.00     0.012 A 
ENDBRANCH  25  26
ENDBRANCH   8  25
TORSDOF 5
ENDMDL
MODEL 6
REMARK VINA RESULT:      -8.6      1.229      1.976
REMARK  5 active torsions:
REMARK  status: ('A' for Active; 'I' for Inactive)
REMARK    1  A    between atoms: C_2  and  C_3 
REMARK    2  A    between atoms: N_4  and  C_6 
REMARK    3  A    between atoms: C_6  and  C_7 
REMARK    4  A    between atoms: N_14  and  C_16 
REMARK    5  A    between atoms: C_16  and  C_17 
ROOT
HETATM    1  C   UNL     1      41.586 -11.182   5.376  1.00  0.00    -0.032 A 
HETATM    2  C   UNL     1      41.211 -12.523   5.141  1.00  0.00     0.020 A 
HETATM    3  C   UNL     1      40.813 -12.962   3.859  1.00  0.00     0.002 A 
HETATM    4  C   UNL     1      40.785 -12.030   2.820  1.00  0.00     0.076 A 
HETATM    5  O   UNL     1      40.355 -12.378   1.572  1.00  0.00    -0.349 OA
HETATM    6  C   UNL     1      41.305 -13.208   0.893  1.00  0.00     0.203 C 
HETATM    7  C   UNL     1      41.018 -14.687   1.152  1.00  0.00     0.262 C 
HETATM    8  N   UNL     1      41.304 -15.115   2.588  1.00  0.00    -0.061 N 
HETATM    9  H   UNL     1      41.002 -16.097   2.621  1.00  0.00     0.280 HD
HETATM   10  C   UNL     1      40.426 -14.395   3.596  1.00  0.00     0.276 C 
HETATM   11  C   UNL     1      41.143 -10.703   3.033  1.00  0.00     0.038 A 
HETATM   12  C   UNL     1      41.568 -10.289   4.295  1.00  0.00     0.011 A 
ENDROOT
BRANCH   1  13
HETATM   13  C   UNL     1      42.049 -10.727   6.746  1.00  0.00     0.274 C 
BRANCH  13  14
HETATM   14  N   UNL     1      43.533 -10.768   7.039  1.00  0.00    -0.053 N 
HETATM   15  C   UNL     1      44.141  -9.488   7.661  1.00  0.00     0.279 C 
HETATM   16  C   UNL     1      45.685  -9.534   7.823  1.00  0.00     0.248 C 
HETATM   17  N   UNL     1      46.384 -10.417   7.044  1.00  0.00    -0.358 N 
HETATM   18  O   UNL     1      46.291  -8.765   8.560  1.00  0.00    -0.271 OA
HETATM   19  C   UNL     1      45.794 -11.535   6.342  1.00  0.00     0.150 C 
HETATM   20  H   UNL     1      47.389 -10.416   7.218  1.00  0.00     0.162 HD
HETATM   21  C   UNL     1      44.376 -11.231   5.855  1.00  0.00     0.256 C 
HETATM   22  H   UNL     1      43.658 -11.501   7.750  1.00  0.00     0.281 HD
BRANCH  15  23
HETATM   23  C   UNL     1      43.481  -9.155   9.012  1.00  0.00     0.038 C 
HETATM   24  C   UNL     1      43.666 -10.216  10.093  1.00  0.00     0.007 C 
ENDBRANCH  15  23
ENDBRANCH  13  14
ENDBRANCH   1  13
BRANCH   8  25
HETATM   25  C   UNL     1      42.761 -15.129   2.991  1.00  0.00     0.274 C 
BRANCH  25  26
HETATM   26  C   UNL     1      43.274 -16.465   3.454  1.00  0.00    -0.029 A 
HETATM   27  C   UNL     1      43.425 -17.529   2.551  1.00  0.00     0.054 A 
HETATM   28  C   UNL     1      43.891 -18.766   3.000  1.00  0.00     0.155 A 
HETATM   29  F   UNL     1      44.026 -19.763   2.118  1.00  0.00    -0.203 F 
HETATM   30  C   UNL     1      44.208 -18.959   4.337  1.00  0.00     0.154 A 
HETATM   31  F   UNL     1      44.652 -20.147   4.764  1.00  0.00    -0.203 F 
HETATM   32  C   UNL     1      44.063 -17.917   5.245  1.00  0.00     0.046 A 
HETATM   33  C   UNL     1      43.597 -16.673   4.808  1.00  0.00     0.012 A 
ENDBRANCH  25  26
ENDBRANCH   8  25
TORSDOF 5
ENDMDL
MODEL 7
REMARK VINA RESULT:      -8.5      3.553      6.467
REMARK  5 active torsions:
REMARK  status: ('A' for Active; 'I' for Inactive)
REMARK    1  A    between atoms: C_2  and  C_3 
REMARK    2  A    between atoms: N_4  and  C_6 
REMARK    3  A    between atoms: C_6  and  C_7 
REMARK    4  A    between atoms: N_14  and  C_16 
REMARK    5  A    between atoms: C_16  and  C_17 
ROOT
HETATM    1  C   UNL     1      43.031  -9.864  10.820  1.00  0.00    -0.032 A 
HETATM    2  C   UNL     1      42.673 -10.055   9.467  1.00  0.00     0.020 A 
HETATM    3  C   UNL     1      43.638 -10.016   8.437  1.00  0.00     0.002 A 
HETATM    4  C   UNL     1      44.967  -9.768   8.787  1.00  0.00     0.076 A 
HETATM    5  O   UNL     1      45.939  -9.660   7.833  1.00  0.00    -0.349 OA
HETATM    6  C   UNL     1      46.257 -10.930   7.250  1.00  0.00     0.203 C 
HETATM    7  C   UNL     1      45.397 -11.192   6.014  1.00  0.00     0.262 C 
HETATM    8  N   UNL     1      43.927 -11.436   6.342  1.00  0.00    -0.061 N 
HETATM    9  H   UNL     1      43.476 -11.525   5.422  1.00  0.00     0.280 HD
HETATM   10  C   UNL     1      43.268 -10.233   6.992  1.00  0.00     0.276 C 
HETATM   11  C   UNL     1      45.339  -9.571  10.112  1.00  0.00     0.038 A 
HETATM   12  C   UNL     1      44.382  -9.646  11.124  1.00  0.00     0.011 A 
ENDROOT
BRANCH   1  13
HETATM   13  C   UNL     1      41.994  -9.946  11.923  1.00  0.00     0.274 C 
BRANCH  13  14
HETATM   14  N   UNL     1      41.187  -8.702  12.227  1.00  0.00    -0.053 N 
HETATM   15  C   UNL     1      40.881  -8.437  13.720  1.00  0.00     0.279 C 
HETATM   16  C   UNL     1      39.944  -7.223  13.968  1.00  0.00     0.248 C 
HETATM   17  N   UNL     1      39.149  -6.806  12.934  1.00  0.00    -0.358 N 
HETATM   18  O   UNL     1      39.844  -6.683  15.064  1.00  0.00    -0.271 OA
HETATM   19  C   UNL     1      39.347  -7.172  11.549  1.00  0.00     0.150 C 
HETATM   20  H   UNL     1      38.578  -5.990  13.154  1.00  0.00     0.162 HD
HETATM   21  C   UNL     1      39.912  -8.586  11.397  1.00  0.00     0.256 C 
HETATM   22  H   UNL     1      41.768  -7.911  11.923  1.00  0.00     0.281 HD
BRANCH  15  23
HETATM   23  C   UNL     1      42.177  -8.275  14.536  1.00  0.00     0.038 C 
HETATM   24  C   UNL     1      43.151  -7.236  13.989  1.00  0.00     0.007 C 
ENDBRANCH  15  23
ENDBRANCH  13  14
ENDBRANCH   1  13
BRANCH   8  25
HETATM   25  C   UNL     1      43.622 -12.729   7.065  1.00  0.00     0.274 C 
BRANCH  25  26
HETATM   26  C   UNL     1      43.503 -13.935   6.175  1.00  0.00    -0.029 A 
HETATM   27  C   UNL     1      43.919 -15.200   6.619  1.00  0.00     0.054 A 
HETATM   28  C   UNL     1      43.812 -16.307   5.777  1.00  0.00     0.155 A 
HETATM   29  F   UNL     1      44.216 -17.502   6.225  1.00  0.00    -0.203 F 
HETATM   30  C   UNL     1      43.297 -16.173   4.494  1.00  0.00     0.154 A 
HETATM   31  F   UNL     1      43.199 -17.236   3.688  1.00  0.00    -0.203 F 
HETATM   32  C   UNL     1      42.883 -14.927   4.037  1.00  0.00     0.046 A 
HETATM   33  C   UNL     1      42.984 -13.811   4.872  1.00  0.00     0.012 A 
ENDBRANCH  25  26
ENDBRANCH   8  25
TORSDOF 5
ENDMDL
MODEL 8
REMARK VINA RESULT:      -8.5      4.305      8.370
REMARK  5 active torsions:
REMARK  status: ('A' for Active; 'I' for Inactive)
REMARK    1  A    between atoms: C_2  and  C_3 
REMARK    2  A    between atoms: N_4  and  C_6 
REMARK    3  A    between atoms: C_6  and  C_7 
REMARK    4  A    between atoms: N_14  and  C_16 
REMARK    5  A    between atoms: C_16  and  C_17 
ROOT
HETATM    1  C   UNL     1      41.013 -14.410   2.326  1.00  0.00    -0.032 A 
HETATM    2  C   UNL     1      40.948 -13.783   3.590  1.00  0.00     0.020 A 
HETATM    3  C   UNL     1      41.154 -14.509   4.783  1.00  0.00     0.002 A 
HETATM    4  C   UNL     1      41.413 -15.878   4.687  1.00  0.00     0.076 A 
HETATM    5  O   UNL     1      41.564 -16.647   5.805  1.00  0.00    -0.349 OA
HETATM    6  C   UNL     1      42.808 -16.388   6.467  1.00  0.00     0.203 C 
HETATM    7  C   UNL     1      42.647 -15.294   7.523  1.00  0.00     0.262 C 
HETATM    8  N   UNL     1      42.395 -13.912   6.926  1.00  0.00    -0.061 N 
HETATM    9  H   UNL     1      42.242 -13.311   7.746  1.00  0.00     0.280 HD
HETATM   10  C   UNL     1      41.101 -13.846   6.136  1.00  0.00     0.276 C 
HETATM   11  C   UNL     1      41.474 -16.515   3.453  1.00  0.00     0.038 A 
HETATM   12  C   UNL     1      41.304 -15.781   2.279  1.00  0.00     0.011 A 
ENDROOT
BRANCH   1  13
HETATM   13  C   UNL     1      40.829 -13.615   1.048  1.00  0.00     0.274 C 
BRANCH  13  14
HETATM   14  N   UNL     1      39.471 -12.997   0.791  1.00  0.00    -0.053 N 
HETATM   15  C   UNL     1      39.118 -12.720  -0.690  1.00  0.00     0.279 C 
HETATM   16  C   UNL     1      37.773 -11.970  -0.890  1.00  0.00     0.248 C 
HETATM   17  N   UNL     1      37.276 -11.253   0.166  1.00  0.00    -0.358 N 
HETATM   18  O   UNL     1      37.191 -11.941  -1.969  1.00  0.00    -0.271 OA
HETATM   19  C   UNL     1      37.709 -11.408   1.537  1.00  0.00     0.150 C 
HETATM   20  H   UNL     1      36.378 -10.807  -0.024  1.00  0.00     0.162 HD
HETATM   21  C   UNL     1      39.194 -11.761   1.640  1.00  0.00     0.256 C 
HETATM   22  H   UNL     1      38.783 -13.691   1.110  1.00  0.00     0.281 HD
BRANCH  15  23
HETATM   23  C   UNL     1      39.123 -14.019  -1.518  1.00  0.00     0.038 C 
HETATM   24  C   UNL     1      40.107 -14.030  -2.684  1.00  0.00     0.007 C 
ENDBRANCH  15  23
ENDBRANCH  13  14
ENDBRANCH   1  13
BRANCH   8  25
HETATM   25  C   UNL     1      43.561 -13.295   6.188  1.00  0.00     0.274 C 
BRANCH  25  26
HETATM   26  C   UNL     1      44.268 -12.197   6.933  1.00  0.00    -0.029 A 
HETATM   27  C   UNL     1      43.668 -11.579   8.042  1.00  0.00     0.054 A 
HETATM   28  C   UNL     1      44.333 -10.553   8.716  1.00  0.00     0.155 A 
HETATM   29  F   UNL     1      43.738  -9.981   9.769  1.00  0.00    -0.203 F 
HETATM   30  C   UNL     1      45.588 -10.132   8.300  1.00  0.00     0.154 A 
HETATM   31  F   UNL     1      46.221  -9.146   8.947  1.00  0.00    -0.203 F 
HETATM   32  C   UNL     1      46.197 -10.731   7.203  1.00  0.00     0.046 A 
HETATM   33  C   UNL     1      45.541 -11.759   6.520  1.00  0.00     0.012 A 
ENDBRANCH  25  26
ENDBRANCH   8  25
TORSDOF 5
ENDMDL
MODEL 9
REMARK VINA RESULT:      -8.5      1.927      3.085
REMARK  5 active torsions:
REMARK  status: ('A' for Active; 'I' for Inactive)
REMARK    1  A    between atoms: C_2  and  C_3 
REMARK    2  A    between atoms: N_4  and  C_6 
REMARK    3  A    between atoms: C_6  and  C_7 
REMARK    4  A    between atoms: N_14  and  C_16 
REMARK    5  A    between atoms: C_16  and  C_17 
ROOT
HETATM    1  C   UNL     1      39.696 -12.164   4.807  1.00  0.00    -0.032 A 
HETATM    2  C   UNL     1      39.796 -13.432   4.195  1.00  0.00     0.020 A 
HETATM    3  C   UNL     1      39.662 -13.589   2.798  1.00  0.00     0.002 A 
HETATM    4  C   UNL     1      39.411 -12.453   2.027  1.00  0.00     0.076 A 
HETATM    5  O   UNL     1      39.213 -12.545   0.679  1.00  0.00    -0.349 OA
HETATM    6  C   UNL     1      40.430 -12.835  -0.020  1.00  0.00     0.203 C 
HETATM    7  C   UNL     1      40.622 -14.343  -0.178  1.00  0.00     0.262 C 
HETATM    8  N   UNL     1      40.920 -15.055   1.138  1.00  0.00    -0.061 N 
HETATM    9  H   UNL     1      40.953 -16.050   0.882  1.00  0.00     0.280 HD
HETATM   10  C   UNL     1      39.782 -14.938   2.135  1.00  0.00     0.276 C 
HETATM   11  C   UNL     1      39.301 -11.196   2.610  1.00  0.00     0.038 A 
HETATM   12  C   UNL     1      39.471 -11.048   3.987  1.00  0.00     0.011 A 
ENDROOT
BRANCH   1  13
HETATM   13  C   UNL     1      39.880 -11.999   6.303  1.00  0.00     0.274 C 
BRANCH  13  14
HETATM   14  N   UNL     1      41.233 -11.539   6.801  1.00  0.00    -0.053 N 
HETATM   15  C   UNL     1      41.422 -10.009   6.945  1.00  0.00     0.279 C 
HETATM   16  C   UNL     1      42.864  -9.584   7.335  1.00  0.00     0.248 C 
HETATM   17  N   UNL     1      43.882 -10.463   7.080  1.00  0.00    -0.358 N 
HETATM   18  O   UNL     1      43.122  -8.474   7.787  1.00  0.00    -0.271 OA
HETATM   19  C   UNL     1      43.699 -11.870   6.800  1.00  0.00     0.150 C 
HETATM   20  H   UNL     1      44.799 -10.134   7.384  1.00  0.00     0.162 HD
HETATM   21  C   UNL     1      42.403 -12.145   6.033  1.00  0.00     0.256 C 
HETATM   22  H   UNL     1      41.324 -11.915   7.753  1.00  0.00     0.281 HD
BRANCH  15  23
HETATM   23  C   UNL     1      40.411  -9.413   7.943  1.00  0.00     0.038 C 
HETATM   24  C   UNL     1      39.428  -8.416   7.338  1.00  0.00     0.007 C 
ENDBRANCH  15  23
ENDBRANCH  13  14
ENDBRANCH   1  13
BRANCH   8  25
HETATM   25  C   UNL     1      42.268 -14.755   1.754  1.00  0.00     0.274 C 
BRANCH  25  26
HETATM   26  C   UNL     1      42.833 -15.861   2.603  1.00  0.00    -0.029 A 
HETATM   27  C   UNL     1      43.213 -15.624   3.933  1.00  0.00     0.054 A 
HETATM   28  C   UNL     1      43.746 -16.658   4.703  1.00  0.00     0.155 A 
HETATM   29  F   UNL     1      44.099 -16.405   5.969  1.00  0.00    -0.203 F 
HETATM   30  C   UNL     1      43.908 -17.928   4.167  1.00  0.00     0.154 A 
HETATM   31  F   UNL     1      44.422 -18.916   4.907  1.00  0.00    -0.203 F 
HETATM   32  C   UNL     1      43.539 -18.180   2.850  1.00  0.00     0.046 A 
HETATM   33  C   UNL     1      43.004 -17.152   2.069  1.00  0.00     0.012 A 
ENDBRANCH  25  26
ENDBRANCH   8  25
TORSDOF 5
ENDMDL
MODEL 10
REMARK VINA RESULT:      -8.4      2.281      2.975
REMARK  5 active torsions:
REMARK  status: ('A' for Active; 'I' for Inactive)
REMARK    1  A    between atoms: C_2  and  C_3 
REMARK    2  A    between atoms: N_4  and  C_6 
REMARK    3  A    between atoms: C_6  and  C_7 
REMARK    4  A    between atoms: N_14  and  C_16 
REMARK    5  A    between atoms: C_16  and  C_17 
ROOT
HETATM    1  C   UNL     1      42.690 -11.899   6.144  1.00  0.00    -0.032 A 
HETATM    2  C   UNL     1      43.158 -13.071   6.777  1.00  0.00     0.020 A 
HETATM    3  C   UNL     1      42.353 -14.227   6.877  1.00  0.00     0.002 A 
HETATM    4  C   UNL     1      41.064 -14.182   6.342  1.00  0.00     0.076 A 
HETATM    5  O   UNL     1      40.216 -15.246   6.457  1.00  0.00    -0.349 OA
HETATM    6  C   UNL     1      40.606 -16.333   5.607  1.00  0.00     0.203 C 
HETATM    7  C   UNL     1      41.539 -17.293   6.344  1.00  0.00     0.262 C 
HETATM    8  N   UNL     1      42.916 -16.699   6.627  1.00  0.00    -0.061 N 
HETATM    9  H   UNL     1      43.393 -17.425   7.177  1.00  0.00     0.280 HD
HETATM   10  C   UNL     1      42.851 -15.487   7.538  1.00  0.00     0.276 C 
HETATM   11  C   UNL     1      40.581 -13.037   5.720  1.00  0.00     0.038 A 
HETATM   12  C   UNL     1      41.398 -11.912   5.597  1.00  0.00     0.011 A 
ENDROOT
BRANCH   1  13
HETATM   13  C   UNL     1      43.574 -10.675   6.007  1.00  0.00     0.274 C 
BRANCH  13  14
HETATM   14  N   UNL     1      43.587  -9.683   7.150  1.00  0.00    -0.053 N 
HETATM   15  C   UNL     1      44.214 -10.179   8.475  1.00  0.00     0.279 C 
HETATM   16  C   UNL     1      44.088  -9.172   9.650  1.00  0.00     0.248 C 
HETATM   17  N   UNL     1      43.110  -8.216   9.573  1.00  0.00    -0.358 N 
HETATM   18  O   UNL     1      44.776  -9.253  10.662  1.00  0.00    -0.271 OA
HETATM   19  C   UNL     1      42.417  -7.850   8.358  1.00  0.00     0.150 C 
HETATM   20  H   UNL     1      43.098  -7.572  10.364  1.00  0.00     0.162 HD
HETATM   21  C   UNL     1      42.229  -9.042   7.415  1.00  0.00     0.256 C 
HETATM   22  H   UNL     1      44.185  -8.907   6.840  1.00  0.00     0.281 HD
BRANCH  15  23
HETATM   23  C   UNL     1      45.689 -10.577   8.281  1.00  0.00     0.038 C 
HETATM   24  C   UNL     1      46.610  -9.434   7.867  1.00  0.00     0.007 C 
ENDBRANCH  15  23
ENDBRANCH  13  14
ENDBRANCH   1  13
BRANCH   8  25
HETATM   25  C   UNL     1      43.792 -16.472   5.416  1.00  0.00     0.274 C 
BRANCH  25  26
HETATM   26  C   UNL     1      43.694 -17.537   4.359  1.00  0.00    -0.029 A 
HETATM   27  C   UNL     1      44.082 -18.858   4.631  1.00  0.00     0.054 A 
HETATM   28  C   UNL     1      43.995 -19.832   3.636  1.00  0.00     0.155 A 
HETATM   29  F   UNL     1      44.371 -21.084   3.922  1.00  0.00    -0.203 F 
HETATM   30  C   UNL     1      43.528 -19.508   2.369  1.00  0.00     0.154 A 
HETATM   31  F   UNL     1      43.449 -20.444   1.416  1.00  0.00    -0.203 F 
HETATM   32  C   UNL     1      43.142 -18.205   2.081  1.00  0.00     0.046 A 
HETATM   33  C   UNL     1      43.224 -17.220   3.070  1.00  0.00     0.012 A 
ENDBRANCH  25  26
ENDBRANCH   8  25
TORSDOF 5
ENDMDL
