MODEL 1
REMARK VINA RESULT:      -8.7      0.000      0.000
REMARK  9 active torsions:
REMARK  status: ('A' for Active; 'I' for Inactive)
REMARK    1  A    between atoms: O_2  and  C_3 
REMARK    2  A    between atoms: C_3  and  C_4 
REMARK    3  A    between atoms: C_4  and  O_5 
REMARK    4  A    between atoms: O_5  and  C_6 
REMARK       I    between atoms: C_6  and  N_8 
REMARK    5  A    between atoms: N_15  and  C_28 
REMARK    6  A    between atoms: N_18  and  C_19 
REMARK    7  A    between atoms: C_19  and  C_20 
REMARK    8  A    between atoms: C_24  and  O_25 
REMARK    9  A    between atoms: C_31  and  C_34 
ROOT
HETATM    1  C   UNL     1      44.790 -10.330   8.193  1.00  0.00     0.362 C 
HETATM    2  O   UNL     1      45.845 -10.829   8.567  1.00  0.00    -0.238 OA
HETATM    3  N   UNL     1      44.215 -10.573   6.938  1.00  0.00    -0.328 N 
HETATM    4  C   UNL     1      42.814 -10.227   6.728  1.00  0.00     0.130 C 
HETATM    5  C   UNL     1      42.329 -10.418   5.297  1.00  0.00     0.053 C 
HETATM    6  C   UNL     1      42.736 -11.766   4.672  1.00  0.00     0.057 C 
HETATM    7  C   UNL     1      44.249 -11.958   4.835  1.00  0.00     0.053 C 
HETATM    8  C   UNL     1      44.771 -11.724   6.242  1.00  0.00     0.130 C 
HETATM    9  C   UNL     1      42.404 -11.725   3.151  1.00  0.00     0.165 C 
HETATM   10  N   UNL     1      41.215 -12.532   2.975  1.00  0.00    -0.297 N 
HETATM   11  C   UNL     1      40.923 -13.227   4.160  1.00  0.00     0.326 C 
HETATM   12  O   UNL     1      40.029 -14.036   4.363  1.00  0.00    -0.247 OA
HETATM   13  N   UNL     1      41.885 -12.879   5.119  1.00  0.00    -0.318 N 
ENDROOT
BRANCH  13  14
HETATM   14  C   UNL     1      41.925 -13.570   6.403  1.00  0.00     0.167 C 
BRANCH  14  15
HETATM   15  C   UNL     1      42.615 -14.918   6.366  1.00  0.00    -0.037 A 
HETATM   16  C   UNL     1      42.986 -15.587   7.540  1.00  0.00     0.009 A 
HETATM   17  C   UNL     1      43.657 -16.808   7.478  1.00  0.00     0.003 A 
HETATM   18  C   UNL     1      43.963 -17.374   6.242  1.00  0.00     0.037 A 
HETATM   19  C   UNL     1      43.613 -16.723   5.061  1.00  0.00     0.068 A 
HETATM   20  C   UNL     1      42.969 -15.486   5.127  1.00  0.00     0.045 A 
BRANCH  19  21
HETATM   21  O   UNL     1      43.963 -17.379   3.913  1.00  0.00    -0.356 OA
HETATM   22  C   UNL     1      44.330 -18.748   4.048  1.00  0.00     0.210 C 
ENDBRANCH  19  21
ENDBRANCH  14  15
ENDBRANCH  13  14
BRANCH  10  23
HETATM   23  C   UNL     1      40.645 -12.778   1.692  1.00  0.00     0.039 A 
HETATM   24  C   UNL     1      39.677 -11.935   1.136  1.00  0.00     0.030 A 
HETATM   25  C   UNL     1      39.055 -12.236  -0.085  1.00  0.00     0.014 A 
HETATM   26  C   UNL     1      39.396 -13.387  -0.796  1.00  0.00    -0.023 A 
HETATM   27  C   UNL     1      40.395 -14.215  -0.276  1.00  0.00     0.014 A 
HETATM   28  C   UNL     1      41.006 -13.915   0.953  1.00  0.00     0.030 A 
BRANCH  26  29
HETATM   29  C   UNL     1      38.726 -13.729  -2.036  1.00  0.00     0.010 A 
HETATM   30  C   UNL     1      38.987 -14.744  -2.984  1.00  0.00     0.152 A 
HETATM   31  N   UNL     1      38.106 -14.751  -3.989  1.00  0.00    -0.187 NA
HETATM   32  N   UNL     1      37.276 -13.741  -3.686  1.00  0.00    -0.289 N 
HETATM   33  H   UNL     1      36.501 -13.550  -4.312  1.00  0.00     0.188 HD
HETATM   34  C   UNL     1      37.601 -13.099  -2.526  1.00  0.00     0.123 A 
ENDBRANCH  26  29
ENDBRANCH  10  23
BRANCH   1  35
HETATM   35  O   UNL     1      44.012  -9.541   8.983  1.00  0.00    -0.302 OA
BRANCH  35  36
HETATM   36  C   UNL     1      44.439  -9.426  10.348  1.00  0.00     0.207 C 
BRANCH  36  37
HETATM   37  C   UNL     1      43.376  -8.793  11.237  1.00  0.00     0.193 C 
BRANCH  37  38
HETATM   38  O   UNL     1      42.818  -9.808  12.072  1.00  0.00    -0.394 OA
HETATM   39  C   UNL     1      43.569 -11.013  12.013  1.00  0.00     0.201 C 
ENDBRANCH  37  38
ENDBRANCH  36  37
ENDBRANCH  35  36
ENDBRANCH   1  35
TORSDOF 9
ENDMDL
MODEL 2
REMARK VINA RESULT:      -8.3      2.610      6.665
REMARK  9 active torsions:
REMARK  status: ('A' for Active; 'I' for Inactive)
REMARK    1  A    between atoms: O_2  and  C_3 
REMARK    2  A    between atoms: C_3  and  C_4 
REMARK    3  A    between atoms: C_4  and  O_5 
REMARK    4  A    between atoms: O_5  and  C_6 
REMARK       I    between atoms: C_6  and  N_8 
REMARK    5  A    between atoms: N_15  and  C_28 
REMARK    6  A    between atoms: N_18  and  C_19 
REMARK    7  A    between atoms: C_19  and  C_20 
REMARK    8  A    between atoms: C_24  and  O_25 
REMARK    9  A    between atoms: C_31  and  C_34 
ROOT
HETATM    1  C   UNL     1      43.488 -18.156   5.429  1.00  0.00     0.362 C 
HETATM    2  O   UNL     1      43.302 -18.123   6.640  1.00  0.00    -0.238 OA
HETATM    3  N   UNL     1      42.644 -17.540   4.495  1.00  0.00    -0.328 N 
HETATM    4  C   UNL     1      43.131 -17.334   3.136  1.00  0.00     0.130 C 
HETATM    5  C   UNL     1      42.091 -16.772   2.175  1.00  0.00     0.053 C 
HETATM    6  C   UNL     1      41.299 -15.576   2.739  1.00  0.00     0.057 C 
HETATM    7  C   UNL     1      40.724 -15.957   4.109  1.00  0.00     0.053 C 
HETATM    8  C   UNL     1      41.727 -16.568   5.071  1.00  0.00     0.130 C 
HETATM    9  C   UNL     1      40.117 -15.268   1.774  1.00  0.00     0.165 C 
HETATM   10  N   UNL     1      40.492 -14.078   1.041  1.00  0.00    -0.297 N 
HETATM   11  C   UNL     1      41.649 -13.510   1.600  1.00  0.00     0.326 C 
HETATM   12  O   UNL     1      42.220 -12.479   1.278  1.00  0.00    -0.247 OA
HETATM   13  N   UNL     1      42.054 -14.316   2.675  1.00  0.00    -0.318 N 
ENDROOT
BRANCH  13  14
HETATM   14  C   UNL     1      43.141 -13.884   3.546  1.00  0.00     0.167 C 
BRANCH  14  15
HETATM   15  C   UNL     1      42.738 -12.866   4.594  1.00  0.00    -0.037 A 
HETATM   16  C   UNL     1      41.426 -12.383   4.684  1.00  0.00     0.009 A 
HETATM   17  C   UNL     1      41.090 -11.416   5.631  1.00  0.00     0.003 A 
HETATM   18  C   UNL     1      42.063 -10.921   6.498  1.00  0.00     0.037 A 
HETATM   19  C   UNL     1      43.377 -11.379   6.421  1.00  0.00     0.068 A 
HETATM   20  C   UNL     1      43.715 -12.325   5.451  1.00  0.00     0.045 A 
BRANCH  19  21
HETATM   21  O   UNL     1      44.237 -10.822   7.326  1.00  0.00    -0.356 OA
HETATM   22  C   UNL     1      45.624 -10.887   7.010  1.00  0.00     0.210 C 
ENDBRANCH  19  21
ENDBRANCH  14  15
ENDBRANCH  13  14
BRANCH  10  23
HETATM   23  C   UNL     1      39.622 -13.456   0.099  1.00  0.00     0.039 A 
HETATM   24  C   UNL     1      38.976 -12.245   0.371  1.00  0.00     0.030 A 
HETATM   25  C   UNL     1      38.050 -11.690  -0.524  1.00  0.00     0.014 A 
HETATM   26  C   UNL     1      37.753 -12.324  -1.730  1.00  0.00    -0.023 A 
HETATM   27  C   UNL     1      38.425 -13.511  -2.037  1.00  0.00     0.014 A 
HETATM   28  C   UNL     1      39.342 -14.069  -1.132  1.00  0.00     0.030 A 
BRANCH  26  29
HETATM   29  C   UNL     1      36.764 -11.780  -2.641  1.00  0.00     0.010 A 
HETATM   30  C   UNL     1      36.440 -10.445  -2.973  1.00  0.00     0.152 A 
HETATM   31  N   UNL     1      35.479 -10.360  -3.896  1.00  0.00    -0.187 NA
HETATM   32  N   UNL     1      35.185 -11.643  -4.162  1.00  0.00    -0.289 N 
HETATM   33  H   UNL     1      34.471 -11.840  -4.855  1.00  0.00     0.188 HD
HETATM   34  C   UNL     1      35.927 -12.532  -3.440  1.00  0.00     0.123 A 
ENDBRANCH  26  29
ENDBRANCH  10  23
BRANCH   1  35
HETATM   35  O   UNL     1      44.579 -18.729   4.852  1.00  0.00    -0.302 OA
BRANCH  35  36
HETATM   36  C   UNL     1      44.653 -20.157   4.963  1.00  0.00     0.207 C 
BRANCH  36  37
HETATM   37  C   UNL     1      43.559 -20.858   4.166  1.00  0.00     0.193 C 
BRANCH  37  38
HETATM   38  O   UNL     1      44.112 -21.297   2.924  1.00  0.00    -0.394 OA
HETATM   39  C   UNL     1      43.650 -20.514   1.833  1.00  0.00     0.201 C 
ENDBRANCH  37  38
ENDBRANCH  36  37
ENDBRANCH  35  36
ENDBRANCH   1  35
TORSDOF 9
ENDMDL
MODEL 3
REMARK VINA RESULT:      -8.1      3.199      9.995
REMARK  9 active torsions:
REMARK  status: ('A' for Active; 'I' for Inactive)
REMARK    1  A    between atoms: O_2  and  C_3 
REMARK    2  A    between atoms: C_3  and  C_4 
REMARK    3  A    between atoms: C_4  and  O_5 
REMARK    4  A    between atoms: O_5  and  C_6 
REMARK       I    between atoms: C_6  and  N_8 
REMARK    5  A    between atoms: N_15  and  C_28 
REMARK    6  A    between atoms: N_18  and  C_19 
REMARK    7  A    between atoms: C_19  and  C_20 
REMARK    8  A    between atoms: C_24  and  O_25 
REMARK    9  A    between atoms: C_31  and  C_34 
ROOT
HETATM    1  C   UNL     1      40.999 -12.031   2.065  1.00  0.00     0.362 C 
HETATM    2  O   UNL     1      40.398 -13.068   1.806  1.00  0.00    -0.238 OA
HETATM    3  N   UNL     1      41.080 -11.479   3.350  1.00  0.00    -0.328 N 
HETATM    4  C   UNL     1      42.092 -10.462   3.616  1.00  0.00     0.130 C 
HETATM    5  C   UNL     1      42.010  -9.843   5.005  1.00  0.00     0.053 C 
HETATM    6  C   UNL     1      41.850 -10.872   6.141  1.00  0.00     0.057 C 
HETATM    7  C   UNL     1      40.673 -11.801   5.815  1.00  0.00     0.053 C 
HETATM    8  C   UNL     1      40.701 -12.393   4.417  1.00  0.00     0.130 C 
HETATM    9  C   UNL     1      41.526 -10.107   7.458  1.00  0.00     0.165 C 
HETATM   10  N   UNL     1      42.741 -10.122   8.244  1.00  0.00    -0.297 N 
HETATM   11  C   UNL     1      43.683 -10.987   7.662  1.00  0.00     0.326 C 
HETATM   12  O   UNL     1      44.793 -11.286   8.075  1.00  0.00    -0.247 OA
HETATM   13  N   UNL     1      43.118 -11.526   6.497  1.00  0.00    -0.318 N 
ENDROOT
BRANCH  13  14
HETATM   14  C   UNL     1      43.811 -12.582   5.767  1.00  0.00     0.167 C 
BRANCH  14  15
HETATM   15  C   UNL     1      43.343 -13.984   6.100  1.00  0.00    -0.037 A 
HETATM   16  C   UNL     1      43.156 -14.403   7.424  1.00  0.00     0.009 A 
HETATM   17  C   UNL     1      42.764 -15.711   7.705  1.00  0.00     0.003 A 
HETATM   18  C   UNL     1      42.555 -16.616   6.665  1.00  0.00     0.037 A 
HETATM   19  C   UNL     1      42.744 -16.225   5.341  1.00  0.00     0.068 A 
HETATM   20  C   UNL     1      43.165 -14.923   5.066  1.00  0.00     0.045 A 
BRANCH  19  21
HETATM   21  O   UNL     1      42.504 -17.199   4.411  1.00  0.00    -0.356 OA
HETATM   22  C   UNL     1      42.036 -16.763   3.139  1.00  0.00     0.210 C 
ENDBRANCH  19  21
ENDBRANCH  14  15
ENDBRANCH  13  14
BRANCH  10  23
HETATM   23  C   UNL     1      42.808  -9.563   9.553  1.00  0.00     0.039 A 
HETATM   24  C   UNL     1      43.165 -10.328  10.669  1.00  0.00     0.030 A 
HETATM   25  C   UNL     1      43.137  -9.792  11.965  1.00  0.00     0.014 A 
HETATM   26  C   UNL     1      42.767  -8.464  12.182  1.00  0.00    -0.023 A 
HETATM   27  C   UNL     1      42.454  -7.675  11.072  1.00  0.00     0.014 A 
HETATM   28  C   UNL     1      42.471  -8.220   9.778  1.00  0.00     0.030 A 
BRANCH  26  29
HETATM   29  C   UNL     1      42.694  -7.915  13.523  1.00  0.00     0.010 A 
HETATM   30  C   UNL     1      41.863  -8.242  14.618  1.00  0.00     0.152 A 
HETATM   31  N   UNL     1      42.135  -7.519  15.707  1.00  0.00    -0.187 NA
HETATM   32  N   UNL     1      43.143  -6.725  15.313  1.00  0.00    -0.289 N 
HETATM   33  H   UNL     1      43.535  -6.075  15.986  1.00  0.00     0.188 HD
HETATM   34  C   UNL     1      43.518  -6.925  14.017  1.00  0.00     0.123 A 
ENDBRANCH  26  29
ENDBRANCH  10  23
BRANCH   1  35
HETATM   35  O   UNL     1      41.724 -11.335   1.147  1.00  0.00    -0.302 OA
BRANCH  35  36
HETATM   36  C   UNL     1      41.033 -11.019  -0.070  1.00  0.00     0.207 C 
BRANCH  36  37
HETATM   37  C   UNL     1      41.144  -9.543  -0.432  1.00  0.00     0.193 C 
BRANCH  37  38
HETATM   38  O   UNL     1      42.526  -9.216  -0.589  1.00  0.00    -0.394 OA
HETATM   39  C   UNL     1      42.721  -8.197  -1.558  1.00  0.00     0.201 C 
ENDBRANCH  37  38
ENDBRANCH  36  37
ENDBRANCH  35  36
ENDBRANCH   1  35
TORSDOF 9
ENDMDL
MODEL 4
REMARK VINA RESULT:      -8.0      2.851      9.655
REMARK  9 active torsions:
REMARK  status: ('A' for Active; 'I' for Inactive)
REMARK    1  A    between atoms: O_2  and  C_3 
REMARK    2  A    between atoms: C_3  and  C_4 
REMARK    3  A    between atoms: C_4  and  O_5 
REMARK    4  A    between atoms: O_5  and  C_6 
REMARK       I    between atoms: C_6  and  N_8 
REMARK    5  A    between atoms: N_15  and  C_28 
REMARK    6  A    between atoms: N_18  and  C_19 
REMARK    7  A    between atoms: C_19  and  C_20 
REMARK    8  A    between atoms: C_24  and  O_25 
REMARK    9  A    between atoms: C_31  and  C_34 
ROOT
HETATM    1  C   UNL     1      39.858 -13.607  -0.563  1.00  0.00     0.362 C 
HETATM    2  O   UNL     1      39.552 -14.777  -0.762  1.00  0.00    -0.238 OA
HETATM    3  N   UNL     1      39.999 -13.046   0.713  1.00  0.00    -0.328 N 
HETATM    4  C   UNL     1      40.699 -11.773   0.848  1.00  0.00     0.130 C 
HETATM    5  C   UNL     1      40.684 -11.195   2.257  1.00  0.00     0.053 C 
HETATM    6  C   UNL     1      41.035 -12.217   3.356  1.00  0.00     0.057 C 
HETATM    7  C   UNL     1      40.144 -13.455   3.194  1.00  0.00     0.053 C 
HETATM    8  C   UNL     1      40.098 -14.023   1.787  1.00  0.00     0.130 C 
HETATM    9  C   UNL     1      40.738 -11.572   4.742  1.00  0.00     0.165 C 
HETATM   10  N   UNL     1      42.023 -11.220   5.308  1.00  0.00    -0.297 N 
HETATM   11  C   UNL     1      43.059 -11.771   4.536  1.00  0.00     0.326 C 
HETATM   12  O   UNL     1      44.263 -11.725   4.740  1.00  0.00    -0.247 OA
HETATM   13  N   UNL     1      42.481 -12.462   3.462  1.00  0.00    -0.318 N 
ENDROOT
BRANCH  13  14
HETATM   14  C   UNL     1      43.313 -13.271   2.577  1.00  0.00     0.167 C 
BRANCH  14  15
HETATM   15  C   UNL     1      43.242 -14.761   2.841  1.00  0.00    -0.037 A 
HETATM   16  C   UNL     1      43.314 -15.697   1.801  1.00  0.00     0.009 A 
HETATM   17  C   UNL     1      43.206 -17.062   2.066  1.00  0.00     0.003 A 
HETATM   18  C   UNL     1      43.024 -17.506   3.375  1.00  0.00     0.037 A 
HETATM   19  C   UNL     1      42.940 -16.594   4.425  1.00  0.00     0.068 A 
HETATM   20  C   UNL     1      43.019 -15.227   4.151  1.00  0.00     0.045 A 
BRANCH  19  21
HETATM   21  O   UNL     1      42.766 -17.150   5.662  1.00  0.00    -0.356 OA
HETATM   22  C   UNL     1      43.572 -18.283   5.971  1.00  0.00     0.210 C 
ENDBRANCH  19  21
ENDBRANCH  14  15
ENDBRANCH  13  14
BRANCH  10  23
HETATM   23  C   UNL     1      42.152 -10.656   6.611  1.00  0.00     0.039 A 
HETATM   24  C   UNL     1      41.196  -9.783   7.141  1.00  0.00     0.030 A 
HETATM   25  C   UNL     1      41.378  -9.161   8.385  1.00  0.00     0.014 A 
HETATM   26  C   UNL     1      42.521  -9.408   9.146  1.00  0.00    -0.023 A 
HETATM   27  C   UNL     1      43.463 -10.314   8.651  1.00  0.00     0.014 A 
HETATM   28  C   UNL     1      43.281 -10.925   7.400  1.00  0.00     0.030 A 
BRANCH  26  29
HETATM   29  C   UNL     1      42.739  -8.736  10.413  1.00  0.00     0.010 A 
HETATM   30  C   UNL     1      43.702  -8.948  11.425  1.00  0.00     0.152 A 
HETATM   31  N   UNL     1      43.589  -8.082  12.436  1.00  0.00    -0.187 NA
HETATM   32  N   UNL     1      42.554  -7.309  12.072  1.00  0.00    -0.289 N 
HETATM   33  H   UNL     1      42.276  -6.554  12.691  1.00  0.00     0.188 HD
HETATM   34  C   UNL     1      42.012  -7.655  10.869  1.00  0.00     0.123 A 
ENDBRANCH  26  29
ENDBRANCH  10  23
BRANCH   1  35
HETATM   35  O   UNL     1      40.174 -12.734  -1.559  1.00  0.00    -0.302 OA
BRANCH  35  36
HETATM   36  C   UNL     1      39.391 -12.857  -2.754  1.00  0.00     0.207 C 
BRANCH  36  37
HETATM   37  C   UNL     1      37.910 -12.596  -2.506  1.00  0.00     0.193 C 
BRANCH  37  38
HETATM   38  O   UNL     1      37.162 -13.696  -3.027  1.00  0.00    -0.394 OA
HETATM   39  C   UNL     1      37.993 -14.627  -3.705  1.00  0.00     0.201 C 
ENDBRANCH  37  38
ENDBRANCH  36  37
ENDBRANCH  35  36
ENDBRANCH   1  35
TORSDOF 9
ENDMDL
MODEL 5
REMARK VINA RESULT:      -7.9      2.224      3.159
REMARK  9 active torsions:
REMARK  status: ('A' for Active; 'I' for Inactive)
REMARK    1  A    between atoms: O_2  and  C_3 
REMARK    2  A    between atoms: C_3  and  C_4 
REMARK    3  A    between atoms: C_4  and  O_5 
REMARK    4  A    between atoms: O_5  and  C_6 
REMARK       I    between atoms: C_6  and  N_8 
REMARK    5  A    between atoms: N_15  and  C_28 
REMARK    6  A    between atoms: N_18  and  C_19 
REMARK    7  A    between atoms: C_19  and  C_20 
REMARK    8  A    between atoms: C_24  and  O_25 
REMARK    9  A    between atoms: C_31  and  C_34 
ROOT
HETATM    1  C   UNL     1      44.304 -11.425   6.790  1.00  0.00     0.362 C 
HETATM    2  O   UNL     1      45.424 -11.923   6.764  1.00  0.00    -0.238 OA
HETATM    3  N   UNL     1      43.527 -11.197   5.646  1.00  0.00    -0.328 N 
HETATM    4  C   UNL     1      42.100 -10.939   5.806  1.00  0.00     0.130 C 
HETATM    5  C   UNL     1      41.378 -10.583   4.513  1.00  0.00     0.053 C 
HETATM    6  C   UNL     1      41.712 -11.515   3.333  1.00  0.00     0.057 C 
HETATM    7  C   UNL     1      43.236 -11.603   3.178  1.00  0.00     0.053 C 
HETATM    8  C   UNL     1      43.988 -11.906   4.462  1.00  0.00     0.130 C 
HETATM    9  C   UNL     1      41.118 -10.897   2.033  1.00  0.00     0.165 C 
HETATM   10  N   UNL     1      39.942 -11.679   1.714  1.00  0.00    -0.297 N 
HETATM   11  C   UNL     1      39.883 -12.819   2.532  1.00  0.00     0.326 C 
HETATM   12  O   UNL     1      39.065 -13.727   2.510  1.00  0.00    -0.247 OA
HETATM   13  N   UNL     1      40.987 -12.793   3.397  1.00  0.00    -0.318 N 
ENDROOT
BRANCH  13  14
HETATM   14  C   UNL     1      41.273 -13.936   4.257  1.00  0.00     0.167 C 
BRANCH  14  15
HETATM   15  C   UNL     1      42.100 -15.022   3.599  1.00  0.00    -0.037 A 
HETATM   16  C   UNL     1      42.314 -15.048   2.215  1.00  0.00     0.009 A 
HETATM   17  C   UNL     1      43.044 -16.082   1.630  1.00  0.00     0.003 A 
HETATM   18  C   UNL     1      43.568 -17.102   2.422  1.00  0.00     0.037 A 
HETATM   19  C   UNL     1      43.360 -17.103   3.800  1.00  0.00     0.068 A 
HETATM   20  C   UNL     1      42.603 -16.082   4.378  1.00  0.00     0.045 A 
BRANCH  19  21
HETATM   21  O   UNL     1      43.927 -18.152   4.470  1.00  0.00    -0.356 OA
HETATM   22  C   UNL     1      43.581 -18.292   5.844  1.00  0.00     0.210 C 
ENDBRANCH  19  21
ENDBRANCH  14  15
ENDBRANCH  13  14
BRANCH  10  23
HETATM   23  C   UNL     1      39.164 -11.442   0.544  1.00  0.00     0.039 A 
HETATM   24  C   UNL     1      39.700 -11.570  -0.742  1.00  0.00     0.030 A 
HETATM   25  C   UNL     1      38.953 -11.245  -1.884  1.00  0.00     0.014 A 
HETATM   26  C   UNL     1      37.637 -10.795  -1.773  1.00  0.00    -0.023 A 
HETATM   27  C   UNL     1      37.073 -10.706  -0.498  1.00  0.00     0.014 A 
HETATM   28  C   UNL     1      37.829 -11.022   0.643  1.00  0.00     0.030 A 
BRANCH  26  29
HETATM   29  C   UNL     1      36.873 -10.414  -2.946  1.00  0.00     0.010 A 
HETATM   30  C   UNL     1      37.084  -9.397  -3.904  1.00  0.00     0.152 A 
HETATM   31  N   UNL     1      36.159  -9.394  -4.868  1.00  0.00    -0.187 NA
HETATM   32  N   UNL     1      35.352 -10.413  -4.531  1.00  0.00    -0.289 N 
HETATM   33  H   UNL     1      34.560 -10.618  -5.130  1.00  0.00     0.188 HD
HETATM   34  C   UNL     1      35.736 -11.058  -3.392  1.00  0.00     0.123 A 
ENDBRANCH  26  29
ENDBRANCH  10  23
BRANCH   1  35
HETATM   35  O   UNL     1      43.652 -11.105   7.941  1.00  0.00    -0.302 OA
BRANCH  35  36
HETATM   36  C   UNL     1      44.377 -10.255   8.841  1.00  0.00     0.207 C 
BRANCH  36  37
HETATM   37  C   UNL     1      44.079  -8.779   8.611  1.00  0.00     0.193 C 
BRANCH  37  38
HETATM   38  O   UNL     1      45.288  -8.127   8.217  1.00  0.00    -0.394 OA
HETATM   39  C   UNL     1      46.405  -9.002   8.283  1.00  0.00     0.201 C 
ENDBRANCH  37  38
ENDBRANCH  36  37
ENDBRANCH  35  36
ENDBRANCH   1  35
TORSDOF 9
ENDMDL
MODEL 6
REMARK VINA RESULT:      -7.8      3.419      6.856
REMARK  9 active torsions:
REMARK  status: ('A' for Active; 'I' for Inactive)
REMARK    1  A    between atoms: O_2  and  C_3 
REMARK    2  A    between atoms: C_3  and  C_4 
REMARK    3  A    between atoms: C_4  and  O_5 
REMARK    4  A    between atoms: O_5  and  C_6 
REMARK       I    between atoms: C_6  and  N_8 
REMARK    5  A    between atoms: N_15  and  C_28 
REMARK    6  A    between atoms: N_18  and  C_19 
REMARK    7  A    between atoms: C_19  and  C_20 
REMARK    8  A    between atoms: C_24  and  O_25 
REMARK    9  A    between atoms: C_31  and  C_34 
ROOT
HETATM    1  C   UNL     1      39.811  -8.176   7.226  1.00  0.00     0.362 C 
HETATM    2  O   UNL     1      38.692  -7.738   6.980  1.00  0.00    -0.238 OA
HETATM    3  N   UNL     1      40.219  -9.482   6.925  1.00  0.00    -0.328 N 
HETATM    4  C   UNL     1      41.645  -9.791   6.928  1.00  0.00     0.130 C 
HETATM    5  C   UNL     1      41.968 -11.263   6.711  1.00  0.00     0.053 C 
HETATM    6  C   UNL     1      41.195 -11.910   5.546  1.00  0.00     0.057 C 
HETATM    7  C   UNL     1      39.697 -11.632   5.723  1.00  0.00     0.053 C 
HETATM    8  C   UNL     1      39.348 -10.179   5.991  1.00  0.00     0.130 C 
HETATM    9  C   UNL     1      41.422 -13.449   5.597  1.00  0.00     0.165 C 
HETATM   10  N   UNL     1      42.356 -13.755   4.534  1.00  0.00    -0.297 N 
HETATM   11  C   UNL     1      42.546 -12.629   3.717  1.00  0.00     0.326 C 
HETATM   12  O   UNL     1      43.220 -12.532   2.703  1.00  0.00    -0.247 OA
HETATM   13  N   UNL     1      41.769 -11.581   4.233  1.00  0.00    -0.318 N 
ENDROOT
BRANCH  13  14
HETATM   14  C   UNL     1      41.645 -10.328   3.496  1.00  0.00     0.167 C 
BRANCH  14  15
HETATM   15  C   UNL     1      40.879 -10.442   2.193  1.00  0.00    -0.037 A 
HETATM   16  C   UNL     1      41.469 -10.123   0.962  1.00  0.00     0.009 A 
HETATM   17  C   UNL     1      40.730 -10.197  -0.218  1.00  0.00     0.003 A 
HETATM   18  C   UNL     1      39.393 -10.590  -0.180  1.00  0.00     0.037 A 
HETATM   19  C   UNL     1      38.782 -10.902   1.033  1.00  0.00     0.068 A 
HETATM   20  C   UNL     1      39.517 -10.797   2.215  1.00  0.00     0.045 A 
BRANCH  19  21
HETATM   21  O   UNL     1      37.470 -11.277   0.940  1.00  0.00    -0.356 OA
HETATM   22  C   UNL     1      36.530 -10.245   0.663  1.00  0.00     0.210 C 
ENDBRANCH  19  21
ENDBRANCH  14  15
ENDBRANCH  13  14
BRANCH  10  23
HETATM   23  C   UNL     1      42.758 -15.089   4.234  1.00  0.00     0.039 A 
HETATM   24  C   UNL     1      42.377 -15.731   3.051  1.00  0.00     0.030 A 
HETATM   25  C   UNL     1      42.699 -17.074   2.807  1.00  0.00     0.014 A 
HETATM   26  C   UNL     1      43.430 -17.814   3.738  1.00  0.00    -0.023 A 
HETATM   27  C   UNL     1      43.858 -17.173   4.904  1.00  0.00     0.014 A 
HETATM   28  C   UNL     1      43.522 -15.831   5.148  1.00  0.00     0.030 A 
BRANCH  26  29
HETATM   29  C   UNL     1      43.730 -19.215   3.514  1.00  0.00     0.010 A 
HETATM   30  C   UNL     1      43.696 -19.997   2.338  1.00  0.00     0.152 A 
HETATM   31  N   UNL     1      44.083 -21.259   2.544  1.00  0.00    -0.187 NA
HETATM   32  N   UNL     1      44.369 -21.289   3.855  1.00  0.00    -0.289 N 
HETATM   33  H   UNL     1      44.700 -22.160   4.256  1.00  0.00     0.188 HD
HETATM   34  C   UNL     1      44.178 -20.091   4.481  1.00  0.00     0.123 A 
ENDBRANCH  26  29
ENDBRANCH  10  23
BRANCH   1  35
HETATM   35  O   UNL     1      40.814  -7.419   7.749  1.00  0.00    -0.302 OA
BRANCH  35  36
HETATM   36  C   UNL     1      40.460  -6.644   8.903  1.00  0.00     0.207 C 
BRANCH  36  37
HETATM   37  C   UNL     1      40.749  -7.379  10.206  1.00  0.00     0.193 C 
BRANCH  37  38
HETATM   38  O   UNL     1      41.944  -8.144  10.041  1.00  0.00    -0.394 OA
HETATM   39  C   UNL     1      41.857  -9.407  10.685  1.00  0.00     0.201 C 
ENDBRANCH  37  38
ENDBRANCH  36  37
ENDBRANCH  35  36
ENDBRANCH   1  35
TORSDOF 9
ENDMDL
MODEL 7
REMARK VINA RESULT:      -7.7     17.242     19.788
REMARK  9 active torsions:
REMARK  status: ('A' for Active; 'I' for Inactive)
REMARK    1  A    between atoms: O_2  and  C_3 
REMARK    2  A    between atoms: C_3  and  C_4 
REMARK    3  A    between atoms: C_4  and  O_5 
REMARK    4  A    between atoms: O_5  and  C_6 
REMARK       I    between atoms: C_6  and  N_8 
REMARK    5  A    between atoms: N_15  and  C_28 
REMARK    6  A    between atoms: N_18  and  C_19 
REMARK    7  A    between atoms: C_19  and  C_20 
REMARK    8  A    between atoms: C_24  and  O_25 
REMARK    9  A    between atoms: C_31  and  C_34 
ROOT
HETATM    1  C   UNL     1      49.799 -30.931   1.743  1.00  0.00     0.362 C 
HETATM    2  O   UNL     1      50.634 -30.428   2.486  1.00  0.00    -0.238 OA
HETATM    3  N   UNL     1      48.512 -31.302   2.155  1.00  0.00    -0.328 N 
HETATM    4  C   UNL     1      47.494 -31.553   1.141  1.00  0.00     0.130 C 
HETATM    5  C   UNL     1      46.172 -32.069   1.694  1.00  0.00     0.053 C 
HETATM    6  C   UNL     1      45.653 -31.283   2.913  1.00  0.00     0.057 C 
HETATM    7  C   UNL     1      46.766 -31.200   3.967  1.00  0.00     0.053 C 
HETATM    8  C   UNL     1      48.110 -30.737   3.434  1.00  0.00     0.130 C 
HETATM    9  C   UNL     1      44.450 -32.059   3.525  1.00  0.00     0.165 C 
HETATM   10  N   UNL     1      43.260 -31.332   3.136  1.00  0.00    -0.297 N 
HETATM   11  C   UNL     1      43.613 -30.102   2.557  1.00  0.00     0.326 C 
HETATM   12  O   UNL     1      42.875 -29.212   2.160  1.00  0.00    -0.247 OA
HETATM   13  N   UNL     1      45.012 -30.014   2.539  1.00  0.00    -0.318 N 
ENDROOT
BRANCH  13  14
HETATM   14  C   UNL     1      45.664 -28.773   2.136  1.00  0.00     0.167 C 
BRANCH  14  15
HETATM   15  C   UNL     1      45.957 -28.673   0.653  1.00  0.00    -0.037 A 
HETATM   16  C   UNL     1      47.143 -28.101   0.174  1.00  0.00     0.009 A 
HETATM   17  C   UNL     1      47.371 -27.984  -1.197  1.00  0.00     0.003 A 
HETATM   18  C   UNL     1      46.414 -28.437  -2.104  1.00  0.00     0.037 A 
HETATM   19  C   UNL     1      45.223 -29.001  -1.652  1.00  0.00     0.068 A 
HETATM   20  C   UNL     1      44.986 -29.088  -0.279  1.00  0.00     0.045 A 
BRANCH  19  21
HETATM   21  O   UNL     1      44.367 -29.411  -2.636  1.00  0.00    -0.356 OA
HETATM   22  C   UNL     1      44.742 -29.106  -3.975  1.00  0.00     0.210 C 
ENDBRANCH  19  21
ENDBRANCH  14  15
ENDBRANCH  13  14
BRANCH  10  23
HETATM   23  C   UNL     1      41.958 -31.716   3.568  1.00  0.00     0.039 A 
HETATM   24  C   UNL     1      41.317 -31.087   4.641  1.00  0.00     0.030 A 
HETATM   25  C   UNL     1      40.075 -31.534   5.118  1.00  0.00     0.014 A 
HETATM   26  C   UNL     1      39.428 -32.617   4.522  1.00  0.00    -0.023 A 
HETATM   27  C   UNL     1      40.034 -33.225   3.420  1.00  0.00     0.014 A 
HETATM   28  C   UNL     1      41.283 -32.782   2.954  1.00  0.00     0.030 A 
BRANCH  26  29
HETATM   29  C   UNL     1      38.166 -33.112   5.037  1.00  0.00     0.010 A 
HETATM   30  C   UNL     1      37.789 -33.530   6.333  1.00  0.00     0.152 A 
HETATM   31  N   UNL     1      36.504 -33.888   6.409  1.00  0.00    -0.187 NA
HETATM   32  N   UNL     1      36.052 -33.699   5.159  1.00  0.00    -0.289 N 
HETATM   33  H   UNL     1      35.077 -33.900   4.964  1.00  0.00     0.188 HD
HETATM   34  C   UNL     1      37.005 -33.232   4.300  1.00  0.00     0.123 A 
ENDBRANCH  26  29
ENDBRANCH  10  23
BRANCH   1  35
HETATM   35  O   UNL     1      49.997 -31.116   0.409  1.00  0.00    -0.302 OA
BRANCH  35  36
HETATM   36  C   UNL     1      50.284 -29.927  -0.340  1.00  0.00     0.207 C 
BRANCH  36  37
HETATM   37  C   UNL     1      50.394 -30.196  -1.836  1.00  0.00     0.193 C 
BRANCH  37  38
HETATM   38  O   UNL     1      51.775 -30.180  -2.200  1.00  0.00    -0.394 OA
HETATM   39  C   UNL     1      52.211 -31.445  -2.678  1.00  0.00     0.201 C 
ENDBRANCH  37  38
ENDBRANCH  36  37
ENDBRANCH  35  36
ENDBRANCH   1  35
TORSDOF 9
ENDMDL
MODEL 8
REMARK VINA RESULT:      -7.6      2.875      9.980
REMARK  9 active torsions:
REMARK  status: ('A' for Active; 'I' for Inactive)
REMARK    1  A    between atoms: O_2  and  C_3 
REMARK    2  A    between atoms: C_3  and  C_4 
REMARK    3  A    between atoms: C_4  and  O_5 
REMARK    4  A    between atoms: O_5  and  C_6 
REMARK       I    between atoms: C_6  and  N_8 
REMARK    5  A    between atoms: N_15  and  C_28 
REMARK    6  A    between atoms: N_18  and  C_19 
REMARK    7  A    between atoms: C_19  and  C_20 
REMARK    8  A    between atoms: C_24  and  O_25 
REMARK    9  A    between atoms: C_31  and  C_34 
ROOT
HETATM    1  C   UNL     1      40.444 -12.588   1.919  1.00  0.00     0.362 C 
HETATM    2  O   UNL     1      39.922 -13.692   1.804  1.00  0.00    -0.238 OA
HETATM    3  N   UNL     1      40.563 -11.906   3.137  1.00  0.00    -0.328 N 
HETATM    4  C   UNL     1      41.496 -10.788   3.230  1.00  0.00     0.130 C 
HETATM    5  C   UNL     1      41.453 -10.043   4.557  1.00  0.00     0.053 C 
HETATM    6  C   UNL     1      41.463 -10.963   5.793  1.00  0.00     0.057 C 
HETATM    7  C   UNL     1      40.354 -12.013   5.645  1.00  0.00     0.053 C 
HETATM    8  C   UNL     1      40.340 -12.738   4.311  1.00  0.00     0.130 C 
HETATM    9  C   UNL     1      41.162 -10.100   7.053  1.00  0.00     0.165 C 
HETATM   10  N   UNL     1      42.424  -9.937   7.742  1.00  0.00    -0.297 N 
HETATM   11  C   UNL     1      43.398 -10.774   7.174  1.00  0.00     0.326 C 
HETATM   12  O   UNL     1      44.556 -10.939   7.526  1.00  0.00    -0.247 OA
HETATM   13  N   UNL     1      42.805 -11.472   6.110  1.00  0.00    -0.318 N 
ENDROOT
BRANCH  13  14
HETATM   14  C   UNL     1      43.539 -12.534   5.431  1.00  0.00     0.167 C 
BRANCH  14  15
HETATM   15  C   UNL     1      43.267 -13.925   5.969  1.00  0.00    -0.037 A 
HETATM   16  C   UNL     1      43.114 -14.166   7.341  1.00  0.00     0.009 A 
HETATM   17  C   UNL     1      42.906 -15.461   7.813  1.00  0.00     0.003 A 
HETATM   18  C   UNL     1      42.849 -16.530   6.920  1.00  0.00     0.037 A 
HETATM   19  C   UNL     1      43.008 -16.316   5.552  1.00  0.00     0.068 A 
HETATM   20  C   UNL     1      43.247 -15.021   5.086  1.00  0.00     0.045 A 
BRANCH  19  21
HETATM   21  O   UNL     1      42.928 -17.440   4.777  1.00  0.00    -0.356 OA
HETATM   22  C   UNL     1      43.351 -17.312   3.424  1.00  0.00     0.210 C 
ENDBRANCH  19  21
ENDBRANCH  14  15
ENDBRANCH  13  14
BRANCH  10  23
HETATM   23  C   UNL     1      42.530  -9.247   8.985  1.00  0.00     0.039 A 
HETATM   24  C   UNL     1      42.336  -9.892  10.211  1.00  0.00     0.030 A 
HETATM   25  C   UNL     1      42.351  -9.185  11.423  1.00  0.00     0.014 A 
HETATM   26  C   UNL     1      42.576  -7.809  11.444  1.00  0.00    -0.023 A 
HETATM   27  C   UNL     1      42.818  -7.158  10.231  1.00  0.00     0.014 A 
HETATM   28  C   UNL     1      42.791  -7.869   9.020  1.00  0.00     0.030 A 
BRANCH  26  29
HETATM   29  C   UNL     1      42.549  -7.063  12.688  1.00  0.00     0.010 A 
HETATM   30  C   UNL     1      41.812  -5.920  13.071  1.00  0.00     0.152 A 
HETATM   31  N   UNL     1      42.045  -5.553  14.335  1.00  0.00    -0.187 NA
HETATM   32  N   UNL     1      42.932  -6.464  14.767  1.00  0.00    -0.289 N 
HETATM   33  H   UNL     1      43.263  -6.398  15.723  1.00  0.00     0.188 HD
HETATM   34  C   UNL     1      43.264  -7.391  13.822  1.00  0.00     0.123 A 
ENDBRANCH  26  29
ENDBRANCH  10  23
BRANCH   1  35
HETATM   35  O   UNL     1      41.040 -11.929   0.888  1.00  0.00    -0.302 OA
BRANCH  35  36
HETATM   36  C   UNL     1      40.192 -11.649  -0.234  1.00  0.00     0.207 C 
BRANCH  36  37
HETATM   37  C   UNL     1      40.676 -12.326  -1.510  1.00  0.00     0.193 C 
BRANCH  37  38
HETATM   38  O   UNL     1      40.305 -13.705  -1.461  1.00  0.00    -0.394 OA
HETATM   39  C   UNL     1      38.908 -13.884  -1.647  1.00  0.00     0.201 C 
ENDBRANCH  37  38
ENDBRANCH  36  37
ENDBRANCH  35  36
ENDBRANCH   1  35
TORSDOF 9
ENDMDL
MODEL 9
REMARK VINA RESULT:      -7.5      3.330      9.516
REMARK  9 active torsions:
REMARK  status: ('A' for Active; 'I' for Inactive)
REMARK    1  A    between atoms: O_2  and  C_3 
REMARK    2  A    between atoms: C_3  and  C_4 
REMARK    3  A    between atoms: C_4  and  O_5 
REMARK    4  A    between atoms: O_5  and  C_6 
REMARK       I    between atoms: C_6  and  N_8 
REMARK    5  A    between atoms: N_15  and  C_28 
REMARK    6  A    between atoms: N_18  and  C_19 
REMARK    7  A    between atoms: C_19  and  C_20 
REMARK    8  A    between atoms: C_24  and  O_25 
REMARK    9  A    between atoms: C_31  and  C_34 
ROOT
HETATM    1  C   UNL     1      43.205 -16.453   2.420  1.00  0.00     0.362 C 
HETATM    2  O   UNL     1      43.201 -16.488   1.194  1.00  0.00    -0.238 OA
HETATM    3  N   UNL     1      43.281 -15.268   3.164  1.00  0.00    -0.328 N 
HETATM    4  C   UNL     1      42.926 -15.302   4.579  1.00  0.00     0.130 C 
HETATM    5  C   UNL     1      43.163 -13.991   5.317  1.00  0.00     0.053 C 
HETATM    6  C   UNL     1      42.636 -12.749   4.573  1.00  0.00     0.057 C 
HETATM    7  C   UNL     1      43.184 -12.751   3.140  1.00  0.00     0.053 C 
HETATM    8  C   UNL     1      43.007 -14.063   2.396  1.00  0.00     0.130 C 
HETATM    9  C   UNL     1      43.163 -11.477   5.302  1.00  0.00     0.165 C 
HETATM   10  N   UNL     1      42.039 -10.939   6.039  1.00  0.00    -0.297 N 
HETATM   11  C   UNL     1      40.857 -11.600   5.669  1.00  0.00     0.326 C 
HETATM   12  O   UNL     1      39.715 -11.378   6.044  1.00  0.00    -0.247 OA
HETATM   13  N   UNL     1      41.183 -12.577   4.717  1.00  0.00    -0.318 N 
ENDROOT
BRANCH  13  14
HETATM   14  C   UNL     1      40.127 -13.316   4.033  1.00  0.00     0.167 C 
BRANCH  14  15
HETATM   15  C   UNL     1      39.612 -12.651   2.773  1.00  0.00    -0.037 A 
HETATM   16  C   UNL     1      38.873 -11.462   2.818  1.00  0.00     0.009 A 
HETATM   17  C   UNL     1      38.375 -10.892   1.647  1.00  0.00     0.003 A 
HETATM   18  C   UNL     1      38.610 -11.505   0.418  1.00  0.00     0.037 A 
HETATM   19  C   UNL     1      39.334 -12.694   0.348  1.00  0.00     0.068 A 
HETATM   20  C   UNL     1      39.805 -13.277   1.527  1.00  0.00     0.045 A 
BRANCH  19  21
HETATM   21  O   UNL     1      39.503 -13.196  -0.912  1.00  0.00    -0.356 OA
HETATM   22  C   UNL     1      40.252 -12.397  -1.822  1.00  0.00     0.210 C 
ENDBRANCH  19  21
ENDBRANCH  14  15
ENDBRANCH  13  14
BRANCH  10  23
HETATM   23  C   UNL     1      42.128  -9.729   6.786  1.00  0.00     0.039 A 
HETATM   24  C   UNL     1      42.528  -9.712   8.127  1.00  0.00     0.030 A 
HETATM   25  C   UNL     1      42.522  -8.528   8.879  1.00  0.00     0.014 A 
HETATM   26  C   UNL     1      42.131  -7.318   8.305  1.00  0.00    -0.023 A 
HETATM   27  C   UNL     1      41.775  -7.311   6.954  1.00  0.00     0.014 A 
HETATM   28  C   UNL     1      41.771  -8.501   6.208  1.00  0.00     0.030 A 
BRANCH  26  29
HETATM   29  C   UNL     1      42.081  -6.097   9.088  1.00  0.00     0.010 A 
HETATM   30  C   UNL     1      42.928  -5.611  10.109  1.00  0.00     0.152 A 
HETATM   31  N   UNL     1      42.557  -4.411  10.561  1.00  0.00    -0.187 NA
HETATM   32  N   UNL     1      41.470  -4.122   9.829  1.00  0.00    -0.289 N 
HETATM   33  H   UNL     1      41.003  -3.235   9.988  1.00  0.00     0.188 HD
HETATM   34  C   UNL     1      41.145  -5.096   8.930  1.00  0.00     0.123 A 
ENDBRANCH  26  29
ENDBRANCH  10  23
BRANCH   1  35
HETATM   35  O   UNL     1      43.057 -17.556   3.203  1.00  0.00    -0.302 OA
BRANCH  35  36
HETATM   36  C   UNL     1      43.970 -18.629   2.931  1.00  0.00     0.207 C 
BRANCH  36  37
HETATM   37  C   UNL     1      43.293 -19.804   2.236  1.00  0.00     0.193 C 
BRANCH  37  38
HETATM   38  O   UNL     1      43.806 -21.017   2.790  1.00  0.00    -0.394 OA
HETATM   39  C   UNL     1      43.906 -20.951   4.205  1.00  0.00     0.201 C 
ENDBRANCH  37  38
ENDBRANCH  36  37
ENDBRANCH  35  36
ENDBRANCH   1  35
TORSDOF 9
ENDMDL
MODEL 10
REMARK VINA RESULT:      -7.3      5.270     10.908
REMARK  9 active torsions:
REMARK  status: ('A' for Active; 'I' for Inactive)
REMARK    1  A    between atoms: O_2  and  C_3 
REMARK    2  A    between atoms: C_3  and  C_4 
REMARK    3  A    between atoms: C_4  and  O_5 
REMARK    4  A    between atoms: O_5  and  C_6 
REMARK       I    between atoms: C_6  and  N_8 
REMARK    5  A    between atoms: N_15  and  C_28 
REMARK    6  A    between atoms: N_18  and  C_19 
REMARK    7  A    between atoms: C_19  and  C_20 
REMARK    8  A    between atoms: C_24  and  O_25 
REMARK    9  A    between atoms: C_31  and  C_34 
ROOT
HETATM    1  C   UNL     1      36.781  -9.704  -3.964  1.00  0.00     0.362 C 
HETATM    2  O   UNL     1      37.289  -8.997  -4.827  1.00  0.00    -0.238 OA
HETATM    3  N   UNL     1      37.482 -10.679  -3.244  1.00  0.00    -0.328 N 
HETATM    4  C   UNL     1      36.894 -11.207  -2.017  1.00  0.00     0.130 C 
HETATM    5  C   UNL     1      37.680 -12.348  -1.384  1.00  0.00     0.053 C 
HETATM    6  C   UNL     1      39.195 -12.084  -1.283  1.00  0.00     0.057 C 
HETATM    7  C   UNL     1      39.725 -11.666  -2.660  1.00  0.00     0.053 C 
HETATM    8  C   UNL     1      38.930 -10.565  -3.339  1.00  0.00     0.130 C 
HETATM    9  C   UNL     1      39.899 -13.407  -0.862  1.00  0.00     0.165 C 
HETATM   10  N   UNL     1      40.249 -13.252   0.534  1.00  0.00    -0.297 N 
HETATM   11  C   UNL     1      40.042 -11.924   0.941  1.00  0.00     0.326 C 
HETATM   12  O   UNL     1      40.276 -11.418   2.029  1.00  0.00    -0.247 OA
HETATM   13  N   UNL     1      39.543 -11.206  -0.156  1.00  0.00    -0.318 N 
ENDROOT
BRANCH  13  14
HETATM   14  C   UNL     1      39.381  -9.758  -0.072  1.00  0.00     0.167 C 
BRANCH  14  15
HETATM   15  C   UNL     1      40.611  -8.967  -0.468  1.00  0.00    -0.037 A 
HETATM   16  C   UNL     1      41.714  -9.578  -1.079  1.00  0.00     0.009 A 
HETATM   17  C   UNL     1      42.850  -8.834  -1.396  1.00  0.00     0.003 A 
HETATM   18  C   UNL     1      42.896  -7.472  -1.106  1.00  0.00     0.037 A 
HETATM   19  C   UNL     1      41.815  -6.844  -0.490  1.00  0.00     0.068 A 
HETATM   20  C   UNL     1      40.692  -7.598  -0.147  1.00  0.00     0.045 A 
BRANCH  19  21
HETATM   21  O   UNL     1      41.977  -5.505  -0.261  1.00  0.00    -0.356 OA
HETATM   22  C   UNL     1      43.300  -5.063   0.026  1.00  0.00     0.210 C 
ENDBRANCH  19  21
ENDBRANCH  14  15
ENDBRANCH  13  14
BRANCH  10  23
HETATM   23  C   UNL     1      40.970 -14.249   1.253  1.00  0.00     0.039 A 
HETATM   24  C   UNL     1      42.338 -14.129   1.521  1.00  0.00     0.030 A 
HETATM   25  C   UNL     1      43.057 -15.158   2.147  1.00  0.00     0.014 A 
HETATM   26  C   UNL     1      42.422 -16.336   2.542  1.00  0.00    -0.023 A 
HETATM   27  C   UNL     1      41.046 -16.451   2.324  1.00  0.00     0.014 A 
HETATM   28  C   UNL     1      40.334 -15.423   1.685  1.00  0.00     0.030 A 
BRANCH  26  29
HETATM   29  C   UNL     1      43.166 -17.422   3.150  1.00  0.00     0.010 A 
HETATM   30  C   UNL     1      43.577 -18.672   2.634  1.00  0.00     0.152 A 
HETATM   31  N   UNL     1      44.285 -19.387   3.512  1.00  0.00    -0.187 NA
HETATM   32  N   UNL     1      44.333 -18.595   4.595  1.00  0.00    -0.289 N 
HETATM   33  H   UNL     1      44.836 -18.925   5.412  1.00  0.00     0.188 HD
HETATM   34  C   UNL     1      43.682 -17.407   4.430  1.00  0.00     0.123 A 
ENDBRANCH  26  29
ENDBRANCH  10  23
BRANCH   1  35
HETATM   35  O   UNL     1      35.492  -9.569  -3.548  1.00  0.00    -0.302 OA
BRANCH  35  36
HETATM   36  C   UNL     1      34.495  -9.991  -4.490  1.00  0.00     0.207 C 
BRANCH  36  37
HETATM   37  C   UNL     1      33.910 -11.355  -4.145  1.00  0.00     0.193 C 
BRANCH  37  38
HETATM   38  O   UNL     1      32.506 -11.205  -3.926  1.00  0.00    -0.394 OA
HETATM   39  C   UNL     1      32.047  -9.915  -4.303  1.00  0.00     0.201 C 
ENDBRANCH  37  38
ENDBRANCH  36  37
ENDBRANCH  35  36
ENDBRANCH   1  35
TORSDOF 9
ENDMDL
