MODEL 1
REMARK VINA RESULT:      -9.5      0.000      0.000
REMARK  6 active torsions:
REMARK  status: ('A' for Active; 'I' for Inactive)
REMARK    1  A    between atoms: C_5  and  N_6 
REMARK       I    between atoms: N_6  and  C_7 
REMARK    2  A    between atoms: C_7  and  C_8 
REMARK    3  A    between atoms: C_8  and  N_9 
REMARK    4  A    between atoms: C_8  and  C_17 
REMARK       I    between atoms: N_9  and  C_10 
REMARK    5  A    between atoms: C_10  and  C_11 
REMARK    6  A    between atoms: C_17  and  C_18 
ROOT
HETATM    1  C   UNL     1      42.383 -14.630   4.232  1.00  0.00     0.181 C 
ENDROOT
BRANCH   1   2
HETATM    2  C   UNL     1      41.213 -14.040   3.397  1.00  0.00     0.245 C 
HETATM    3  N   UNL     1      41.444 -14.089   2.027  1.00  0.00    -0.325 N 
HETATM    4  H   UNL     1      42.326 -14.472   1.716  1.00  0.00     0.169 HD
HETATM    5  O   UNL     1      40.169 -13.663   3.926  1.00  0.00    -0.271 OA
BRANCH   3   6
HETATM    6  C   UNL     1      40.562 -13.717   0.989  1.00  0.00     0.034 A 
HETATM    7  C   UNL     1      39.932 -12.476   0.899  1.00  0.00     0.030 A 
HETATM    8  C   UNL     1      39.048 -12.201  -0.153  1.00  0.00     0.009 A 
HETATM    9  C   UNL     1      38.780 -13.162  -1.131  1.00  0.00    -0.062 A 
HETATM   10  C   UNL     1      37.839 -12.873  -2.262  1.00  0.00     0.048 C 
HETATM   11  C   UNL     1      39.425 -14.399  -1.053  1.00  0.00     0.009 A 
HETATM   12  C   UNL     1      40.306 -14.673  -0.002  1.00  0.00     0.030 A 
ENDBRANCH   3   6
ENDBRANCH   1   2
BRANCH   1  13
HETATM   13  N   UNL     1      43.109 -13.567   4.926  1.00  0.00    -0.342 N 
HETATM   14  C   UNL     1      43.232 -13.473   6.295  1.00  0.00     0.276 C 
HETATM   15  O   UNL     1      42.647 -14.216   7.077  1.00  0.00    -0.265 OA
HETATM   16  H   UNL     1      43.757 -13.001   4.393  1.00  0.00     0.163 HD
BRANCH  14  17
HETATM   17  C   UNL     1      44.109 -12.401   6.720  1.00  0.00     0.142 A 
HETATM   18  O   UNL     1      44.094 -11.995   8.033  1.00  0.00    -0.317 OA
HETATM   19  C   UNL     1      45.004 -10.995   8.154  1.00  0.00     0.143 A 
HETATM   20  C   UNL     1      45.613 -10.747   6.947  1.00  0.00     0.027 A 
HETATM   21  C   UNL     1      45.037 -11.650   6.022  1.00  0.00     0.045 A 
ENDBRANCH  14  17
ENDBRANCH   1  13
BRANCH   1  22
HETATM   22  C   UNL     1      43.266 -15.602   3.427  1.00  0.00     0.075 C 
BRANCH  22  23
HETATM   23  C   UNL     1      43.581 -16.869   4.169  1.00  0.00    -0.028 A 
HETATM   24  C   UNL     1      43.625 -18.201   3.641  1.00  0.00    -0.002 A 
HETATM   25  C   UNL     1      43.927 -19.059   4.699  1.00  0.00     0.042 A 
HETATM   26  C   UNL     1      43.423 -18.761   2.361  1.00  0.00     0.014 A 
HETATM   27  C   UNL     1      44.029 -20.447   4.546  1.00  0.00     0.030 A 
HETATM   28  N   UNL     1      44.082 -18.280   5.821  1.00  0.00    -0.365 N 
HETATM   29  C   UNL     1      43.816 -20.976   3.270  1.00  0.00     0.002 A 
HETATM   30  C   UNL     1      43.518 -20.147   2.191  1.00  0.00     0.001 A 
HETATM   31  H   UNL     1      44.306 -18.636   6.741  1.00  0.00     0.165 HD
HETATM   32  C   UNL     1      43.881 -16.963   5.515  1.00  0.00     0.096 A 
ENDBRANCH  22  23
ENDBRANCH   1  22
TORSDOF 6
ENDMDL
MODEL 2
REMARK VINA RESULT:      -9.3      1.871      6.256
REMARK  6 active torsions:
REMARK  status: ('A' for Active; 'I' for Inactive)
REMARK    1  A    between atoms: C_5  and  N_6 
REMARK       I    between atoms: N_6  and  C_7 
REMARK    2  A    between atoms: C_7  and  C_8 
REMARK    3  A    between atoms: C_8  and  N_9 
REMARK    4  A    between atoms: C_8  and  C_17 
REMARK       I    between atoms: N_9  and  C_10 
REMARK    5  A    between atoms: C_10  and  C_11 
REMARK    6  A    between atoms: C_17  and  C_18 
ROOT
HETATM    1  C   UNL     1      42.356 -13.062   3.024  1.00  0.00     0.181 C 
ENDROOT
BRANCH   1   2
HETATM    2  C   UNL     1      43.052 -14.413   2.701  1.00  0.00     0.245 C 
HETATM    3  N   UNL     1      42.672 -15.440   3.558  1.00  0.00    -0.325 N 
HETATM    4  H   UNL     1      42.017 -15.215   4.293  1.00  0.00     0.169 HD
HETATM    5  O   UNL     1      43.787 -14.542   1.724  1.00  0.00    -0.271 OA
BRANCH   3   6
HETATM    6  C   UNL     1      43.047 -16.800   3.495  1.00  0.00     0.034 A 
HETATM    7  C   UNL     1      43.841 -17.442   4.445  1.00  0.00     0.030 A 
HETATM    8  C   UNL     1      44.188 -18.790   4.289  1.00  0.00     0.009 A 
HETATM    9  C   UNL     1      43.746 -19.518   3.181  1.00  0.00    -0.062 A 
HETATM   10  C   UNL     1      44.109 -20.963   3.010  1.00  0.00     0.048 C 
HETATM   11  C   UNL     1      42.934 -18.882   2.238  1.00  0.00     0.009 A 
HETATM   12  C   UNL     1      42.590 -17.536   2.394  1.00  0.00     0.030 A 
ENDBRANCH   3   6
ENDBRANCH   1   2
BRANCH   1  13
HETATM   13  N   UNL     1      42.770 -12.569   4.336  1.00  0.00    -0.342 N 
HETATM   14  C   UNL     1      43.840 -11.729   4.551  1.00  0.00     0.276 C 
HETATM   15  O   UNL     1      44.626 -11.399   3.669  1.00  0.00    -0.265 OA
HETATM   16  H   UNL     1      42.114 -12.639   5.104  1.00  0.00     0.163 HD
BRANCH  14  17
HETATM   17  C   UNL     1      43.956 -11.286   5.926  1.00  0.00     0.142 A 
HETATM   18  O   UNL     1      43.018 -10.424   6.441  1.00  0.00    -0.317 OA
HETATM   19  C   UNL     1      43.361 -10.182   7.732  1.00  0.00     0.143 A 
HETATM   20  C   UNL     1      44.501 -10.873   8.066  1.00  0.00     0.027 A 
HETATM   21  C   UNL     1      44.887 -11.583   6.904  1.00  0.00     0.045 A 
ENDBRANCH  14  17
ENDBRANCH   1  13
BRANCH   1  22
HETATM   22  C   UNL     1      40.833 -13.101   2.793  1.00  0.00     0.075 C 
BRANCH  22  23
HETATM   23  C   UNL     1      40.447 -13.769   1.505  1.00  0.00    -0.028 A 
HETATM   24  C   UNL     1      40.583 -13.246   0.176  1.00  0.00    -0.002 A 
HETATM   25  C   UNL     1      40.065 -14.198  -0.702  1.00  0.00     0.042 A 
HETATM   26  C   UNL     1      41.088 -12.043  -0.362  1.00  0.00     0.014 A 
HETATM   27  C   UNL     1      40.017 -14.006  -2.088  1.00  0.00     0.030 A 
HETATM   28  N   UNL     1      39.649 -15.266   0.057  1.00  0.00    -0.365 N 
HETATM   29  C   UNL     1      40.516 -12.803  -2.594  1.00  0.00     0.002 A 
HETATM   30  C   UNL     1      41.046 -11.834  -1.745  1.00  0.00     0.001 A 
HETATM   31  H   UNL     1      39.229 -16.107  -0.316  1.00  0.00     0.165 HD
HETATM   32  C   UNL     1      39.877 -15.023   1.383  1.00  0.00     0.096 A 
ENDBRANCH  22  23
ENDBRANCH   1  22
TORSDOF 6
ENDMDL
MODEL 3
REMARK VINA RESULT:      -9.3      1.600      5.995
REMARK  6 active torsions:
REMARK  status: ('A' for Active; 'I' for Inactive)
REMARK    1  A    between atoms: C_5  and  N_6 
REMARK       I    between atoms: N_6  and  C_7 
REMARK    2  A    between atoms: C_7  and  C_8 
REMARK    3  A    between atoms: C_8  and  N_9 
REMARK    4  A    between atoms: C_8  and  C_17 
REMARK       I    between atoms: N_9  and  C_10 
REMARK    5  A    between atoms: C_10  and  C_11 
REMARK    6  A    between atoms: C_17  and  C_18 
ROOT
HETATM    1  C   UNL     1      42.551 -13.019   4.433  1.00  0.00     0.181 C 
ENDROOT
BRANCH   1   2
HETATM    2  C   UNL     1      42.423 -14.562   4.556  1.00  0.00     0.245 C 
HETATM    3  N   UNL     1      43.205 -15.249   3.635  1.00  0.00    -0.325 N 
HETATM    4  H   UNL     1      43.749 -14.699   2.984  1.00  0.00     0.169 HD
HETATM    5  O   UNL     1      41.758 -15.084   5.449  1.00  0.00    -0.271 OA
BRANCH   3   6
HETATM    6  C   UNL     1      43.385 -16.645   3.526  1.00  0.00     0.034 A 
HETATM    7  C   UNL     1      44.080 -17.423   4.452  1.00  0.00     0.030 A 
HETATM    8  C   UNL     1      44.234 -18.800   4.250  1.00  0.00     0.009 A 
HETATM    9  C   UNL     1      43.697 -19.422   3.121  1.00  0.00    -0.062 A 
HETATM   10  C   UNL     1      43.854 -20.898   2.901  1.00  0.00     0.048 C 
HETATM   11  C   UNL     1      42.984 -18.648   2.202  1.00  0.00     0.009 A 
HETATM   12  C   UNL     1      42.831 -17.273   2.403  1.00  0.00     0.030 A 
ENDBRANCH   3   6
ENDBRANCH   1   2
BRANCH   1  13
HETATM   13  N   UNL     1      43.197 -12.458   5.619  1.00  0.00    -0.342 N 
HETATM   14  C   UNL     1      44.251 -11.572   5.587  1.00  0.00     0.276 C 
HETATM   15  O   UNL     1      44.829 -11.248   4.554  1.00  0.00    -0.265 OA
HETATM   16  H   UNL     1      42.713 -12.522   6.506  1.00  0.00     0.163 HD
BRANCH  14  17
HETATM   17  C   UNL     1      44.620 -11.070   6.895  1.00  0.00     0.142 A 
HETATM   18  O   UNL     1      43.641 -10.821   7.826  1.00  0.00    -0.317 OA
HETATM   19  C   UNL     1      44.258 -10.371   8.948  1.00  0.00     0.143 A 
HETATM   20  C   UNL     1      45.620 -10.328   8.765  1.00  0.00     0.027 A 
HETATM   21  C   UNL     1      45.855 -10.775   7.444  1.00  0.00     0.045 A 
ENDBRANCH  14  17
ENDBRANCH   1  13
BRANCH   1  22
HETATM   22  C   UNL     1      41.231 -12.336   4.028  1.00  0.00     0.075 C 
BRANCH  22  23
HETATM   23  C   UNL     1      41.117 -12.099   2.549  1.00  0.00    -0.028 A 
HETATM   24  C   UNL     1      40.702 -13.036   1.546  1.00  0.00    -0.002 A 
HETATM   25  C   UNL     1      40.780 -12.388   0.313  1.00  0.00     0.042 A 
HETATM   26  C   UNL     1      40.278 -14.382   1.569  1.00  0.00     0.014 A 
HETATM   27  C   UNL     1      40.465 -13.018  -0.897  1.00  0.00     0.030 A 
HETATM   28  N   UNL     1      41.205 -11.103   0.556  1.00  0.00    -0.365 N 
HETATM   29  C   UNL     1      40.056 -14.352  -0.847  1.00  0.00     0.002 A 
HETATM   30  C   UNL     1      39.961 -15.027   0.368  1.00  0.00     0.001 A 
HETATM   31  H   UNL     1      41.353 -10.402  -0.158  1.00  0.00     0.165 HD
HETATM   32  C   UNL     1      41.407 -10.917   1.895  1.00  0.00     0.096 A 
ENDBRANCH  22  23
ENDBRANCH   1  22
TORSDOF 6
ENDMDL
MODEL 4
REMARK VINA RESULT:      -9.1      1.722      6.364
REMARK  6 active torsions:
REMARK  status: ('A' for Active; 'I' for Inactive)
REMARK    1  A    between atoms: C_5  and  N_6 
REMARK       I    between atoms: N_6  and  C_7 
REMARK    2  A    between atoms: C_7  and  C_8 
REMARK    3  A    between atoms: C_8  and  N_9 
REMARK    4  A    between atoms: C_8  and  C_17 
REMARK       I    between atoms: N_9  and  C_10 
REMARK    5  A    between atoms: C_10  and  C_11 
REMARK    6  A    between atoms: C_17  and  C_18 
ROOT
HETATM    1  C   UNL     1      42.252 -12.965   3.389  1.00  0.00     0.181 C 
ENDROOT
BRANCH   1   2
HETATM    2  C   UNL     1      42.028 -14.503   3.414  1.00  0.00     0.245 C 
HETATM    3  N   UNL     1      43.211 -15.227   3.313  1.00  0.00    -0.325 N 
HETATM    4  H   UNL     1      44.071 -14.704   3.218  1.00  0.00     0.169 HD
HETATM    5  O   UNL     1      40.914 -14.989   3.598  1.00  0.00    -0.271 OA
BRANCH   3   6
HETATM    6  C   UNL     1      43.374 -16.627   3.386  1.00  0.00     0.034 A 
HETATM    7  C   UNL     1      43.858 -17.306   4.504  1.00  0.00     0.030 A 
HETATM    8  C   UNL     1      44.015 -18.697   4.480  1.00  0.00     0.009 A 
HETATM    9  C   UNL     1      43.690 -19.433   3.337  1.00  0.00    -0.062 A 
HETATM   10  C   UNL     1      43.851 -20.924   3.306  1.00  0.00     0.048 C 
HETATM   11  C   UNL     1      43.187 -18.757   2.222  1.00  0.00     0.009 A 
HETATM   12  C   UNL     1      43.032 -17.368   2.247  1.00  0.00     0.030 A 
ENDBRANCH   3   6
ENDBRANCH   1   2
BRANCH   1  13
HETATM   13  N   UNL     1      42.843 -12.509   4.645  1.00  0.00    -0.342 N 
HETATM   14  C   UNL     1      43.968 -11.718   4.735  1.00  0.00     0.276 C 
HETATM   15  O   UNL     1      44.654 -11.409   3.766  1.00  0.00    -0.265 OA
HETATM   16  H   UNL     1      42.284 -12.562   5.487  1.00  0.00     0.163 HD
BRANCH  14  17
HETATM   17  C   UNL     1      44.270 -11.300   6.089  1.00  0.00     0.142 A 
HETATM   18  O   UNL     1      43.252 -10.878   6.910  1.00  0.00    -0.317 OA
HETATM   19  C   UNL     1      43.808 -10.556   8.106  1.00  0.00     0.143 A 
HETATM   20  C   UNL     1      45.166 -10.765   8.078  1.00  0.00     0.027 A 
HETATM   21  C   UNL     1      45.466 -11.241   6.780  1.00  0.00     0.045 A 
ENDBRANCH  14  17
ENDBRANCH   1  13
BRANCH   1  22
HETATM   22  C   UNL     1      41.003 -12.185   2.935  1.00  0.00     0.075 C 
BRANCH  22  23
HETATM   23  C   UNL     1      41.030 -11.820   1.479  1.00  0.00    -0.028 A 
HETATM   24  C   UNL     1      40.624 -12.632   0.369  1.00  0.00    -0.002 A 
HETATM   25  C   UNL     1      40.855 -11.895  -0.793  1.00  0.00     0.042 A 
HETATM   26  C   UNL     1      40.092 -13.933   0.243  1.00  0.00     0.014 A 
HETATM   27  C   UNL     1      40.590 -12.395  -2.074  1.00  0.00     0.030 A 
HETATM   28  N   UNL     1      41.361 -10.677  -0.407  1.00  0.00    -0.365 N 
HETATM   29  C   UNL     1      40.072 -13.689  -2.171  1.00  0.00     0.002 A 
HETATM   30  C   UNL     1      39.824 -14.449  -1.031  1.00  0.00     0.001 A 
HETATM   31  H   UNL     1      41.622  -9.935  -1.043  1.00  0.00     0.165 HD
HETATM   32  C   UNL     1      41.466 -10.618   0.955  1.00  0.00     0.096 A 
ENDBRANCH  22  23
ENDBRANCH   1  22
TORSDOF 6
ENDMDL
MODEL 5
REMARK VINA RESULT:      -9.0      2.101      7.855
REMARK  6 active torsions:
REMARK  status: ('A' for Active; 'I' for Inactive)
REMARK    1  A    between atoms: C_5  and  N_6 
REMARK       I    between atoms: N_6  and  C_7 
REMARK    2  A    between atoms: C_7  and  C_8 
REMARK    3  A    between atoms: C_8  and  N_9 
REMARK    4  A    between atoms: C_8  and  C_17 
REMARK       I    between atoms: N_9  and  C_10 
REMARK    5  A    between atoms: C_10  and  C_11 
REMARK    6  A    between atoms: C_17  and  C_18 
ROOT
HETATM    1  C   UNL     1      41.939 -13.257   2.829  1.00  0.00     0.181 C 
ENDROOT
BRANCH   1   2
HETATM    2  C   UNL     1      41.884 -14.755   3.235  1.00  0.00     0.245 C 
HETATM    3  N   UNL     1      43.131 -15.370   3.219  1.00  0.00    -0.325 N 
HETATM    4  H   UNL     1      43.923 -14.809   2.937  1.00  0.00     0.169 HD
HETATM    5  O   UNL     1      40.840 -15.282   3.614  1.00  0.00    -0.271 OA
BRANCH   3   6
HETATM    6  C   UNL     1      43.448 -16.689   3.609  1.00  0.00     0.034 A 
HETATM    7  C   UNL     1      43.489 -17.779   2.740  1.00  0.00     0.030 A 
HETATM    8  C   UNL     1      43.786 -19.061   3.219  1.00  0.00     0.009 A 
HETATM    9  C   UNL     1      44.048 -19.274   4.575  1.00  0.00    -0.062 A 
HETATM   10  C   UNL     1      44.373 -20.643   5.094  1.00  0.00     0.048 C 
HETATM   11  C   UNL     1      44.027 -18.181   5.444  1.00  0.00     0.009 A 
HETATM   12  C   UNL     1      43.728 -16.901   4.966  1.00  0.00     0.030 A 
ENDBRANCH   3   6
ENDBRANCH   1   2
BRANCH   1  13
HETATM   13  N   UNL     1      41.765 -13.106   1.385  1.00  0.00    -0.342 N 
HETATM   14  C   UNL     1      40.554 -12.894   0.764  1.00  0.00     0.276 C 
HETATM   15  O   UNL     1      39.479 -12.923   1.355  1.00  0.00    -0.265 OA
HETATM   16  H   UNL     1      42.582 -12.905   0.822  1.00  0.00     0.163 HD
BRANCH  14  17
HETATM   17  C   UNL     1      40.673 -12.650  -0.659  1.00  0.00     0.142 A 
HETATM   18  O   UNL     1      40.315 -13.635  -1.547  1.00  0.00    -0.317 OA
HETATM   19  C   UNL     1      40.519 -13.143  -2.796  1.00  0.00     0.143 A 
HETATM   20  C   UNL     1      40.999 -11.857  -2.735  1.00  0.00     0.027 A 
HETATM   21  C   UNL     1      41.101 -11.538  -1.361  1.00  0.00     0.045 A 
ENDBRANCH  14  17
ENDBRANCH   1  13
BRANCH   1  22
HETATM   22  C   UNL     1      43.156 -12.519   3.419  1.00  0.00     0.075 C 
BRANCH  22  23
HETATM   23  C   UNL     1      42.919 -12.003   4.809  1.00  0.00    -0.028 A 
HETATM   24  C   UNL     1      43.904 -11.581   5.762  1.00  0.00    -0.002 A 
HETATM   25  C   UNL     1      43.228 -11.213   6.925  1.00  0.00     0.042 A 
HETATM   26  C   UNL     1      45.312 -11.490   5.749  1.00  0.00     0.014 A 
HETATM   27  C   UNL     1      43.886 -10.766   8.078  1.00  0.00     0.030 A 
HETATM   28  N   UNL     1      41.885 -11.383   6.685  1.00  0.00    -0.365 N 
HETATM   29  C   UNL     1      45.281 -10.693   8.040  1.00  0.00     0.002 A 
HETATM   30  C   UNL     1      45.987 -11.048   6.893  1.00  0.00     0.001 A 
HETATM   31  H   UNL     1      41.152 -11.193   7.356  1.00  0.00     0.165 HD
HETATM   32  C   UNL     1      41.687 -11.853   5.417  1.00  0.00     0.096 A 
ENDBRANCH  22  23
ENDBRANCH   1  22
TORSDOF 6
ENDMDL
MODEL 6
REMARK VINA RESULT:      -8.8      1.658      6.546
REMARK  6 active torsions:
REMARK  status: ('A' for Active; 'I' for Inactive)
REMARK    1  A    between atoms: C_5  and  N_6 
REMARK       I    between atoms: N_6  and  C_7 
REMARK    2  A    between atoms: C_7  and  C_8 
REMARK    3  A    between atoms: C_8  and  N_9 
REMARK    4  A    between atoms: C_8  and  C_17 
REMARK       I    between atoms: N_9  and  C_10 
REMARK    5  A    between atoms: C_10  and  C_11 
REMARK    6  A    between atoms: C_17  and  C_18 
ROOT
HETATM    1  C   UNL     1      42.983 -14.163   3.330  1.00  0.00     0.181 C 
ENDROOT
BRANCH   1   2
HETATM    2  C   UNL     1      43.357 -12.787   3.948  1.00  0.00     0.245 C 
HETATM    3  N   UNL     1      43.551 -12.843   5.324  1.00  0.00    -0.325 N 
HETATM    4  H   UNL     1      43.418 -13.736   5.778  1.00  0.00     0.169 HD
HETATM    5  O   UNL     1      43.542 -11.795   3.247  1.00  0.00    -0.271 OA
BRANCH   3   6
HETATM    6  C   UNL     1      43.977 -11.803   6.178  1.00  0.00     0.034 A 
HETATM    7  C   UNL     1      45.293 -11.620   6.601  1.00  0.00     0.030 A 
HETATM    8  C   UNL     1      45.622 -10.575   7.473  1.00  0.00     0.009 A 
HETATM    9  C   UNL     1      44.640  -9.695   7.937  1.00  0.00    -0.062 A 
HETATM   10  C   UNL     1      44.987  -8.570   8.867  1.00  0.00     0.048 C 
HETATM   11  C   UNL     1      43.324  -9.865   7.500  1.00  0.00     0.009 A 
HETATM   12  C   UNL     1      42.996 -10.909   6.630  1.00  0.00     0.030 A 
ENDBRANCH   3   6
ENDBRANCH   1   2
BRANCH   1  13
HETATM   13  N   UNL     1      42.373 -13.988   2.013  1.00  0.00    -0.342 N 
HETATM   14  C   UNL     1      41.055 -13.648   1.803  1.00  0.00     0.276 C 
HETATM   15  O   UNL     1      40.228 -13.566   2.706  1.00  0.00    -0.265 OA
HETATM   16  H   UNL     1      42.983 -13.871   1.214  1.00  0.00     0.163 HD
BRANCH  14  17
HETATM   17  C   UNL     1      40.738 -13.411   0.409  1.00  0.00     0.142 A 
HETATM   18  O   UNL     1      41.173 -12.258  -0.198  1.00  0.00    -0.317 OA
HETATM   19  C   UNL     1      40.746 -12.296  -1.486  1.00  0.00     0.143 A 
HETATM   20  C   UNL     1      40.046 -13.454  -1.727  1.00  0.00     0.027 A 
HETATM   21  C   UNL     1      40.037 -14.172  -0.509  1.00  0.00     0.045 A 
ENDBRANCH  14  17
ENDBRANCH   1  13
BRANCH   1  22
HETATM   22  C   UNL     1      42.191 -15.061   4.301  1.00  0.00     0.075 C 
BRANCH  22  23
HETATM   23  C   UNL     1      42.927 -16.314   4.681  1.00  0.00    -0.028 A 
HETATM   24  C   UNL     1      43.130 -17.483   3.876  1.00  0.00    -0.002 A 
HETATM   25  C   UNL     1      43.838 -18.404   4.649  1.00  0.00     0.042 A 
HETATM   26  C   UNL     1      42.767 -17.851   2.563  1.00  0.00     0.014 A 
HETATM   27  C   UNL     1      44.193 -19.675   4.181  1.00  0.00     0.030 A 
HETATM   28  N   UNL     1      44.075 -17.812   5.868  1.00  0.00    -0.365 N 
HETATM   29  C   UNL     1      43.814 -20.016   2.881  1.00  0.00     0.002 A 
HETATM   30  C   UNL     1      43.112 -19.119   2.080  1.00  0.00     0.001 A 
HETATM   31  H   UNL     1      44.570 -18.251   6.632  1.00  0.00     0.165 HD
HETATM   32  C   UNL     1      43.536 -16.556   5.897  1.00  0.00     0.096 A 
ENDBRANCH  22  23
ENDBRANCH   1  22
TORSDOF 6
ENDMDL
MODEL 7
REMARK VINA RESULT:      -8.6      2.315      5.715
REMARK  6 active torsions:
REMARK  status: ('A' for Active; 'I' for Inactive)
REMARK    1  A    between atoms: C_5  and  N_6 
REMARK       I    between atoms: N_6  and  C_7 
REMARK    2  A    between atoms: C_7  and  C_8 
REMARK    3  A    between atoms: C_8  and  N_9 
REMARK    4  A    between atoms: C_8  and  C_17 
REMARK       I    between atoms: N_9  and  C_10 
REMARK    5  A    between atoms: C_10  and  C_11 
REMARK    6  A    between atoms: C_17  and  C_18 
ROOT
HETATM    1  C   UNL     1      41.291 -15.323   3.523  1.00  0.00     0.181 C 
ENDROOT
BRANCH   1   2
HETATM    2  C   UNL     1      40.267 -15.080   2.381  1.00  0.00     0.245 C 
HETATM    3  N   UNL     1      40.462 -13.872   1.722  1.00  0.00    -0.325 N 
HETATM    4  H   UNL     1      41.213 -13.279   2.048  1.00  0.00     0.169 HD
HETATM    5  O   UNL     1      39.441 -15.935   2.064  1.00  0.00    -0.271 OA
BRANCH   3   6
HETATM    6  C   UNL     1      39.769 -13.382   0.594  1.00  0.00     0.034 A 
HETATM    7  C   UNL     1      39.794 -13.979  -0.666  1.00  0.00     0.030 A 
HETATM    8  C   UNL     1      39.097 -13.408  -1.738  1.00  0.00     0.009 A 
HETATM    9  C   UNL     1      38.362 -12.231  -1.568  1.00  0.00    -0.062 A 
HETATM   10  C   UNL     1      37.609 -11.617  -2.710  1.00  0.00     0.048 C 
HETATM   11  C   UNL     1      38.320 -11.642  -0.301  1.00  0.00     0.009 A 
HETATM   12  C   UNL     1      39.018 -12.212   0.768  1.00  0.00     0.030 A 
ENDBRANCH   3   6
ENDBRANCH   1   2
BRANCH   1  13
HETATM   13  N   UNL     1      41.821 -16.685   3.462  1.00  0.00    -0.342 N 
HETATM   14  C   UNL     1      42.874 -17.075   2.666  1.00  0.00     0.276 C 
HETATM   15  O   UNL     1      43.405 -16.339   1.839  1.00  0.00    -0.265 OA
HETATM   16  H   UNL     1      41.577 -17.329   4.204  1.00  0.00     0.163 HD
BRANCH  14  17
HETATM   17  C   UNL     1      43.285 -18.447   2.888  1.00  0.00     0.142 A 
HETATM   18  O   UNL     1      43.806 -18.809   4.107  1.00  0.00    -0.317 OA
HETATM   19  C   UNL     1      44.096 -20.133   4.042  1.00  0.00     0.143 A 
HETATM   20  C   UNL     1      43.770 -20.639   2.807  1.00  0.00     0.027 A 
HETATM   21  C   UNL     1      43.250 -19.555   2.061  1.00  0.00     0.045 A 
ENDBRANCH  14  17
ENDBRANCH   1  13
BRANCH   1  22
HETATM   22  C   UNL     1      40.763 -14.892   4.905  1.00  0.00     0.075 C 
BRANCH  22  23
HETATM   23  C   UNL     1      41.847 -14.425   5.834  1.00  0.00    -0.028 A 
HETATM   24  C   UNL     1      42.754 -13.332   5.636  1.00  0.00    -0.002 A 
HETATM   25  C   UNL     1      43.604 -13.291   6.741  1.00  0.00     0.042 A 
HETATM   26  C   UNL     1      42.940 -12.380   4.611  1.00  0.00     0.014 A 
HETATM   27  C   UNL     1      44.635 -12.353   6.871  1.00  0.00     0.030 A 
HETATM   28  N   UNL     1      43.218 -14.303   7.588  1.00  0.00    -0.365 N 
HETATM   29  C   UNL     1      44.803 -11.427   5.839  1.00  0.00     0.002 A 
HETATM   30  C   UNL     1      43.968 -11.437   4.724  1.00  0.00     0.001 A 
HETATM   31  H   UNL     1      43.660 -14.511   8.473  1.00  0.00     0.165 HD
HETATM   32  C   UNL     1      42.162 -14.988   7.056  1.00  0.00     0.096 A 
ENDBRANCH  22  23
ENDBRANCH   1  22
TORSDOF 6
ENDMDL
MODEL 8
REMARK VINA RESULT:      -8.6      2.293      7.610
REMARK  6 active torsions:
REMARK  status: ('A' for Active; 'I' for Inactive)
REMARK    1  A    between atoms: C_5  and  N_6 
REMARK       I    between atoms: N_6  and  C_7 
REMARK    2  A    between atoms: C_7  and  C_8 
REMARK    3  A    between atoms: C_8  and  N_9 
REMARK    4  A    between atoms: C_8  and  C_17 
REMARK       I    between atoms: N_9  and  C_10 
REMARK    5  A    between atoms: C_10  and  C_11 
REMARK    6  A    between atoms: C_17  and  C_18 
ROOT
HETATM    1  C   UNL     1      42.274 -12.997   3.423  1.00  0.00     0.181 C 
ENDROOT
BRANCH   1   2
HETATM    2  C   UNL     1      42.956 -14.304   2.933  1.00  0.00     0.245 C 
HETATM    3  N   UNL     1      42.590 -15.421   3.676  1.00  0.00    -0.325 N 
HETATM    4  H   UNL     1      41.951 -15.279   4.447  1.00  0.00     0.169 HD
HETATM    5  O   UNL     1      43.669 -14.322   1.932  1.00  0.00    -0.271 OA
BRANCH   3   6
HETATM    6  C   UNL     1      42.957 -16.765   3.451  1.00  0.00     0.034 A 
HETATM    7  C   UNL     1      42.534 -17.524   2.360  1.00  0.00     0.030 A 
HETATM    8  C   UNL     1      42.925 -18.863   2.229  1.00  0.00     0.009 A 
HETATM    9  C   UNL     1      43.746 -19.464   3.187  1.00  0.00    -0.062 A 
HETATM   10  C   UNL     1      44.173 -20.895   3.051  1.00  0.00     0.048 C 
HETATM   11  C   UNL     1      44.186 -18.700   4.271  1.00  0.00     0.009 A 
HETATM   12  C   UNL     1      43.794 -17.364   4.401  1.00  0.00     0.030 A 
ENDBRANCH   3   6
ENDBRANCH   1   2
BRANCH   1  13
HETATM   13  N   UNL     1      41.250 -12.561   2.474  1.00  0.00    -0.342 N 
HETATM   14  C   UNL     1      39.906 -12.481   2.761  1.00  0.00     0.276 C 
HETATM   15  O   UNL     1      39.416 -12.876   3.814  1.00  0.00    -0.265 OA
HETATM   16  H   UNL     1      41.546 -12.064   1.643  1.00  0.00     0.163 HD
BRANCH  14  17
HETATM   17  C   UNL     1      39.123 -11.898   1.689  1.00  0.00     0.142 A 
HETATM   18  O   UNL     1      39.690 -11.738   0.448  1.00  0.00    -0.317 OA
HETATM   19  C   UNL     1      38.746 -11.182  -0.355  1.00  0.00     0.143 A 
HETATM   20  C   UNL     1      37.578 -10.983   0.340  1.00  0.00     0.027 A 
HETATM   21  C   UNL     1      37.819 -11.440   1.657  1.00  0.00     0.045 A 
ENDBRANCH  14  17
ENDBRANCH   1  13
BRANCH   1  22
HETATM   22  C   UNL     1      43.285 -11.909   3.835  1.00  0.00     0.075 C 
BRANCH  22  23
HETATM   23  C   UNL     1      43.097 -11.430   5.245  1.00  0.00    -0.028 A 
HETATM   24  C   UNL     1      44.117 -11.156   6.215  1.00  0.00    -0.002 A 
HETATM   25  C   UNL     1      43.478 -10.767   7.393  1.00  0.00     0.042 A 
HETATM   26  C   UNL     1      45.527 -11.215   6.207  1.00  0.00     0.014 A 
HETATM   27  C   UNL     1      44.174 -10.442   8.563  1.00  0.00     0.030 A 
HETATM   28  N   UNL     1      42.125 -10.782   7.145  1.00  0.00    -0.365 N 
HETATM   29  C   UNL     1      45.569 -10.516   8.530  1.00  0.00     0.002 A 
HETATM   30  C   UNL     1      46.239 -10.895   7.369  1.00  0.00     0.001 A 
HETATM   31  H   UNL     1      41.414 -10.544   7.823  1.00  0.00     0.165 HD
HETATM   32  C   UNL     1      41.885 -11.175   5.858  1.00  0.00     0.096 A 
ENDBRANCH  22  23
ENDBRANCH   1  22
TORSDOF 6
ENDMDL
MODEL 9
REMARK VINA RESULT:      -8.3      2.527      8.130
REMARK  6 active torsions:
REMARK  status: ('A' for Active; 'I' for Inactive)
REMARK    1  A    between atoms: C_5  and  N_6 
REMARK       I    between atoms: N_6  and  C_7 
REMARK    2  A    between atoms: C_7  and  C_8 
REMARK    3  A    between atoms: C_8  and  N_9 
REMARK    4  A    between atoms: C_8  and  C_17 
REMARK       I    between atoms: N_9  and  C_10 
REMARK    5  A    between atoms: C_10  and  C_11 
REMARK    6  A    between atoms: C_17  and  C_18 
ROOT
HETATM    1  C   UNL     1      41.673 -13.643   2.728  1.00  0.00     0.181 C 
ENDROOT
BRANCH   1   2
HETATM    2  C   UNL     1      41.695 -15.120   3.211  1.00  0.00     0.245 C 
HETATM    3  N   UNL     1      42.960 -15.694   3.147  1.00  0.00    -0.325 N 
HETATM    4  H   UNL     1      43.713 -15.124   2.789  1.00  0.00     0.169 HD
HETATM    5  O   UNL     1      40.695 -15.659   3.679  1.00  0.00    -0.271 OA
BRANCH   3   6
HETATM    6  C   UNL     1      43.346 -16.981   3.582  1.00  0.00     0.034 A 
HETATM    7  C   UNL     1      43.558 -18.068   2.734  1.00  0.00     0.030 A 
HETATM    8  C   UNL     1      43.913 -19.318   3.255  1.00  0.00     0.009 A 
HETATM    9  C   UNL     1      44.062 -19.503   4.633  1.00  0.00    -0.062 A 
HETATM   10  C   UNL     1      44.447 -20.838   5.197  1.00  0.00     0.048 C 
HETATM   11  C   UNL     1      43.869 -18.410   5.482  1.00  0.00     0.009 A 
HETATM   12  C   UNL     1      43.513 -17.163   4.961  1.00  0.00     0.030 A 
ENDBRANCH   3   6
ENDBRANCH   1   2
BRANCH   1  13
HETATM   13  N   UNL     1      41.388 -13.572   1.296  1.00  0.00    -0.342 N 
HETATM   14  C   UNL     1      40.849 -12.475   0.662  1.00  0.00     0.276 C 
HETATM   15  O   UNL     1      40.447 -11.481   1.259  1.00  0.00    -0.265 OA
HETATM   16  H   UNL     1      41.819 -14.255   0.686  1.00  0.00     0.163 HD
BRANCH  14  17
HETATM   17  C   UNL     1      40.787 -12.616  -0.779  1.00  0.00     0.142 A 
HETATM   18  O   UNL     1      40.298 -13.778  -1.325  1.00  0.00    -0.317 OA
HETATM   19  C   UNL     1      40.348 -13.639  -2.674  1.00  0.00     0.143 A 
HETATM   20  C   UNL     1      40.855 -12.408  -3.014  1.00  0.00     0.027 A 
HETATM   21  C   UNL     1      41.141 -11.748  -1.796  1.00  0.00     0.045 A 
ENDBRANCH  14  17
ENDBRANCH   1  13
BRANCH   1  22
HETATM   22  C   UNL     1      42.908 -12.843   3.186  1.00  0.00     0.075 C 
BRANCH  22  23
HETATM   23  C   UNL     1      42.760 -12.264   4.564  1.00  0.00    -0.028 A 
HETATM   24  C   UNL     1      42.294 -10.953   4.912  1.00  0.00    -0.002 A 
HETATM   25  C   UNL     1      42.355 -10.845   6.302  1.00  0.00     0.042 A 
HETATM   26  C   UNL     1      41.836  -9.841   4.174  1.00  0.00     0.014 A 
HETATM   27  C   UNL     1      41.991  -9.681   6.990  1.00  0.00     0.030 A 
HETATM   28  N   UNL     1      42.818 -12.047   6.782  1.00  0.00    -0.365 N 
HETATM   29  C   UNL     1      41.550  -8.592   6.234  1.00  0.00     0.002 A 
HETATM   30  C   UNL     1      41.471  -8.669   4.846  1.00  0.00     0.001 A 
HETATM   31  H   UNL     1      42.964 -12.257   7.761  1.00  0.00     0.165 HD
HETATM   32  C   UNL     1      43.061 -12.908   5.749  1.00  0.00     0.096 A 
ENDBRANCH  22  23
ENDBRANCH   1  22
TORSDOF 6
ENDMDL
MODEL 10
REMARK VINA RESULT:      -8.3     14.989     17.907
REMARK  6 active torsions:
REMARK  status: ('A' for Active; 'I' for Inactive)
REMARK    1  A    between atoms: C_5  and  N_6 
REMARK       I    between atoms: N_6  and  C_7 
REMARK    2  A    between atoms: C_7  and  C_8 
REMARK    3  A    between atoms: C_8  and  N_9 
REMARK    4  A    between atoms: C_8  and  C_17 
REMARK       I    between atoms: N_9  and  C_10 
REMARK    5  A    between atoms: C_10  and  C_11 
REMARK    6  A    between atoms: C_17  and  C_18 
ROOT
HETATM    1  C   UNL     1      46.112 -28.556   0.405  1.00  0.00     0.181 C 
ENDROOT
BRANCH   1   2
HETATM    2  C   UNL     1      47.167 -28.560   1.546  1.00  0.00     0.245 C 
HETATM    3  N   UNL     1      47.730 -29.812   1.762  1.00  0.00    -0.325 N 
HETATM    4  H   UNL     1      47.400 -30.577   1.190  1.00  0.00     0.169 HD
HETATM    5  O   UNL     1      47.505 -27.523   2.113  1.00  0.00    -0.271 OA
BRANCH   3   6
HETATM    6  C   UNL     1      48.768 -30.148   2.658  1.00  0.00     0.034 A 
HETATM    7  C   UNL     1      50.125 -29.952   2.400  1.00  0.00     0.030 A 
HETATM    8  C   UNL     1      51.091 -30.342   3.336  1.00  0.00     0.009 A 
HETATM    9  C   UNL     1      50.717 -30.933   4.546  1.00  0.00    -0.062 A 
HETATM   10  C   UNL     1      51.746 -31.348   5.555  1.00  0.00     0.048 C 
HETATM   11  C   UNL     1      49.357 -31.113   4.814  1.00  0.00     0.009 A 
HETATM   12  C   UNL     1      48.394 -30.725   3.879  1.00  0.00     0.030 A 
ENDBRANCH   3   6
ENDBRANCH   1   2
BRANCH   1  13
HETATM   13  N   UNL     1      45.377 -29.819   0.376  1.00  0.00    -0.342 N 
HETATM   14  C   UNL     1      44.011 -29.923   0.233  1.00  0.00     0.276 C 
HETATM   15  O   UNL     1      43.258 -28.954   0.227  1.00  0.00    -0.265 OA
HETATM   16  H   UNL     1      45.896 -30.673   0.210  1.00  0.00     0.163 HD
BRANCH  14  17
HETATM   17  C   UNL     1      43.549 -31.290   0.105  1.00  0.00     0.142 A 
HETATM   18  O   UNL     1      42.796 -31.847   1.111  1.00  0.00    -0.317 OA
HETATM   19  C   UNL     1      42.498 -33.116   0.733  1.00  0.00     0.143 A 
HETATM   20  C   UNL     1      43.039 -33.393  -0.500  1.00  0.00     0.027 A 
HETATM   21  C   UNL     1      43.718 -32.220  -0.905  1.00  0.00     0.045 A 
ENDBRANCH  14  17
ENDBRANCH   1  13
BRANCH   1  22
HETATM   22  C   UNL     1      46.696 -28.111  -0.950  1.00  0.00     0.075 C 
BRANCH  22  23
HETATM   23  C   UNL     1      46.749 -29.218  -1.964  1.00  0.00    -0.028 A 
HETATM   24  C   UNL     1      45.771 -29.532  -2.964  1.00  0.00    -0.002 A 
HETATM   25  C   UNL     1      46.226 -30.656  -3.654  1.00  0.00     0.042 A 
HETATM   26  C   UNL     1      44.532 -28.971  -3.340  1.00  0.00     0.014 A 
HETATM   27  C   UNL     1      45.502 -31.253  -4.694  1.00  0.00     0.030 A 
HETATM   28  N   UNL     1      47.441 -31.001  -3.111  1.00  0.00    -0.365 N 
HETATM   29  C   UNL     1      44.275 -30.683  -5.040  1.00  0.00     0.002 A 
HETATM   30  C   UNL     1      43.794 -29.557  -4.375  1.00  0.00     0.001 A 
HETATM   31  H   UNL     1      48.005 -31.782  -3.416  1.00  0.00     0.165 HD
HETATM   32  C   UNL     1      47.768 -30.143  -2.099  1.00  0.00     0.096 A 
ENDBRANCH  22  23
ENDBRANCH   1  22
TORSDOF 6
ENDMDL
