MODEL 1
REMARK VINA RESULT:      -8.6      0.000      0.000
REMARK  8 active torsions:
REMARK  status: ('A' for Active; 'I' for Inactive)
REMARK    1  A    between atoms: N_4  and  C_6 
REMARK    2  A    between atoms: C_6  and  C_7 
REMARK       I    between atoms: C_7  and  N_8 
REMARK    3  A    between atoms: N_8  and  C_9 
REMARK    4  A    between atoms: C_15  and  C_16 
REMARK    5  A    between atoms: C_21  and  C_22 
REMARK       I    between atoms: C_22  and  N_23 
REMARK    6  A    between atoms: N_23  and  C_24 
REMARK    7  A    between atoms: C_25  and  O_26 
REMARK    8  A    between atoms: C_29  and  O_30 
ROOT
HETATM    1  C   UNL     1      42.498 -10.895   5.098  1.00  0.00     0.093 C 
HETATM    2  S   UNL     1      41.831 -10.465   3.600  1.00  0.00    -0.075 SA
HETATM    3  C   UNL     1      42.140 -11.999   2.955  1.00  0.00    -0.008 C 
HETATM    4  C   UNL     1      42.854 -12.811   3.820  1.00  0.00    -0.026 C 
HETATM    5  C   UNL     1      43.340 -14.157   3.363  1.00  0.00     0.041 C 
HETATM    6  C   UNL     1      43.163 -14.374   1.856  1.00  0.00     0.010 C 
HETATM    7  C   UNL     1      41.811 -13.879   1.287  1.00  0.00    -0.002 C 
HETATM    8  C   UNL     1      41.686 -12.357   1.568  1.00  0.00     0.052 C 
HETATM    9  C   UNL     1      42.955 -12.210   5.143  1.00  0.00     0.073 C 
ENDROOT
BRANCH   9  10
HETATM   10  C   UNL     1      43.393 -12.794   6.427  1.00  0.00     0.259 C 
HETATM   11  N   UNL     1      42.718 -13.901   6.862  1.00  0.00    -0.320 N 
HETATM   12  H   UNL     1      42.330 -13.809   7.797  1.00  0.00     0.169 HD
HETATM   13  O   UNL     1      44.158 -12.179   7.175  1.00  0.00    -0.267 OA
BRANCH  11  14
HETATM   14  C   UNL     1      43.121 -15.243   6.644  1.00  0.00     0.068 A 
HETATM   15  C   UNL     1      42.129 -16.235   6.791  1.00  0.00     0.097 A 
HETATM   16  C   UNL     1      42.429 -17.571   6.510  1.00  0.00     0.075 A 
HETATM   17  C   UNL     1      43.710 -17.921   6.079  1.00  0.00     0.070 A 
HETATM   18  C   UNL     1      44.698 -16.937   5.974  1.00  0.00     0.039 A 
HETATM   19  C   UNL     1      44.412 -15.600   6.257  1.00  0.00     0.035 A 
BRANCH  15  20
HETATM   20  O   UNL     1      40.901 -15.776   7.213  1.00  0.00    -0.354 OA
HETATM   21  C   UNL     1      39.813 -15.922   6.307  1.00  0.00     0.210 C 
ENDBRANCH  15  20
BRANCH  17  22
HETATM   22  O   UNL     1      44.123 -19.181   5.742  1.00  0.00    -0.356 OA
HETATM   23  C   UNL     1      44.187 -19.491   4.355  1.00  0.00     0.210 C 
ENDBRANCH  17  22
ENDBRANCH  11  14
ENDBRANCH   9  10
BRANCH   1  24
HETATM   24  N   UNL     1      42.408 -10.010   6.166  1.00  0.00    -0.319 N 
HETATM   25  C   UNL     1      41.346  -9.931   7.039  1.00  0.00     0.248 C 
HETATM   26  O   UNL     1      40.217 -10.399   6.892  1.00  0.00    -0.271 OA
HETATM   27  H   UNL     1      43.085  -9.244   6.122  1.00  0.00     0.169 HD
BRANCH  25  28
HETATM   28  C   UNL     1      41.653  -9.140   8.315  1.00  0.00     0.337 C 
BRANCH  28  29
HETATM   29  N   UNL     1      43.075  -9.430   8.817  1.00  0.00    -0.062 N 
HETATM   30  C   UNL     1      44.002  -8.241   8.669  1.00  0.00     0.239 C 
HETATM   31  C   UNL     1      45.444  -8.658   8.981  1.00  0.00     0.007 C 
HETATM   32  C   UNL     1      46.030  -9.569   7.895  1.00  0.00     0.011 C 
HETATM   33  C   UNL     1      45.529  -9.304  10.369  1.00  0.00     0.007 C 
HETATM   34  C   UNL     1      44.517 -10.431  10.558  1.00  0.00     0.028 C 
HETATM   35  C   UNL     1      43.101 -10.002  10.204  1.00  0.00     0.235 C 
HETATM   36  H   UNL     1      43.420 -10.139   8.149  1.00  0.00     0.280 HD
ENDBRANCH  28  29
ENDBRANCH  25  28
ENDBRANCH   1  24
BRANCH   7  37
HETATM   37  C   UNL     1      40.543 -14.751   1.643  1.00  0.00    -0.047 C 
HETATM   38  C   UNL     1      39.503 -14.056   2.540  1.00  0.00     0.015 C 
HETATM   39  C   UNL     1      39.818 -15.150   0.334  1.00  0.00     0.015 C 
HETATM   40  C   UNL     1      40.973 -16.062   2.337  1.00  0.00     0.015 C 
ENDBRANCH   7  37
TORSDOF 8
ENDMDL
MODEL 2
REMARK VINA RESULT:      -8.5      2.425      5.396
REMARK  8 active torsions:
REMARK  status: ('A' for Active; 'I' for Inactive)
REMARK    1  A    between atoms: N_4  and  C_6 
REMARK    2  A    between atoms: C_6  and  C_7 
REMARK       I    between atoms: C_7  and  N_8 
REMARK    3  A    between atoms: N_8  and  C_9 
REMARK    4  A    between atoms: C_15  and  C_16 
REMARK    5  A    between atoms: C_21  and  C_22 
REMARK       I    between atoms: C_22  and  N_23 
REMARK    6  A    between atoms: N_23  and  C_24 
REMARK    7  A    between atoms: C_25  and  O_26 
REMARK    8  A    between atoms: C_29  and  O_30 
ROOT
HETATM    1  C   UNL     1      43.592 -13.031   6.742  1.00  0.00     0.093 C 
HETATM    2  S   UNL     1      44.063 -14.660   6.771  1.00  0.00    -0.075 SA
HETATM    3  C   UNL     1      42.789 -15.108   5.751  1.00  0.00    -0.008 C 
HETATM    4  C   UNL     1      41.929 -14.059   5.475  1.00  0.00    -0.026 C 
HETATM    5  C   UNL     1      40.664 -14.304   4.701  1.00  0.00     0.041 C 
HETATM    6  C   UNL     1      40.369 -15.795   4.498  1.00  0.00     0.010 C 
HETATM    7  C   UNL     1      41.603 -16.652   4.128  1.00  0.00    -0.002 C 
HETATM    8  C   UNL     1      42.653 -16.524   5.265  1.00  0.00     0.052 C 
HETATM    9  C   UNL     1      42.471 -12.794   5.951  1.00  0.00     0.073 C 
ENDROOT
BRANCH   9  10
HETATM   10  C   UNL     1      42.045 -11.407   5.674  1.00  0.00     0.259 C 
HETATM   11  N   UNL     1      42.539 -10.827   4.538  1.00  0.00    -0.320 N 
HETATM   12  H   UNL     1      43.017  -9.944   4.697  1.00  0.00     0.169 HD
HETATM   13  O   UNL     1      41.476 -10.734   6.537  1.00  0.00    -0.267 OA
BRANCH  11  14
HETATM   14  C   UNL     1      41.877 -10.790   3.284  1.00  0.00     0.068 A 
HETATM   15  C   UNL     1      41.182  -9.604   2.970  1.00  0.00     0.097 A 
HETATM   16  C   UNL     1      40.576  -9.460   1.718  1.00  0.00     0.075 A 
HETATM   17  C   UNL     1      40.665 -10.489   0.778  1.00  0.00     0.070 A 
HETATM   18  C   UNL     1      41.324 -11.676   1.113  1.00  0.00     0.039 A 
HETATM   19  C   UNL     1      41.928 -11.835   2.362  1.00  0.00     0.035 A 
BRANCH  15  20
HETATM   20  O   UNL     1      41.164  -8.655   3.966  1.00  0.00    -0.354 OA
HETATM   21  C   UNL     1      39.889  -8.280   4.477  1.00  0.00     0.210 C 
ENDBRANCH  15  20
BRANCH  17  22
HETATM   22  O   UNL     1      40.147 -10.462  -0.488  1.00  0.00    -0.356 OA
HETATM   23  C   UNL     1      40.292 -11.642  -1.270  1.00  0.00     0.210 C 
ENDBRANCH  17  22
ENDBRANCH  11  14
ENDBRANCH   9  10
BRANCH   1  24
HETATM   24  N   UNL     1      44.399 -12.075   7.347  1.00  0.00    -0.319 N 
HETATM   25  C   UNL     1      45.209 -11.187   6.677  1.00  0.00     0.248 C 
HETATM   26  O   UNL     1      45.573 -11.241   5.502  1.00  0.00    -0.271 OA
HETATM   27  H   UNL     1      44.541 -12.232   8.349  1.00  0.00     0.169 HD
BRANCH  25  28
HETATM   28  C   UNL     1      45.703 -10.025   7.545  1.00  0.00     0.337 C 
BRANCH  28  29
HETATM   29  N   UNL     1      44.688  -9.687   8.647  1.00  0.00    -0.062 N 
HETATM   30  C   UNL     1      45.341  -9.465   9.996  1.00  0.00     0.239 C 
HETATM   31  C   UNL     1      44.269  -9.349  11.086  1.00  0.00     0.007 C 
HETATM   32  C   UNL     1      43.577 -10.690  11.360  1.00  0.00     0.011 C 
HETATM   33  C   UNL     1      43.257  -8.252  10.731  1.00  0.00     0.007 C 
HETATM   34  C   UNL     1      42.681  -8.413   9.327  1.00  0.00     0.028 C 
HETATM   35  C   UNL     1      43.766  -8.565   8.270  1.00  0.00     0.235 C 
HETATM   36  H   UNL     1      44.144 -10.560   8.740  1.00  0.00     0.280 HD
ENDBRANCH  28  29
ENDBRANCH  25  28
ENDBRANCH   1  24
BRANCH   7  37
HETATM   37  C   UNL     1      42.157 -16.480   2.659  1.00  0.00    -0.047 C 
HETATM   38  C   UNL     1      43.205 -15.367   2.481  1.00  0.00     0.015 C 
HETATM   39  C   UNL     1      42.823 -17.804   2.209  1.00  0.00     0.015 C 
HETATM   40  C   UNL     1      40.996 -16.204   1.678  1.00  0.00     0.015 C 
ENDBRANCH   7  37
TORSDOF 8
ENDMDL
MODEL 3
REMARK VINA RESULT:      -8.0      2.652      9.032
REMARK  8 active torsions:
REMARK  status: ('A' for Active; 'I' for Inactive)
REMARK    1  A    between atoms: N_4  and  C_6 
REMARK    2  A    between atoms: C_6  and  C_7 
REMARK       I    between atoms: C_7  and  N_8 
REMARK    3  A    between atoms: N_8  and  C_9 
REMARK    4  A    between atoms: C_15  and  C_16 
REMARK    5  A    between atoms: C_21  and  C_22 
REMARK       I    between atoms: C_22  and  N_23 
REMARK    6  A    between atoms: N_23  and  C_24 
REMARK    7  A    between atoms: C_25  and  O_26 
REMARK    8  A    between atoms: C_29  and  O_30 
ROOT
HETATM    1  C   UNL     1      43.197 -11.442   6.042  1.00  0.00     0.093 C 
HETATM    2  S   UNL     1      44.372 -11.969   7.144  1.00  0.00    -0.075 SA
HETATM    3  C   UNL     1      44.260 -10.536   8.039  1.00  0.00    -0.008 C 
HETATM    4  C   UNL     1      43.427  -9.600   7.451  1.00  0.00    -0.026 C 
HETATM    5  C   UNL     1      43.317  -8.218   8.030  1.00  0.00     0.041 C 
HETATM    6  C   UNL     1      44.359  -7.944   9.120  1.00  0.00     0.010 C 
HETATM    7  C   UNL     1      44.580  -9.112  10.111  1.00  0.00    -0.002 C 
HETATM    8  C   UNL     1      45.042 -10.359   9.310  1.00  0.00     0.052 C 
HETATM    9  C   UNL     1      42.689 -10.178   6.337  1.00  0.00     0.073 C 
ENDROOT
BRANCH   9  10
HETATM   10  C   UNL     1      41.531  -9.656   5.583  1.00  0.00     0.259 C 
HETATM   11  N   UNL     1      40.330  -9.633   6.237  1.00  0.00    -0.320 N 
HETATM   12  H   UNL     1      39.583 -10.121   5.750  1.00  0.00     0.169 HD
HETATM   13  O   UNL     1      41.596  -9.480   4.363  1.00  0.00    -0.267 OA
BRANCH  11  14
HETATM   14  C   UNL     1      39.797  -8.516   6.928  1.00  0.00     0.068 A 
HETATM   15  C   UNL     1      39.249  -8.762   8.204  1.00  0.00     0.097 A 
HETATM   16  C   UNL     1      38.781  -7.698   8.980  1.00  0.00     0.075 A 
HETATM   17  C   UNL     1      38.861  -6.392   8.494  1.00  0.00     0.070 A 
HETATM   18  C   UNL     1      39.370  -6.161   7.212  1.00  0.00     0.039 A 
HETATM   19  C   UNL     1      39.836  -7.216   6.424  1.00  0.00     0.035 A 
BRANCH  15  20
HETATM   20  O   UNL     1      39.227 -10.084   8.586  1.00  0.00    -0.354 OA
HETATM   21  C   UNL     1      38.737 -10.370   9.891  1.00  0.00     0.210 C 
ENDBRANCH  15  20
BRANCH  17  22
HETATM   22  O   UNL     1      38.470  -5.265   9.163  1.00  0.00    -0.356 OA
HETATM   23  C   UNL     1      38.430  -5.338  10.584  1.00  0.00     0.210 C 
ENDBRANCH  17  22
ENDBRANCH  11  14
ENDBRANCH   9  10
BRANCH   1  24
HETATM   24  N   UNL     1      42.734 -12.316   5.066  1.00  0.00    -0.319 N 
HETATM   25  C   UNL     1      41.628 -13.127   5.193  1.00  0.00     0.248 C 
HETATM   26  O   UNL     1      41.033 -13.430   6.227  1.00  0.00    -0.271 OA
HETATM   27  H   UNL     1      43.414 -12.501   4.324  1.00  0.00     0.169 HD
BRANCH  25  28
HETATM   28  C   UNL     1      41.135 -13.711   3.865  1.00  0.00     0.337 C 
BRANCH  28  29
HETATM   29  N   UNL     1      42.055 -14.843   3.382  1.00  0.00    -0.062 N 
HETATM   30  C   UNL     1      41.542 -16.216   3.762  1.00  0.00     0.239 C 
HETATM   31  C   UNL     1      42.602 -17.278   3.447  1.00  0.00     0.007 C 
HETATM   32  C   UNL     1      43.807 -17.190   4.392  1.00  0.00     0.011 C 
HETATM   33  C   UNL     1      43.029 -17.192   1.976  1.00  0.00     0.007 C 
HETATM   34  C   UNL     1      43.441 -15.782   1.563  1.00  0.00     0.028 C 
HETATM   35  C   UNL     1      42.388 -14.743   1.922  1.00  0.00     0.235 C 
HETATM   36  H   UNL     1      42.913 -14.700   3.939  1.00  0.00     0.280 HD
ENDBRANCH  28  29
ENDBRANCH  25  28
ENDBRANCH   1  24
BRANCH   7  37
HETATM   37  C   UNL     1      43.428  -9.359  11.165  1.00  0.00    -0.047 C 
HETATM   38  C   UNL     1      41.998  -9.255  10.606  1.00  0.00     0.015 C 
HETATM   39  C   UNL     1      43.580 -10.781  11.759  1.00  0.00     0.015 C 
HETATM   40  C   UNL     1      43.555  -8.364  12.340  1.00  0.00     0.015 C 
ENDBRANCH   7  37
TORSDOF 8
ENDMDL
MODEL 4
REMARK VINA RESULT:      -7.9      2.758      5.921
REMARK  8 active torsions:
REMARK  status: ('A' for Active; 'I' for Inactive)
REMARK    1  A    between atoms: N_4  and  C_6 
REMARK    2  A    between atoms: C_6  and  C_7 
REMARK       I    between atoms: C_7  and  N_8 
REMARK    3  A    between atoms: N_8  and  C_9 
REMARK    4  A    between atoms: C_15  and  C_16 
REMARK    5  A    between atoms: C_21  and  C_22 
REMARK       I    between atoms: C_22  and  N_23 
REMARK    6  A    between atoms: N_23  and  C_24 
REMARK    7  A    between atoms: C_25  and  O_26 
REMARK    8  A    between atoms: C_29  and  O_30 
ROOT
HETATM    1  C   UNL     1      43.547 -13.009   6.116  1.00  0.00     0.093 C 
HETATM    2  S   UNL     1      43.182 -14.519   6.795  1.00  0.00    -0.075 SA
HETATM    3  C   UNL     1      42.551 -15.090   5.331  1.00  0.00    -0.008 C 
HETATM    4  C   UNL     1      42.500 -14.114   4.351  1.00  0.00    -0.026 C 
HETATM    5  C   UNL     1      41.840 -14.401   3.032  1.00  0.00     0.041 C 
HETATM    6  C   UNL     1      41.080 -15.732   3.025  1.00  0.00     0.010 C 
HETATM    7  C   UNL     1      41.819 -16.902   3.718  1.00  0.00    -0.002 C 
HETATM    8  C   UNL     1      42.084 -16.512   5.197  1.00  0.00     0.052 C 
HETATM    9  C   UNL     1      43.211 -12.913   4.768  1.00  0.00     0.073 C 
ENDROOT
BRANCH   9  10
HETATM   10  C   UNL     1      43.631 -11.731   3.987  1.00  0.00     0.259 C 
HETATM   11  N   UNL     1      42.810 -11.346   2.963  1.00  0.00    -0.320 N 
HETATM   12  H   UNL     1      43.275 -11.280   2.061  1.00  0.00     0.169 HD
HETATM   13  O   UNL     1      44.771 -11.270   4.097  1.00  0.00    -0.267 OA
BRANCH  11  14
HETATM   14  C   UNL     1      41.802 -10.353   3.052  1.00  0.00     0.068 A 
HETATM   15  C   UNL     1      41.325  -9.824   1.835  1.00  0.00     0.097 A 
HETATM   16  C   UNL     1      40.273  -8.903   1.838  1.00  0.00     0.075 A 
HETATM   17  C   UNL     1      39.693  -8.512   3.047  1.00  0.00     0.070 A 
HETATM   18  C   UNL     1      40.198  -9.013   4.251  1.00  0.00     0.039 A 
HETATM   19  C   UNL     1      41.253  -9.929   4.261  1.00  0.00     0.035 A 
BRANCH  15  20
HETATM   20  O   UNL     1      41.964 -10.284   0.706  1.00  0.00    -0.354 OA
HETATM   21  C   UNL     1      41.140 -10.661  -0.392  1.00  0.00     0.210 C 
ENDBRANCH  15  20
BRANCH  17  22
HETATM   22  O   UNL     1      38.642  -7.648   3.185  1.00  0.00    -0.356 OA
HETATM   23  C   UNL     1      37.697  -7.938   4.209  1.00  0.00     0.210 C 
ENDBRANCH  17  22
ENDBRANCH  11  14
ENDBRANCH   9  10
BRANCH   1  24
HETATM   24  N   UNL     1      44.256 -12.077   6.864  1.00  0.00    -0.319 N 
HETATM   25  C   UNL     1      43.699 -11.005   7.524  1.00  0.00     0.248 C 
HETATM   26  O   UNL     1      42.577 -10.525   7.364  1.00  0.00    -0.271 OA
HETATM   27  H   UNL     1      45.266 -12.099   6.697  1.00  0.00     0.169 HD
BRANCH  25  28
HETATM   28  C   UNL     1      44.634 -10.357   8.551  1.00  0.00     0.337 C 
BRANCH  28  29
HETATM   29  N   UNL     1      43.837  -9.599   9.624  1.00  0.00    -0.062 N 
HETATM   30  C   UNL     1      44.132 -10.089  11.026  1.00  0.00     0.239 C 
HETATM   31  C   UNL     1      43.156  -9.451  12.021  1.00  0.00     0.007 C 
HETATM   32  C   UNL     1      41.731  -9.994  11.861  1.00  0.00     0.011 C 
HETATM   33  C   UNL     1      43.195  -7.922  11.909  1.00  0.00     0.007 C 
HETATM   34  C   UNL     1      43.009  -7.431  10.476  1.00  0.00     0.028 C 
HETATM   35  C   UNL     1      43.964  -8.109   9.503  1.00  0.00     0.235 C 
HETATM   36  H   UNL     1      42.861  -9.876   9.430  1.00  0.00     0.280 HD
ENDBRANCH  28  29
ENDBRANCH  25  28
ENDBRANCH   1  24
BRANCH   7  37
HETATM   37  C   UNL     1      43.050 -17.510   2.935  1.00  0.00    -0.047 C 
HETATM   38  C   UNL     1      44.268 -17.863   3.807  1.00  0.00     0.015 C 
HETATM   39  C   UNL     1      42.607 -18.814   2.227  1.00  0.00     0.015 C 
HETATM   40  C   UNL     1      43.518 -16.535   1.832  1.00  0.00     0.015 C 
ENDBRANCH   7  37
TORSDOF 8
ENDMDL
MODEL 5
REMARK VINA RESULT:      -7.9      3.127      6.191
REMARK  8 active torsions:
REMARK  status: ('A' for Active; 'I' for Inactive)
REMARK    1  A    between atoms: N_4  and  C_6 
REMARK    2  A    between atoms: C_6  and  C_7 
REMARK       I    between atoms: C_7  and  N_8 
REMARK    3  A    between atoms: N_8  and  C_9 
REMARK    4  A    between atoms: C_15  and  C_16 
REMARK    5  A    between atoms: C_21  and  C_22 
REMARK       I    between atoms: C_22  and  N_23 
REMARK    6  A    between atoms: N_23  and  C_24 
REMARK    7  A    between atoms: C_25  and  O_26 
REMARK    8  A    between atoms: C_29  and  O_30 
ROOT
HETATM    1  C   UNL     1      41.516 -12.385   5.662  1.00  0.00     0.093 C 
HETATM    2  S   UNL     1      41.082 -13.924   6.226  1.00  0.00    -0.075 SA
HETATM    3  C   UNL     1      41.122 -14.573   4.663  1.00  0.00    -0.008 C 
HETATM    4  C   UNL     1      41.345 -13.614   3.690  1.00  0.00    -0.026 C 
HETATM    5  C   UNL     1      41.273 -13.984   2.235  1.00  0.00     0.041 C 
HETATM    6  C   UNL     1      40.718 -15.394   2.006  1.00  0.00     0.010 C 
HETATM    7  C   UNL     1      41.257 -16.466   2.984  1.00  0.00    -0.002 C 
HETATM    8  C   UNL     1      40.895 -16.040   4.432  1.00  0.00     0.052 C 
HETATM    9  C   UNL     1      41.712 -12.336   4.284  1.00  0.00     0.073 C 
ENDROOT
BRANCH   9  10
HETATM   10  C   UNL     1      42.271 -11.118   3.663  1.00  0.00     0.259 C 
HETATM   11  N   UNL     1      41.885 -10.850   2.378  1.00  0.00    -0.320 N 
HETATM   12  H   UNL     1      42.659 -10.733   1.729  1.00  0.00     0.169 HD
HETATM   13  O   UNL     1      43.213 -10.515   4.184  1.00  0.00    -0.267 OA
BRANCH  11  14
HETATM   14  C   UNL     1      40.819  -9.992   2.007  1.00  0.00     0.068 A 
HETATM   15  C   UNL     1      40.936  -9.338   0.762  1.00  0.00     0.097 A 
HETATM   16  C   UNL     1      39.888  -8.543   0.290  1.00  0.00     0.075 A 
HETATM   17  C   UNL     1      38.723  -8.402   1.047  1.00  0.00     0.070 A 
HETATM   18  C   UNL     1      38.632  -9.023   2.297  1.00  0.00     0.039 A 
HETATM   19  C   UNL     1      39.675  -9.814   2.784  1.00  0.00     0.035 A 
BRANCH  15  20
HETATM   20  O   UNL     1      42.122  -9.554   0.097  1.00  0.00    -0.354 OA
HETATM   21  C   UNL     1      42.112  -9.371  -1.314  1.00  0.00     0.210 C 
ENDBRANCH  15  20
BRANCH  17  22
HETATM   22  O   UNL     1      37.617  -7.683   0.686  1.00  0.00    -0.356 OA
HETATM   23  C   UNL     1      36.830  -7.136   1.738  1.00  0.00     0.210 C 
ENDBRANCH  17  22
ENDBRANCH  11  14
ENDBRANCH   9  10
BRANCH   1  24
HETATM   24  N   UNL     1      41.784 -11.373   6.576  1.00  0.00    -0.319 N 
HETATM   25  C   UNL     1      40.955 -10.305   6.837  1.00  0.00     0.248 C 
HETATM   26  O   UNL     1      40.008  -9.907   6.160  1.00  0.00    -0.271 OA
HETATM   27  H   UNL     1      42.762 -11.339   6.877  1.00  0.00     0.169 HD
BRANCH  25  28
HETATM   28  C   UNL     1      41.308  -9.548   8.121  1.00  0.00     0.337 C 
BRANCH  28  29
HETATM   29  N   UNL     1      42.721  -9.909   8.605  1.00  0.00    -0.062 N 
HETATM   30  C   UNL     1      43.796  -9.058   7.960  1.00  0.00     0.239 C 
HETATM   31  C   UNL     1      45.182  -9.606   8.314  1.00  0.00     0.007 C 
HETATM   32  C   UNL     1      45.471 -10.942   7.620  1.00  0.00     0.011 C 
HETATM   33  C   UNL     1      45.347  -9.711   9.836  1.00  0.00     0.007 C 
HETATM   34  C   UNL     1      44.204 -10.475  10.501  1.00  0.00     0.028 C 
HETATM   35  C   UNL     1      42.838  -9.935  10.101  1.00  0.00     0.235 C 
HETATM   36  H   UNL     1      42.859 -10.863   8.235  1.00  0.00     0.280 HD
ENDBRANCH  28  29
ENDBRANCH  25  28
ENDBRANCH   1  24
BRANCH   7  37
HETATM   37  C   UNL     1      42.750 -16.931   2.756  1.00  0.00    -0.047 C 
HETATM   38  C   UNL     1      43.542 -16.104   1.728  1.00  0.00     0.015 C 
HETATM   39  C   UNL     1      43.519 -16.844   4.097  1.00  0.00     0.015 C 
HETATM   40  C   UNL     1      42.788 -18.410   2.311  1.00  0.00     0.015 C 
ENDBRANCH   7  37
TORSDOF 8
ENDMDL
MODEL 6
REMARK VINA RESULT:      -7.9      2.410      5.848
REMARK  8 active torsions:
REMARK  status: ('A' for Active; 'I' for Inactive)
REMARK    1  A    between atoms: N_4  and  C_6 
REMARK    2  A    between atoms: C_6  and  C_7 
REMARK       I    between atoms: C_7  and  N_8 
REMARK    3  A    between atoms: N_8  and  C_9 
REMARK    4  A    between atoms: C_15  and  C_16 
REMARK    5  A    between atoms: C_21  and  C_22 
REMARK       I    between atoms: C_22  and  N_23 
REMARK    6  A    between atoms: N_23  and  C_24 
REMARK    7  A    between atoms: C_25  and  O_26 
REMARK    8  A    between atoms: C_29  and  O_30 
ROOT
HETATM    1  C   UNL     1      42.507 -12.617   6.060  1.00  0.00     0.093 C 
HETATM    2  S   UNL     1      42.376 -14.180   6.703  1.00  0.00    -0.075 SA
HETATM    3  C   UNL     1      41.899 -14.819   5.210  1.00  0.00    -0.008 C 
HETATM    4  C   UNL     1      41.720 -13.845   4.243  1.00  0.00    -0.026 C 
HETATM    5  C   UNL     1      41.162 -14.212   2.896  1.00  0.00     0.041 C 
HETATM    6  C   UNL     1      40.635 -15.650   2.842  1.00  0.00     0.010 C 
HETATM    7  C   UNL     1      41.535 -16.695   3.545  1.00  0.00    -0.002 C 
HETATM    8  C   UNL     1      41.681 -16.296   5.038  1.00  0.00     0.052 C 
HETATM    9  C   UNL     1      42.205 -12.551   4.701  1.00  0.00     0.073 C 
ENDROOT
BRANCH   9  10
HETATM   10  C   UNL     1      42.449 -11.301   3.953  1.00  0.00     0.259 C 
HETATM   11  N   UNL     1      41.369 -10.487   3.747  1.00  0.00    -0.320 N 
HETATM   12  H   UNL     1      41.204 -10.257   2.771  1.00  0.00     0.169 HD
HETATM   13  O   UNL     1      43.507 -11.122   3.344  1.00  0.00    -0.267 OA
BRANCH  11  14
HETATM   14  C   UNL     1      41.009  -9.384   4.563  1.00  0.00     0.068 A 
HETATM   15  C   UNL     1      39.905  -9.565   5.422  1.00  0.00     0.097 A 
HETATM   16  C   UNL     1      39.543  -8.554   6.316  1.00  0.00     0.075 A 
HETATM   17  C   UNL     1      40.277  -7.367   6.361  1.00  0.00     0.070 A 
HETATM   18  C   UNL     1      41.346  -7.181   5.479  1.00  0.00     0.039 A 
HETATM   19  C   UNL     1      41.714  -8.182   4.576  1.00  0.00     0.035 A 
BRANCH  15  20
HETATM   20  O   UNL     1      39.260 -10.775   5.299  1.00  0.00    -0.354 OA
HETATM   21  C   UNL     1      38.980 -11.482   6.502  1.00  0.00     0.210 C 
ENDBRANCH  15  20
BRANCH  17  22
HETATM   22  O   UNL     1      40.048  -6.317   7.208  1.00  0.00    -0.356 OA
HETATM   23  C   UNL     1      41.169  -5.514   7.559  1.00  0.00     0.210 C 
ENDBRANCH  17  22
ENDBRANCH  11  14
ENDBRANCH   9  10
BRANCH   1  24
HETATM   24  N   UNL     1      43.025 -11.595   6.846  1.00  0.00    -0.319 N 
HETATM   25  C   UNL     1      44.366 -11.349   7.038  1.00  0.00     0.248 C 
HETATM   26  O   UNL     1      45.310 -12.102   6.797  1.00  0.00    -0.271 OA
HETATM   27  H   UNL     1      42.339 -11.175   7.479  1.00  0.00     0.169 HD
BRANCH  25  28
HETATM   28  C   UNL     1      44.662  -9.972   7.641  1.00  0.00     0.337 C 
BRANCH  28  29
HETATM   29  N   UNL     1      43.867  -9.754   8.938  1.00  0.00    -0.062 N 
HETATM   30  C   UNL     1      44.756  -9.440  10.123  1.00  0.00     0.239 C 
HETATM   31  C   UNL     1      43.931  -9.450  11.415  1.00  0.00     0.007 C 
HETATM   32  C   UNL     1      43.483 -10.863  11.805  1.00  0.00     0.011 C 
HETATM   33  C   UNL     1      42.739  -8.490  11.300  1.00  0.00     0.007 C 
HETATM   34  C   UNL     1      41.905  -8.734  10.045  1.00  0.00     0.028 C 
HETATM   35  C   UNL     1      42.755  -8.759   8.782  1.00  0.00     0.235 C 
HETATM   36  H   UNL     1      43.467 -10.688   9.127  1.00  0.00     0.280 HD
ENDBRANCH  28  29
ENDBRANCH  25  28
ENDBRANCH   1  24
BRANCH   7  37
HETATM   37  C   UNL     1      42.875 -17.074   2.800  1.00  0.00    -0.047 C 
HETATM   38  C   UNL     1      43.313 -16.090   1.701  1.00  0.00     0.015 C 
HETATM   39  C   UNL     1      44.028 -17.144   3.832  1.00  0.00     0.015 C 
HETATM   40  C   UNL     1      42.755 -18.477   2.164  1.00  0.00     0.015 C 
ENDBRANCH   7  37
TORSDOF 8
ENDMDL
MODEL 7
REMARK VINA RESULT:      -7.8      2.548      7.916
REMARK  8 active torsions:
REMARK  status: ('A' for Active; 'I' for Inactive)
REMARK    1  A    between atoms: N_4  and  C_6 
REMARK    2  A    between atoms: C_6  and  C_7 
REMARK       I    between atoms: C_7  and  N_8 
REMARK    3  A    between atoms: N_8  and  C_9 
REMARK    4  A    between atoms: C_15  and  C_16 
REMARK    5  A    between atoms: C_21  and  C_22 
REMARK       I    between atoms: C_22  and  N_23 
REMARK    6  A    between atoms: N_23  and  C_24 
REMARK    7  A    between atoms: C_25  and  O_26 
REMARK    8  A    between atoms: C_29  and  O_30 
ROOT
HETATM    1  C   UNL     1      43.325 -12.647   6.366  1.00  0.00     0.093 C 
HETATM    2  S   UNL     1      44.652 -11.934   7.144  1.00  0.00    -0.075 SA
HETATM    3  C   UNL     1      43.803 -10.491   7.397  1.00  0.00    -0.008 C 
HETATM    4  C   UNL     1      42.556 -10.490   6.795  1.00  0.00    -0.026 C 
HETATM    5  C   UNL     1      41.720  -9.241   6.794  1.00  0.00     0.041 C 
HETATM    6  C   UNL     1      42.486  -8.011   7.293  1.00  0.00     0.010 C 
HETATM    7  C   UNL     1      43.379  -8.265   8.531  1.00  0.00    -0.002 C 
HETATM    8  C   UNL     1      44.418  -9.362   8.174  1.00  0.00     0.052 C 
HETATM    9  C   UNL     1      42.212 -11.813   6.294  1.00  0.00     0.073 C 
ENDROOT
BRANCH   9  10
HETATM   10  C   UNL     1      40.922 -12.348   5.813  1.00  0.00     0.259 C 
HETATM   11  N   UNL     1      40.226 -11.571   4.927  1.00  0.00    -0.320 N 
HETATM   12  H   UNL     1      39.274 -11.363   5.217  1.00  0.00     0.169 HD
HETATM   13  O   UNL     1      40.393 -13.319   6.361  1.00  0.00    -0.267 OA
BRANCH  11  14
HETATM   14  C   UNL     1      40.277 -11.695   3.515  1.00  0.00     0.068 A 
HETATM   15  C   UNL     1      39.303 -10.986   2.782  1.00  0.00     0.097 A 
HETATM   16  C   UNL     1      39.340 -10.992   1.384  1.00  0.00     0.075 A 
HETATM   17  C   UNL     1      40.345 -11.694   0.716  1.00  0.00     0.070 A 
HETATM   18  C   UNL     1      41.283 -12.426   1.452  1.00  0.00     0.039 A 
HETATM   19  C   UNL     1      41.253 -12.433   2.848  1.00  0.00     0.035 A 
BRANCH  15  20
HETATM   20  O   UNL     1      38.366 -10.324   3.541  1.00  0.00    -0.354 OA
HETATM   21  C   UNL     1      38.257  -8.918   3.348  1.00  0.00     0.210 C 
ENDBRANCH  15  20
BRANCH  17  22
HETATM   22  O   UNL     1      40.513 -11.753  -0.640  1.00  0.00    -0.356 OA
HETATM   23  C   UNL     1      39.483 -12.384  -1.392  1.00  0.00     0.210 C 
ENDBRANCH  17  22
ENDBRANCH  11  14
ENDBRANCH   9  10
BRANCH   1  24
HETATM   24  N   UNL     1      43.382 -13.990   6.012  1.00  0.00    -0.319 N 
HETATM   25  C   UNL     1      43.187 -15.044   6.876  1.00  0.00     0.248 C 
HETATM   26  O   UNL     1      43.202 -15.019   8.107  1.00  0.00    -0.271 OA
HETATM   27  H   UNL     1      43.821 -14.157   5.102  1.00  0.00     0.169 HD
BRANCH  25  28
HETATM   28  C   UNL     1      42.948 -16.384   6.173  1.00  0.00     0.337 C 
BRANCH  28  29
HETATM   29  N   UNL     1      42.467 -16.173   4.729  1.00  0.00    -0.062 N 
HETATM   30  C   UNL     1      43.174 -17.076   3.739  1.00  0.00     0.239 C 
HETATM   31  C   UNL     1      42.812 -16.669   2.306  1.00  0.00     0.007 C 
HETATM   32  C   UNL     1      43.437 -15.326   1.911  1.00  0.00     0.011 C 
HETATM   33  C   UNL     1      41.289 -16.662   2.117  1.00  0.00     0.007 C 
HETATM   34  C   UNL     1      40.566 -15.841   3.182  1.00  0.00     0.028 C 
HETATM   35  C   UNL     1      40.974 -16.240   4.594  1.00  0.00     0.235 C 
HETATM   36  H   UNL     1      42.787 -15.215   4.513  1.00  0.00     0.280 HD
ENDBRANCH  28  29
ENDBRANCH  25  28
ENDBRANCH   1  24
BRANCH   7  37
HETATM   37  C   UNL     1      42.625  -8.453   9.908  1.00  0.00    -0.047 C 
HETATM   38  C   UNL     1      41.134  -8.814   9.792  1.00  0.00     0.015 C 
HETATM   39  C   UNL     1      43.307  -9.589  10.709  1.00  0.00     0.015 C 
HETATM   40  C   UNL     1      42.741  -7.169  10.760  1.00  0.00     0.015 C 
ENDBRANCH   7  37
TORSDOF 8
ENDMDL
MODEL 8
REMARK VINA RESULT:      -7.7     17.488     19.398
REMARK  8 active torsions:
REMARK  status: ('A' for Active; 'I' for Inactive)
REMARK    1  A    between atoms: N_4  and  C_6 
REMARK    2  A    between atoms: C_6  and  C_7 
REMARK       I    between atoms: C_7  and  N_8 
REMARK    3  A    between atoms: N_8  and  C_9 
REMARK    4  A    between atoms: C_15  and  C_16 
REMARK    5  A    between atoms: C_21  and  C_22 
REMARK       I    between atoms: C_22  and  N_23 
REMARK    6  A    between atoms: N_23  and  C_24 
REMARK    7  A    between atoms: C_25  and  O_26 
REMARK    8  A    between atoms: C_29  and  O_30 
ROOT
HETATM    1  C   UNL     1      45.377 -29.246   0.627  1.00  0.00     0.093 C 
HETATM    2  S   UNL     1      43.817 -29.536   0.031  1.00  0.00    -0.075 SA
HETATM    3  C   UNL     1      44.319 -29.293  -1.568  1.00  0.00    -0.008 C 
HETATM    4  C   UNL     1      45.636 -28.876  -1.659  1.00  0.00    -0.026 C 
HETATM    5  C   UNL     1      46.210 -28.475  -2.988  1.00  0.00     0.041 C 
HETATM    6  C   UNL     1      45.148 -28.368  -4.088  1.00  0.00     0.010 C 
HETATM    7  C   UNL     1      44.097 -29.503  -4.083  1.00  0.00    -0.002 C 
HETATM    8  C   UNL     1      43.367 -29.495  -2.713  1.00  0.00     0.052 C 
HETATM    9  C   UNL     1      46.309 -28.973  -0.371  1.00  0.00     0.073 C 
ENDROOT
BRANCH   9  10
HETATM   10  C   UNL     1      47.744 -28.881  -0.033  1.00  0.00     0.259 C 
HETATM   11  N   UNL     1      48.426 -30.061   0.084  1.00  0.00    -0.320 N 
HETATM   12  H   UNL     1      48.905 -30.176   0.973  1.00  0.00     0.169 HD
HETATM   13  O   UNL     1      48.237 -27.819   0.357  1.00  0.00    -0.267 OA
BRANCH  11  14
HETATM   14  C   UNL     1      49.182 -30.674  -0.947  1.00  0.00     0.068 A 
HETATM   15  C   UNL     1      48.576 -31.756  -1.619  1.00  0.00     0.097 A 
HETATM   16  C   UNL     1      49.225 -32.357  -2.702  1.00  0.00     0.075 A 
HETATM   17  C   UNL     1      50.470 -31.881  -3.120  1.00  0.00     0.070 A 
HETATM   18  C   UNL     1      51.080 -30.834  -2.423  1.00  0.00     0.039 A 
HETATM   19  C   UNL     1      50.445 -30.229  -1.336  1.00  0.00     0.035 A 
BRANCH  15  20
HETATM   20  O   UNL     1      47.348 -32.136  -1.129  1.00  0.00    -0.354 OA
HETATM   21  C   UNL     1      46.808 -33.358  -1.619  1.00  0.00     0.210 C 
ENDBRANCH  15  20
BRANCH  17  22
HETATM   22  O   UNL     1      51.192 -32.357  -4.180  1.00  0.00    -0.356 OA
HETATM   23  C   UNL     1      50.468 -33.024  -5.207  1.00  0.00     0.210 C 
ENDBRANCH  17  22
ENDBRANCH  11  14
ENDBRANCH   9  10
BRANCH   1  24
HETATM   24  N   UNL     1      45.639 -29.442   1.978  1.00  0.00    -0.319 N 
HETATM   25  C   UNL     1      46.184 -30.585   2.519  1.00  0.00     0.248 C 
HETATM   26  O   UNL     1      46.280 -31.694   1.992  1.00  0.00    -0.271 OA
HETATM   27  H   UNL     1      45.175 -28.765   2.589  1.00  0.00     0.169 HD
BRANCH  25  28
HETATM   28  C   UNL     1      46.697 -30.407   3.952  1.00  0.00     0.337 C 
BRANCH  28  29
HETATM   29  N   UNL     1      48.195 -30.735   4.047  1.00  0.00    -0.062 N 
HETATM   30  C   UNL     1      49.069 -29.500   3.981  1.00  0.00     0.239 C 
HETATM   31  C   UNL     1      50.543 -29.905   3.862  1.00  0.00     0.007 C 
HETATM   32  C   UNL     1      50.866 -30.515   2.493  1.00  0.00     0.011 C 
HETATM   33  C   UNL     1      50.936 -30.846   5.008  1.00  0.00     0.007 C 
HETATM   34  C   UNL     1      49.988 -32.035   5.146  1.00  0.00     0.028 C 
HETATM   35  C   UNL     1      48.530 -31.606   5.223  1.00  0.00     0.235 C 
HETATM   36  H   UNL     1      48.377 -31.255   3.173  1.00  0.00     0.280 HD
ENDBRANCH  28  29
ENDBRANCH  25  28
ENDBRANCH   1  24
BRANCH   7  37
HETATM   37  C   UNL     1      44.592 -30.915  -4.591  1.00  0.00    -0.047 C 
HETATM   38  C   UNL     1      46.120 -31.101  -4.615  1.00  0.00     0.015 C 
HETATM   39  C   UNL     1      44.016 -32.017  -3.668  1.00  0.00     0.015 C 
HETATM   40  C   UNL     1      44.055 -31.192  -6.013  1.00  0.00     0.015 C 
ENDBRANCH   7  37
TORSDOF 8
ENDMDL
MODEL 9
REMARK VINA RESULT:      -7.6      2.776      8.506
REMARK  8 active torsions:
REMARK  status: ('A' for Active; 'I' for Inactive)
REMARK    1  A    between atoms: N_4  and  C_6 
REMARK    2  A    between atoms: C_6  and  C_7 
REMARK       I    between atoms: C_7  and  N_8 
REMARK    3  A    between atoms: N_8  and  C_9 
REMARK    4  A    between atoms: C_15  and  C_16 
REMARK    5  A    between atoms: C_21  and  C_22 
REMARK       I    between atoms: C_22  and  N_23 
REMARK    6  A    between atoms: N_23  and  C_24 
REMARK    7  A    between atoms: C_25  and  O_26 
REMARK    8  A    between atoms: C_29  and  O_30 
ROOT
HETATM    1  C   UNL     1      42.749 -11.650   6.157  1.00  0.00     0.093 C 
HETATM    2  S   UNL     1      44.067 -12.035   7.151  1.00  0.00    -0.075 SA
HETATM    3  C   UNL     1      43.913 -10.588   8.016  1.00  0.00    -0.008 C 
HETATM    4  C   UNL     1      42.946  -9.749   7.491  1.00  0.00    -0.026 C 
HETATM    5  C   UNL     1      42.768  -8.363   8.043  1.00  0.00     0.041 C 
HETATM    6  C   UNL     1      43.881  -7.963   9.017  1.00  0.00     0.010 C 
HETATM    7  C   UNL     1      44.300  -9.073  10.011  1.00  0.00    -0.002 C 
HETATM    8  C   UNL     1      44.794 -10.301   9.200  1.00  0.00     0.052 C 
HETATM    9  C   UNL     1      42.160 -10.426   6.469  1.00  0.00     0.073 C 
ENDROOT
BRANCH   9  10
HETATM   10  C   UNL     1      40.893 -10.033   5.820  1.00  0.00     0.259 C 
HETATM   11  N   UNL     1      40.974  -9.089   4.833  1.00  0.00    -0.320 N 
HETATM   12  H   UNL     1      40.377  -8.280   4.983  1.00  0.00     0.169 HD
HETATM   13  O   UNL     1      39.805 -10.356   6.304  1.00  0.00    -0.267 OA
BRANCH  11  14
HETATM   14  C   UNL     1      41.063  -9.363   3.445  1.00  0.00     0.068 A 
HETATM   15  C   UNL     1      40.526  -8.394   2.572  1.00  0.00     0.097 A 
HETATM   16  C   UNL     1      40.652  -8.554   1.189  1.00  0.00     0.075 A 
HETATM   17  C   UNL     1      41.314  -9.670   0.673  1.00  0.00     0.070 A 
HETATM   18  C   UNL     1      41.810 -10.644   1.545  1.00  0.00     0.039 A 
HETATM   19  C   UNL     1      41.685 -10.499   2.929  1.00  0.00     0.035 A 
BRANCH  15  20
HETATM   20  O   UNL     1      39.902  -7.333   3.188  1.00  0.00    -0.354 OA
HETATM   21  C   UNL     1      38.534  -7.113   2.863  1.00  0.00     0.210 C 
ENDBRANCH  15  20
BRANCH  17  22
HETATM   22  O   UNL     1      41.533  -9.927  -0.652  1.00  0.00    -0.356 OA
HETATM   23  C   UNL     1      40.596 -10.774  -1.309  1.00  0.00     0.210 C 
ENDBRANCH  17  22
ENDBRANCH  11  14
ENDBRANCH   9  10
BRANCH   1  24
HETATM   24  N   UNL     1      42.275 -12.594   5.254  1.00  0.00    -0.319 N 
HETATM   25  C   UNL     1      41.203 -13.428   5.474  1.00  0.00     0.248 C 
HETATM   26  O   UNL     1      40.660 -13.687   6.548  1.00  0.00    -0.271 OA
HETATM   27  H   UNL     1      42.930 -12.801   4.495  1.00  0.00     0.169 HD
BRANCH  25  28
HETATM   28  C   UNL     1      40.675 -14.104   4.204  1.00  0.00     0.337 C 
BRANCH  28  29
HETATM   29  N   UNL     1      41.763 -14.961   3.540  1.00  0.00    -0.062 N 
HETATM   30  C   UNL     1      41.362 -16.416   3.407  1.00  0.00     0.239 C 
HETATM   31  C   UNL     1      42.561 -17.250   2.943  1.00  0.00     0.007 C 
HETATM   32  C   UNL     1      43.631 -17.383   4.034  1.00  0.00     0.011 C 
HETATM   33  C   UNL     1      43.145 -16.678   1.645  1.00  0.00     0.007 C 
HETATM   34  C   UNL     1      43.446 -15.184   1.742  1.00  0.00     0.028 C 
HETATM   35  C   UNL     1      42.251 -14.385   2.243  1.00  0.00     0.235 C 
HETATM   36  H   UNL     1      42.530 -14.943   4.232  1.00  0.00     0.280 HD
ENDBRANCH  28  29
ENDBRANCH  25  28
ENDBRANCH   1  24
BRANCH   7  37
HETATM   37  C   UNL     1      43.282  -9.385  11.179  1.00  0.00    -0.047 C 
HETATM   38  C   UNL     1      41.798  -9.374  10.771  1.00  0.00     0.015 C 
HETATM   39  C   UNL     1      43.584 -10.790  11.754  1.00  0.00     0.015 C 
HETATM   40  C   UNL     1      43.468  -8.375  12.334  1.00  0.00     0.015 C 
ENDBRANCH   7  37
TORSDOF 8
ENDMDL
MODEL 10
REMARK VINA RESULT:      -7.6      2.501      7.987
REMARK  8 active torsions:
REMARK  status: ('A' for Active; 'I' for Inactive)
REMARK    1  A    between atoms: N_4  and  C_6 
REMARK    2  A    between atoms: C_6  and  C_7 
REMARK       I    between atoms: C_7  and  N_8 
REMARK    3  A    between atoms: N_8  and  C_9 
REMARK    4  A    between atoms: C_15  and  C_16 
REMARK    5  A    between atoms: C_21  and  C_22 
REMARK       I    between atoms: C_22  and  N_23 
REMARK    6  A    between atoms: N_23  and  C_24 
REMARK    7  A    between atoms: C_25  and  O_26 
REMARK    8  A    between atoms: C_29  and  O_30 
ROOT
HETATM    1  C   UNL     1      42.518 -12.725   5.982  1.00  0.00     0.093 C 
HETATM    2  S   UNL     1      44.048 -12.538   6.686  1.00  0.00    -0.075 SA
HETATM    3  C   UNL     1      43.627 -11.038   7.347  1.00  0.00    -0.008 C 
HETATM    4  C   UNL     1      42.373 -10.608   6.946  1.00  0.00    -0.026 C 
HETATM    5  C   UNL     1      41.890  -9.235   7.320  1.00  0.00     0.041 C 
HETATM    6  C   UNL     1      42.989  -8.366   7.941  1.00  0.00     0.010 C 
HETATM    7  C   UNL     1      43.896  -9.100   8.958  1.00  0.00    -0.002 C 
HETATM    8  C   UNL     1      44.580 -10.293   8.239  1.00  0.00     0.052 C 
HETATM    9  C   UNL     1      41.655 -11.663   6.243  1.00  0.00     0.073 C 
ENDROOT
BRANCH   9  10
HETATM   10  C   UNL     1      40.233 -11.757   5.857  1.00  0.00     0.259 C 
HETATM   11  N   UNL     1      39.871 -11.150   4.686  1.00  0.00    -0.320 N 
HETATM   12  H   UNL     1      39.113 -10.480   4.784  1.00  0.00     0.169 HD
HETATM   13  O   UNL     1      39.382 -12.150   6.660  1.00  0.00    -0.267 OA
BRANCH  11  14
HETATM   14  C   UNL     1      39.778 -11.792   3.426  1.00  0.00     0.068 A 
HETATM   15  C   UNL     1      39.795 -10.960   2.287  1.00  0.00     0.097 A 
HETATM   16  C   UNL     1      39.792 -11.525   1.009  1.00  0.00     0.075 A 
HETATM   17  C   UNL     1      39.777 -12.914   0.860  1.00  0.00     0.070 A 
HETATM   18  C   UNL     1      39.721 -13.730   1.995  1.00  0.00     0.039 A 
HETATM   19  C   UNL     1      39.718 -13.177   3.277  1.00  0.00     0.035 A 
BRANCH  15  20
HETATM   20  O   UNL     1      39.817  -9.609   2.551  1.00  0.00    -0.354 OA
HETATM   21  C   UNL     1      40.572  -8.792   1.664  1.00  0.00     0.210 C 
ENDBRANCH  15  20
BRANCH  17  22
HETATM   22  O   UNL     1      39.805 -13.590  -0.328  1.00  0.00    -0.356 OA
HETATM   23  C   UNL     1      38.893 -13.166  -1.334  1.00  0.00     0.210 C 
ENDBRANCH  17  22
ENDBRANCH  11  14
ENDBRANCH   9  10
BRANCH   1  24
HETATM   24  N   UNL     1      42.194 -13.924   5.358  1.00  0.00    -0.319 N 
HETATM   25  C   UNL     1      41.683 -15.032   5.995  1.00  0.00     0.248 C 
HETATM   26  O   UNL     1      41.675 -15.267   7.204  1.00  0.00    -0.271 OA
HETATM   27  H   UNL     1      42.589 -14.018   4.419  1.00  0.00     0.169 HD
BRANCH  25  28
HETATM   28  C   UNL     1      41.085 -16.072   5.042  1.00  0.00     0.337 C 
BRANCH  28  29
HETATM   29  N   UNL     1      42.129 -17.129   4.651  1.00  0.00    -0.062 N 
HETATM   30  C   UNL     1      42.980 -16.702   3.472  1.00  0.00     0.239 C 
HETATM   31  C   UNL     1      43.845 -17.875   2.997  1.00  0.00     0.007 C 
HETATM   32  C   UNL     1      43.012 -18.971   2.322  1.00  0.00     0.011 C 
HETATM   33  C   UNL     1      44.680 -18.432   4.157  1.00  0.00     0.007 C 
HETATM   34  C   UNL     1      43.837 -18.759   5.387  1.00  0.00     0.028 C 
HETATM   35  C   UNL     1      42.959 -17.590   5.813  1.00  0.00     0.235 C 
HETATM   36  H   UNL     1      41.552 -17.914   4.310  1.00  0.00     0.280 HD
ENDBRANCH  28  29
ENDBRANCH  25  28
ENDBRANCH   1  24
BRANCH   7  37
HETATM   37  C   UNL     1      43.248  -9.423  10.363  1.00  0.00    -0.047 C 
HETATM   38  C   UNL     1      41.711  -9.494  10.373  1.00  0.00     0.015 C 
HETATM   39  C   UNL     1      43.768 -10.795  10.858  1.00  0.00     0.015 C 
HETATM   40  C   UNL     1      43.685  -8.372  11.408  1.00  0.00     0.015 C 
ENDBRANCH   7  37
TORSDOF 8
ENDMDL
