MODEL 1
REMARK VINA RESULT:      -9.1      0.000      0.000
REMARK  9 active torsions:
REMARK  status: ('A' for Active; 'I' for Inactive)
REMARK    1  A    between atoms: O_2  and  C_3 
REMARK    2  A    between atoms: C_5  and  O_6 
REMARK    3  A    between atoms: C_8  and  N_9 
REMARK    4  A    between atoms: C_10  and  O_11 
REMARK    5  A    between atoms: C_10  and  C_12 
REMARK       I    between atoms: C_12  and  N_13 
REMARK    6  A    between atoms: N_13  and  C_14 
REMARK    7  A    between atoms: C_14  and  C_15 
REMARK    8  A    between atoms: C_15  and  N_16 
REMARK    9  A    between atoms: N_20  and  C_21 
ROOT
HETATM    1  N   UNL     1      43.136 -12.393   5.091  1.00  0.00    -0.251 N 
HETATM    2  C   UNL     1      42.282 -13.512   5.509  1.00  0.00     0.256 C 
HETATM    3  C   UNL     1      42.579 -14.764   4.700  1.00  0.00     0.034 A 
HETATM    4  C   UNL     1      43.027 -14.603   3.394  1.00  0.00     0.048 A 
HETATM    5  N   UNL     1      43.289 -13.317   2.936  1.00  0.00    -0.308 N 
HETATM    6  C   UNL     1      43.447 -12.234   3.749  1.00  0.00     0.330 C 
HETATM    7  O   UNL     1      43.829 -11.176   3.250  1.00  0.00    -0.246 OA
HETATM    8  C   UNL     1      42.370 -16.067   5.183  1.00  0.00     0.015 A 
HETATM    9  C   UNL     1      42.622 -17.172   4.368  1.00  0.00     0.001 A 
HETATM   10  C   UNL     1      43.056 -16.988   3.056  1.00  0.00     0.002 A 
HETATM   11  C   UNL     1      43.251 -15.699   2.562  1.00  0.00     0.030 A 
HETATM   12  H   UNL     1      43.636 -13.185   1.990  1.00  0.00     0.170 HD
ENDROOT
BRANCH   2  13
HETATM   13  O   UNL     1      42.542 -13.866   6.870  1.00  0.00    -0.359 OA
HETATM   14  H   UNL     1      42.487 -14.835   6.909  1.00  0.00     0.213 HD
ENDBRANCH   2  13
BRANCH   2  15
HETATM   15  C   UNL     1      40.725 -13.183   5.343  1.00  0.00     0.279 C 
HETATM   16  N   UNL     1      40.346 -12.329   4.323  1.00  0.00    -0.355 N 
HETATM   17  H   UNL     1      41.103 -11.755   3.950  1.00  0.00     0.162 HD
HETATM   18  O   UNL     1      39.854 -13.721   6.039  1.00  0.00    -0.268 OA
BRANCH  16  19
HETATM   19  C   UNL     1      39.002 -11.774   4.176  1.00  0.00     0.150 C 
BRANCH  19  20
HETATM   20  C   UNL     1      38.888 -10.374   3.525  1.00  0.00     0.254 C 
BRANCH  20  21
HETATM   21  N   UNL     1      38.701 -10.413   2.030  1.00  0.00    -0.067 N 
HETATM   22  H   UNL     1      38.560  -9.425   1.732  1.00  0.00     0.280 HD
HETATM   23  C   UNL     1      39.916 -10.879   1.232  1.00  0.00     0.254 C 
HETATM   24  C   UNL     1      39.663 -10.692  -0.281  1.00  0.00     0.150 C 
HETATM   25  N   UNL     1      38.432 -11.396  -0.688  1.00  0.00    -0.378 N 
HETATM   26  C   UNL     1      37.227 -11.039   0.078  1.00  0.00     0.150 C 
HETATM   27  C   UNL     1      37.457 -11.183   1.598  1.00  0.00     0.254 C 
BRANCH  25  28
HETATM   28  C   UNL     1      38.557 -12.614  -1.345  1.00  0.00     0.030 A 
HETATM   29  C   UNL     1      39.340 -13.671  -0.862  1.00  0.00     0.029 A 
HETATM   30  C   UNL     1      39.434 -14.891  -1.548  1.00  0.00     0.002 A 
HETATM   31  C   UNL     1      38.732 -15.086  -2.731  1.00  0.00     0.000 A 
HETATM   32  C   UNL     1      37.934 -14.065  -3.226  1.00  0.00     0.002 A 
HETATM   33  C   UNL     1      37.848 -12.850  -2.537  1.00  0.00     0.029 A 
ENDBRANCH  25  28
ENDBRANCH  20  21
ENDBRANCH  19  20
ENDBRANCH  16  19
ENDBRANCH   2  15
BRANCH   1  34
HETATM   34  C   UNL     1      43.742 -11.515   6.055  1.00  0.00     0.076 A 
HETATM   35  C   UNL     1      43.077 -10.421   6.640  1.00  0.00     0.098 A 
HETATM   36  C   UNL     1      43.659  -9.720   7.709  1.00  0.00     0.075 A 
HETATM   37  C   UNL     1      44.930 -10.062   8.167  1.00  0.00     0.070 A 
HETATM   38  C   UNL     1      45.633 -11.080   7.529  1.00  0.00     0.039 A 
HETATM   39  C   UNL     1      45.047 -11.799   6.486  1.00  0.00     0.035 A 
BRANCH  35  40
HETATM   40  O   UNL     1      41.833 -10.086   6.152  1.00  0.00    -0.354 OA
HETATM   41  C   UNL     1      40.853  -9.921   7.181  1.00  0.00     0.210 C 
ENDBRANCH  35  40
BRANCH  37  42
HETATM   42  O   UNL     1      45.592  -9.474   9.208  1.00  0.00    -0.356 OA
HETATM   43  C   UNL     1      45.036  -9.650  10.506  1.00  0.00     0.210 C 
ENDBRANCH  37  42
ENDBRANCH   1  34
TORSDOF 9
ENDMDL
MODEL 2
REMARK VINA RESULT:      -9.0      2.895      8.773
REMARK  9 active torsions:
REMARK  status: ('A' for Active; 'I' for Inactive)
REMARK    1  A    between atoms: O_2  and  C_3 
REMARK    2  A    between atoms: C_5  and  O_6 
REMARK    3  A    between atoms: C_8  and  N_9 
REMARK    4  A    between atoms: C_10  and  O_11 
REMARK    5  A    between atoms: C_10  and  C_12 
REMARK       I    between atoms: C_12  and  N_13 
REMARK    6  A    between atoms: N_13  and  C_14 
REMARK    7  A    between atoms: C_14  and  C_15 
REMARK    8  A    between atoms: C_15  and  N_16 
REMARK    9  A    between atoms: N_20  and  C_21 
ROOT
HETATM    1  N   UNL     1      41.042 -12.739   5.192  1.00  0.00    -0.251 N 
HETATM    2  C   UNL     1      42.356 -12.819   4.540  1.00  0.00     0.256 C 
HETATM    3  C   UNL     1      42.476 -14.075   3.694  1.00  0.00     0.034 A 
HETATM    4  C   UNL     1      41.763 -15.199   4.094  1.00  0.00     0.048 A 
HETATM    5  N   UNL     1      40.893 -15.085   5.172  1.00  0.00    -0.308 N 
HETATM    6  C   UNL     1      40.444 -13.896   5.667  1.00  0.00     0.330 C 
HETATM    7  O   UNL     1      39.559 -13.914   6.522  1.00  0.00    -0.246 OA
HETATM    8  C   UNL     1      43.311 -14.175   2.568  1.00  0.00     0.015 A 
HETATM    9  C   UNL     1      43.407 -15.376   1.862  1.00  0.00     0.001 A 
HETATM   10  C   UNL     1      42.694 -16.495   2.289  1.00  0.00     0.002 A 
HETATM   11  C   UNL     1      41.876 -16.412   3.415  1.00  0.00     0.030 A 
HETATM   12  H   UNL     1      40.349 -15.892   5.463  1.00  0.00     0.170 HD
ENDROOT
BRANCH   2  13
HETATM   13  O   UNL     1      42.538 -11.729   3.633  1.00  0.00    -0.359 OA
HETATM   14  H   UNL     1      42.338 -10.924   4.140  1.00  0.00     0.213 HD
ENDBRANCH   2  13
BRANCH   2  15
HETATM   15  C   UNL     1      43.559 -12.826   5.596  1.00  0.00     0.279 C 
HETATM   16  N   UNL     1      44.176 -11.622   5.886  1.00  0.00    -0.355 N 
HETATM   17  H   UNL     1      44.014 -10.888   5.196  1.00  0.00     0.162 HD
HETATM   18  O   UNL     1      43.898 -13.846   6.211  1.00  0.00    -0.268 OA
BRANCH  16  19
HETATM   19  C   UNL     1      45.409 -11.499   6.660  1.00  0.00     0.150 C 
BRANCH  19  20
HETATM   20  C   UNL     1      45.518 -10.291   7.622  1.00  0.00     0.254 C 
BRANCH  20  21
HETATM   21  N   UNL     1      44.419 -10.234   8.652  1.00  0.00    -0.067 N 
HETATM   22  H   UNL     1      43.890 -11.126   8.557  1.00  0.00     0.280 HD
HETATM   23  C   UNL     1      44.886 -10.224  10.105  1.00  0.00     0.254 C 
HETATM   24  C   UNL     1      43.675 -10.359  11.054  1.00  0.00     0.150 C 
HETATM   25  N   UNL     1      42.688  -9.296  10.784  1.00  0.00    -0.378 N 
HETATM   26  C   UNL     1      42.234  -9.207   9.387  1.00  0.00     0.150 C 
HETATM   27  C   UNL     1      43.423  -9.105   8.408  1.00  0.00     0.254 C 
BRANCH  25  28
HETATM   28  C   UNL     1      42.639  -8.209  11.649  1.00  0.00     0.030 A 
HETATM   29  C   UNL     1      42.008  -6.999  11.328  1.00  0.00     0.029 A 
HETATM   30  C   UNL     1      41.968  -5.927  12.232  1.00  0.00     0.002 A 
HETATM   31  C   UNL     1      42.550  -6.047  13.488  1.00  0.00     0.000 A 
HETATM   32  C   UNL     1      43.167  -7.238  13.843  1.00  0.00     0.002 A 
HETATM   33  C   UNL     1      43.205  -8.302  12.934  1.00  0.00     0.029 A 
ENDBRANCH  25  28
ENDBRANCH  20  21
ENDBRANCH  19  20
ENDBRANCH  16  19
ENDBRANCH   2  15
BRANCH   1  34
HETATM   34  C   UNL     1      40.315 -11.502   5.258  1.00  0.00     0.076 A 
HETATM   35  C   UNL     1      39.413 -11.074   4.264  1.00  0.00     0.098 A 
HETATM   36  C   UNL     1      38.596  -9.951   4.476  1.00  0.00     0.075 A 
HETATM   37  C   UNL     1      38.708  -9.210   5.652  1.00  0.00     0.070 A 
HETATM   38  C   UNL     1      39.665  -9.571   6.596  1.00  0.00     0.039 A 
HETATM   39  C   UNL     1      40.460 -10.704   6.403  1.00  0.00     0.035 A 
BRANCH  35  40
HETATM   40  O   UNL     1      39.339 -11.807   3.101  1.00  0.00    -0.354 OA
HETATM   41  C   UNL     1      38.297 -11.366   2.224  1.00  0.00     0.210 C 
ENDBRANCH  35  40
BRANCH  37  42
HETATM   42  O   UNL     1      37.959  -8.117   5.985  1.00  0.00    -0.356 OA
HETATM   43  C   UNL     1      38.610  -7.092   6.726  1.00  0.00     0.210 C 
ENDBRANCH  37  42
ENDBRANCH   1  34
TORSDOF 9
ENDMDL
MODEL 3
REMARK VINA RESULT:      -8.9      3.012      9.271
REMARK  9 active torsions:
REMARK  status: ('A' for Active; 'I' for Inactive)
REMARK    1  A    between atoms: O_2  and  C_3 
REMARK    2  A    between atoms: C_5  and  O_6 
REMARK    3  A    between atoms: C_8  and  N_9 
REMARK    4  A    between atoms: C_10  and  O_11 
REMARK    5  A    between atoms: C_10  and  C_12 
REMARK       I    between atoms: C_12  and  N_13 
REMARK    6  A    between atoms: N_13  and  C_14 
REMARK    7  A    between atoms: C_14  and  C_15 
REMARK    8  A    between atoms: C_15  and  N_16 
REMARK    9  A    between atoms: N_20  and  C_21 
ROOT
HETATM    1  N   UNL     1      42.003 -12.373   3.930  1.00  0.00    -0.251 N 
HETATM    2  C   UNL     1      40.546 -12.200   3.985  1.00  0.00     0.256 C 
HETATM    3  C   UNL     1      40.008 -11.630   2.684  1.00  0.00     0.034 A 
HETATM    4  C   UNL     1      40.839 -10.792   1.948  1.00  0.00     0.048 A 
HETATM    5  N   UNL     1      42.149 -10.614   2.377  1.00  0.00    -0.308 N 
HETATM    6  C   UNL     1      42.777 -11.430   3.270  1.00  0.00     0.330 C 
HETATM    7  O   UNL     1      43.983 -11.273   3.462  1.00  0.00    -0.246 OA
HETATM    8  C   UNL     1      38.702 -11.857   2.218  1.00  0.00     0.015 A 
HETATM    9  C   UNL     1      38.259 -11.264   1.034  1.00  0.00     0.001 A 
HETATM   10  C   UNL     1      39.104 -10.416   0.320  1.00  0.00     0.002 A 
HETATM   11  C   UNL     1      40.396 -10.170   0.781  1.00  0.00     0.030 A 
HETATM   12  H   UNL     1      42.775 -10.022   1.839  1.00  0.00     0.170 HD
ENDROOT
BRANCH   2  13
HETATM   13  O   UNL     1      39.893 -13.462   4.147  1.00  0.00    -0.359 OA
HETATM   14  H   UNL     1      40.588 -14.092   4.396  1.00  0.00     0.213 HD
ENDBRANCH   2  13
BRANCH   2  15
HETATM   15  C   UNL     1      40.094 -11.222   5.169  1.00  0.00     0.279 C 
HETATM   16  N   UNL     1      41.064 -10.443   5.774  1.00  0.00    -0.355 N 
HETATM   17  H   UNL     1      42.020 -10.765   5.621  1.00  0.00     0.162 HD
HETATM   18  O   UNL     1      38.910 -11.086   5.503  1.00  0.00    -0.268 OA
BRANCH  16  19
HETATM   19  C   UNL     1      40.848  -9.666   6.992  1.00  0.00     0.150 C 
BRANCH  19  20
HETATM   20  C   UNL     1      42.096  -9.342   7.850  1.00  0.00     0.254 C 
BRANCH  20  21
HETATM   21  N   UNL     1      41.989  -9.811   9.278  1.00  0.00    -0.067 N 
HETATM   22  H   UNL     1      41.803 -10.835   9.231  1.00  0.00     0.280 HD
HETATM   23  C   UNL     1      43.269  -9.694  10.101  1.00  0.00     0.254 C 
HETATM   24  C   UNL     1      43.083 -10.379  11.474  1.00  0.00     0.150 C 
HETATM   25  N   UNL     1      41.919  -9.810  12.180  1.00  0.00    -0.378 N 
HETATM   26  C   UNL     1      40.657  -9.834  11.423  1.00  0.00     0.150 C 
HETATM   27  C   UNL     1      40.816  -9.187  10.030  1.00  0.00     0.254 C 
BRANCH  25  28
HETATM   28  C   UNL     1      42.151  -8.897  13.202  1.00  0.00     0.030 A 
HETATM   29  C   UNL     1      43.143  -7.908  13.139  1.00  0.00     0.029 A 
HETATM   30  C   UNL     1      43.341  -6.996  14.186  1.00  0.00     0.002 A 
HETATM   31  C   UNL     1      42.539  -7.045  15.320  1.00  0.00     0.000 A 
HETATM   32  C   UNL     1      41.536  -8.000  15.404  1.00  0.00     0.002 A 
HETATM   33  C   UNL     1      41.347  -8.909  14.356  1.00  0.00     0.029 A 
ENDBRANCH  25  28
ENDBRANCH  20  21
ENDBRANCH  19  20
ENDBRANCH  16  19
ENDBRANCH   2  15
BRANCH   1  34
HETATM   34  C   UNL     1      42.636 -13.550   4.456  1.00  0.00     0.076 A 
HETATM   35  C   UNL     1      43.035 -13.687   5.799  1.00  0.00     0.098 A 
HETATM   36  C   UNL     1      43.475 -14.927   6.291  1.00  0.00     0.075 A 
HETATM   37  C   UNL     1      43.577 -16.027   5.440  1.00  0.00     0.070 A 
HETATM   38  C   UNL     1      43.276 -15.873   4.090  1.00  0.00     0.039 A 
HETATM   39  C   UNL     1      42.811 -14.650   3.602  1.00  0.00     0.035 A 
BRANCH  35  40
HETATM   40  O   UNL     1      42.950 -12.579   6.613  1.00  0.00    -0.354 OA
HETATM   41  C   UNL     1      44.230 -12.066   6.998  1.00  0.00     0.210 C 
ENDBRANCH  35  40
BRANCH  37  42
HETATM   42  O   UNL     1      43.968 -17.285   5.801  1.00  0.00    -0.356 OA
HETATM   43  C   UNL     1      43.993 -18.270   4.775  1.00  0.00     0.210 C 
ENDBRANCH  37  42
ENDBRANCH   1  34
TORSDOF 9
ENDMDL
MODEL 4
REMARK VINA RESULT:      -8.9      2.603      9.431
REMARK  9 active torsions:
REMARK  status: ('A' for Active; 'I' for Inactive)
REMARK    1  A    between atoms: O_2  and  C_3 
REMARK    2  A    between atoms: C_5  and  O_6 
REMARK    3  A    between atoms: C_8  and  N_9 
REMARK    4  A    between atoms: C_10  and  O_11 
REMARK    5  A    between atoms: C_10  and  C_12 
REMARK       I    between atoms: C_12  and  N_13 
REMARK    6  A    between atoms: N_13  and  C_14 
REMARK    7  A    between atoms: C_14  and  C_15 
REMARK    8  A    between atoms: C_15  and  N_16 
REMARK    9  A    between atoms: N_20  and  C_21 
ROOT
HETATM    1  N   UNL     1      40.957 -13.680   2.537  1.00  0.00    -0.251 N 
HETATM    2  C   UNL     1      42.310 -14.082   2.942  1.00  0.00     0.256 C 
HETATM    3  C   UNL     1      42.270 -15.086   4.081  1.00  0.00     0.034 A 
HETATM    4  C   UNL     1      41.205 -15.016   4.973  1.00  0.00     0.048 A 
HETATM    5  N   UNL     1      40.181 -14.113   4.713  1.00  0.00    -0.308 N 
HETATM    6  C   UNL     1      39.975 -13.520   3.502  1.00  0.00     0.330 C 
HETATM    7  O   UNL     1      38.950 -12.859   3.340  1.00  0.00    -0.246 OA
HETATM    8  C   UNL     1      43.276 -16.039   4.311  1.00  0.00     0.015 A 
HETATM    9  C   UNL     1      43.196 -16.903   5.405  1.00  0.00     0.001 A 
HETATM   10  C   UNL     1      42.128 -16.805   6.295  1.00  0.00     0.002 A 
HETATM   11  C   UNL     1      41.132 -15.853   6.086  1.00  0.00     0.030 A 
HETATM   12  H   UNL     1      39.386 -14.064   5.344  1.00  0.00     0.170 HD
ENDROOT
BRANCH   2  13
HETATM   13  O   UNL     1      42.982 -14.748   1.869  1.00  0.00    -0.359 OA
HETATM   14  H   UNL     1      43.827 -15.057   2.235  1.00  0.00     0.213 HD
ENDBRANCH   2  13
BRANCH   2  15
HETATM   15  C   UNL     1      43.196 -12.838   3.421  1.00  0.00     0.279 C 
HETATM   16  N   UNL     1      43.283 -12.587   4.778  1.00  0.00    -0.355 N 
HETATM   17  H   UNL     1      42.552 -13.027   5.337  1.00  0.00     0.162 HD
HETATM   18  O   UNL     1      43.859 -12.151   2.632  1.00  0.00    -0.268 OA
BRANCH  16  19
HETATM   19  C   UNL     1      43.875 -11.380   5.351  1.00  0.00     0.150 C 
BRANCH  19  20
HETATM   20  C   UNL     1      44.709 -11.552   6.644  1.00  0.00     0.254 C 
BRANCH  20  21
HETATM   21  N   UNL     1      44.626 -10.375   7.582  1.00  0.00    -0.067 N 
HETATM   22  H   UNL     1      45.031  -9.567   7.065  1.00  0.00     0.280 HD
HETATM   23  C   UNL     1      43.212  -9.924   7.940  1.00  0.00     0.254 C 
HETATM   24  C   UNL     1      43.261  -8.605   8.743  1.00  0.00     0.150 C 
HETATM   25  N   UNL     1      44.111  -8.761   9.939  1.00  0.00    -0.378 N 
HETATM   26  C   UNL     1      45.474  -9.250   9.676  1.00  0.00     0.150 C 
HETATM   27  C   UNL     1      45.462 -10.551   8.846  1.00  0.00     0.254 C 
BRANCH  25  28
HETATM   28  C   UNL     1      43.489  -8.930  11.170  1.00  0.00     0.030 A 
HETATM   29  C   UNL     1      43.098 -10.180  11.669  1.00  0.00     0.029 A 
HETATM   30  C   UNL     1      42.482 -10.314  12.922  1.00  0.00     0.002 A 
HETATM   31  C   UNL     1      42.255  -9.194  13.714  1.00  0.00     0.000 A 
HETATM   32  C   UNL     1      42.647  -7.945  13.256  1.00  0.00     0.002 A 
HETATM   33  C   UNL     1      43.258  -7.820  12.003  1.00  0.00     0.029 A 
ENDBRANCH  25  28
ENDBRANCH  20  21
ENDBRANCH  19  20
ENDBRANCH  16  19
ENDBRANCH   2  15
BRANCH   1  34
HETATM   34  C   UNL     1      40.600 -13.547   1.151  1.00  0.00     0.076 A 
HETATM   35  C   UNL     1      40.868 -12.397   0.384  1.00  0.00     0.098 A 
HETATM   36  C   UNL     1      40.664 -12.402  -1.006  1.00  0.00     0.075 A 
HETATM   37  C   UNL     1      40.139 -13.530  -1.637  1.00  0.00     0.070 A 
HETATM   38  C   UNL     1      39.782 -14.635  -0.870  1.00  0.00     0.039 A 
HETATM   39  C   UNL     1      40.010 -14.645   0.508  1.00  0.00     0.035 A 
BRANCH  35  40
HETATM   40  O   UNL     1      41.361 -11.288   1.034  1.00  0.00    -0.354 OA
HETATM   41  C   UNL     1      41.512 -10.154   0.174  1.00  0.00     0.210 C 
ENDBRANCH  35  40
BRANCH  37  42
HETATM   42  O   UNL     1      39.917 -13.667  -2.978  1.00  0.00    -0.356 OA
HETATM   43  C   UNL     1      38.708 -14.307  -3.368  1.00  0.00     0.210 C 
ENDBRANCH  37  42
ENDBRANCH   1  34
TORSDOF 9
ENDMDL
MODEL 5
REMARK VINA RESULT:      -8.7      2.813      6.575
REMARK  9 active torsions:
REMARK  status: ('A' for Active; 'I' for Inactive)
REMARK    1  A    between atoms: O_2  and  C_3 
REMARK    2  A    between atoms: C_5  and  O_6 
REMARK    3  A    between atoms: C_8  and  N_9 
REMARK    4  A    between atoms: C_10  and  O_11 
REMARK    5  A    between atoms: C_10  and  C_12 
REMARK       I    between atoms: C_12  and  N_13 
REMARK    6  A    between atoms: N_13  and  C_14 
REMARK    7  A    between atoms: C_14  and  C_15 
REMARK    8  A    between atoms: C_15  and  N_16 
REMARK    9  A    between atoms: N_20  and  C_21 
ROOT
HETATM    1  N   UNL     1      41.771 -15.021   3.968  1.00  0.00    -0.251 N 
HETATM    2  C   UNL     1      42.006 -13.781   3.217  1.00  0.00     0.256 C 
HETATM    3  C   UNL     1      41.990 -12.570   4.134  1.00  0.00     0.034 A 
HETATM    4  C   UNL     1      41.189 -12.624   5.270  1.00  0.00     0.048 A 
HETATM    5  N   UNL     1      40.540 -13.816   5.568  1.00  0.00    -0.308 N 
HETATM    6  C   UNL     1      40.868 -15.022   5.021  1.00  0.00     0.330 C 
HETATM    7  O   UNL     1      40.333 -16.035   5.470  1.00  0.00    -0.246 OA
HETATM    8  C   UNL     1      42.694 -11.384   3.865  1.00  0.00     0.015 A 
HETATM    9  C   UNL     1      42.598 -10.292   4.730  1.00  0.00     0.001 A 
HETATM   10  C   UNL     1      41.778 -10.363   5.855  1.00  0.00     0.002 A 
HETATM   11  C   UNL     1      41.063 -11.528   6.124  1.00  0.00     0.030 A 
HETATM   12  H   UNL     1      39.968 -13.878   6.404  1.00  0.00     0.170 HD
ENDROOT
BRANCH   2  13
HETATM   13  O   UNL     1      43.305 -13.791   2.619  1.00  0.00    -0.359 OA
HETATM   14  H   UNL     1      43.451 -14.701   2.313  1.00  0.00     0.213 HD
ENDBRANCH   2  13
BRANCH   2  15
HETATM   15  C   UNL     1      40.908 -13.544   2.078  1.00  0.00     0.279 C 
HETATM   16  N   UNL     1      41.281 -13.753   0.762  1.00  0.00    -0.355 N 
HETATM   17  H   UNL     1      42.289 -13.756   0.604  1.00  0.00     0.162 HD
HETATM   18  O   UNL     1      39.731 -13.258   2.337  1.00  0.00    -0.268 OA
BRANCH  16  19
HETATM   19  C   UNL     1      40.464 -13.381  -0.390  1.00  0.00     0.150 C 
BRANCH  19  20
HETATM   20  C   UNL     1      40.909 -12.135  -1.194  1.00  0.00     0.254 C 
BRANCH  20  21
HETATM   21  N   UNL     1      40.465 -10.829  -0.585  1.00  0.00    -0.067 N 
HETATM   22  H   UNL     1      40.446 -10.140  -1.366  1.00  0.00     0.280 HD
HETATM   23  C   UNL     1      39.042 -10.816  -0.033  1.00  0.00     0.254 C 
HETATM   24  C   UNL     1      38.646  -9.382   0.383  1.00  0.00     0.150 C 
HETATM   25  N   UNL     1      39.619  -8.840   1.351  1.00  0.00    -0.378 N 
HETATM   26  C   UNL     1      41.022  -8.873   0.910  1.00  0.00     0.150 C 
HETATM   27  C   UNL     1      41.442 -10.288   0.455  1.00  0.00     0.254 C 
BRANCH  25  28
HETATM   28  C   UNL     1      39.265  -8.815   2.695  1.00  0.00     0.030 A 
HETATM   29  C   UNL     1      38.629  -9.883   3.342  1.00  0.00     0.029 A 
HETATM   30  C   UNL     1      38.298  -9.827   4.704  1.00  0.00     0.002 A 
HETATM   31  C   UNL     1      38.609  -8.700   5.455  1.00  0.00     0.000 A 
HETATM   32  C   UNL     1      39.255  -7.633   4.848  1.00  0.00     0.002 A 
HETATM   33  C   UNL     1      39.580  -7.696   3.487  1.00  0.00     0.029 A 
ENDBRANCH  25  28
ENDBRANCH  20  21
ENDBRANCH  19  20
ENDBRANCH  16  19
ENDBRANCH   2  15
BRANCH   1  34
HETATM   34  C   UNL     1      42.531 -16.211   3.702  1.00  0.00     0.076 A 
HETATM   35  C   UNL     1      43.561 -16.681   4.539  1.00  0.00     0.098 A 
HETATM   36  C   UNL     1      44.136 -17.946   4.325  1.00  0.00     0.075 A 
HETATM   37  C   UNL     1      43.732 -18.728   3.243  1.00  0.00     0.070 A 
HETATM   38  C   UNL     1      42.783 -18.227   2.357  1.00  0.00     0.039 A 
HETATM   39  C   UNL     1      42.188 -16.984   2.582  1.00  0.00     0.035 A 
BRANCH  35  40
HETATM   40  O   UNL     1      43.960 -15.878   5.585  1.00  0.00    -0.354 OA
HETATM   41  C   UNL     1      44.051 -16.581   6.829  1.00  0.00     0.210 C 
ENDBRANCH  35  40
BRANCH  37  42
HETATM   42  O   UNL     1      44.196 -19.977   2.942  1.00  0.00    -0.356 OA
HETATM   43  C   UNL     1      43.696 -20.580   1.754  1.00  0.00     0.210 C 
ENDBRANCH  37  42
ENDBRANCH   1  34
TORSDOF 9
ENDMDL
MODEL 6
REMARK VINA RESULT:      -8.6      4.293      7.741
REMARK  9 active torsions:
REMARK  status: ('A' for Active; 'I' for Inactive)
REMARK    1  A    between atoms: O_2  and  C_3 
REMARK    2  A    between atoms: C_5  and  O_6 
REMARK    3  A    between atoms: C_8  and  N_9 
REMARK    4  A    between atoms: C_10  and  O_11 
REMARK    5  A    between atoms: C_10  and  C_12 
REMARK       I    between atoms: C_12  and  N_13 
REMARK    6  A    between atoms: N_13  and  C_14 
REMARK    7  A    between atoms: C_14  and  C_15 
REMARK    8  A    between atoms: C_15  and  N_16 
REMARK    9  A    between atoms: N_20  and  C_21 
ROOT
HETATM    1  N   UNL     1      41.326  -7.595  10.332  1.00  0.00    -0.251 N 
HETATM    2  C   UNL     1      41.552  -8.920   9.742  1.00  0.00     0.256 C 
HETATM    3  C   UNL     1      43.017  -9.128   9.398  1.00  0.00     0.034 A 
HETATM    4  C   UNL     1      43.769  -8.011   9.054  1.00  0.00     0.048 A 
HETATM    5  N   UNL     1      43.178  -6.757   9.153  1.00  0.00    -0.308 N 
HETATM    6  C   UNL     1      42.037  -6.504   9.855  1.00  0.00     0.330 C 
HETATM    7  O   UNL     1      41.687  -5.334  10.005  1.00  0.00    -0.246 OA
HETATM    8  C   UNL     1      43.632 -10.391   9.355  1.00  0.00     0.015 A 
HETATM    9  C   UNL     1      44.973 -10.513   8.987  1.00  0.00     0.001 A 
HETATM   10  C   UNL     1      45.705  -9.381   8.631  1.00  0.00     0.002 A 
HETATM   11  C   UNL     1      45.101  -8.125   8.655  1.00  0.00     0.030 A 
HETATM   12  H   UNL     1      43.721  -5.929   8.925  1.00  0.00     0.170 HD
ENDROOT
BRANCH   2  13
HETATM   13  O   UNL     1      41.228  -9.952  10.677  1.00  0.00    -0.359 OA
HETATM   14  H   UNL     1      40.259  -9.974  10.727  1.00  0.00     0.213 HD
ENDBRANCH   2  13
BRANCH   2  15
HETATM   15  C   UNL     1      40.701  -9.143   8.404  1.00  0.00     0.279 C 
HETATM   16  N   UNL     1      40.018 -10.337   8.261  1.00  0.00    -0.355 N 
HETATM   17  H   UNL     1      40.343 -11.086   8.872  1.00  0.00     0.162 HD
HETATM   18  O   UNL     1      40.575  -8.263   7.543  1.00  0.00    -0.268 OA
BRANCH  16  19
HETATM   19  C   UNL     1      39.376 -10.769   7.021  1.00  0.00     0.150 C 
BRANCH  19  20
HETATM   20  C   UNL     1      40.301 -11.312   5.904  1.00  0.00     0.254 C 
BRANCH  20  21
HETATM   21  N   UNL     1      40.956 -12.626   6.244  1.00  0.00    -0.067 N 
HETATM   22  H   UNL     1      41.021 -12.654   7.283  1.00  0.00     0.280 HD
HETATM   23  C   UNL     1      40.150 -13.871   5.881  1.00  0.00     0.254 C 
HETATM   24  C   UNL     1      40.836 -15.133   6.450  1.00  0.00     0.150 C 
HETATM   25  N   UNL     1      42.229 -15.220   5.975  1.00  0.00    -0.378 N 
HETATM   26  C   UNL     1      43.054 -14.030   6.238  1.00  0.00     0.150 C 
HETATM   27  C   UNL     1      42.381 -12.744   5.711  1.00  0.00     0.254 C 
BRANCH  25  28
HETATM   28  C   UNL     1      42.520 -16.108   4.946  1.00  0.00     0.030 A 
HETATM   29  C   UNL     1      41.858 -16.095   3.710  1.00  0.00     0.029 A 
HETATM   30  C   UNL     1      42.186 -17.001   2.690  1.00  0.00     0.002 A 
HETATM   31  C   UNL     1      43.197 -17.936   2.880  1.00  0.00     0.000 A 
HETATM   32  C   UNL     1      43.883 -17.962   4.086  1.00  0.00     0.002 A 
HETATM   33  C   UNL     1      43.548 -17.056   5.100  1.00  0.00     0.029 A 
ENDBRANCH  25  28
ENDBRANCH  20  21
ENDBRANCH  19  20
ENDBRANCH  16  19
ENDBRANCH   2  15
BRANCH   1  34
HETATM   34  C   UNL     1      40.458  -7.419  11.464  1.00  0.00     0.076 A 
HETATM   35  C   UNL     1      40.896  -7.484  12.800  1.00  0.00     0.098 A 
HETATM   36  C   UNL     1      40.040  -7.118  13.852  1.00  0.00     0.075 A 
HETATM   37  C   UNL     1      38.724  -6.740  13.589  1.00  0.00     0.070 A 
HETATM   38  C   UNL     1      38.256  -6.766  12.279  1.00  0.00     0.039 A 
HETATM   39  C   UNL     1      39.111  -7.101  11.228  1.00  0.00     0.035 A 
BRANCH  35  40
HETATM   40  O   UNL     1      42.193  -7.886  13.035  1.00  0.00    -0.354 OA
HETATM   41  C   UNL     1      42.280  -9.024  13.899  1.00  0.00     0.210 C 
ENDBRANCH  35  40
BRANCH  37  42
HETATM   42  O   UNL     1      37.804  -6.342  14.519  1.00  0.00    -0.356 OA
HETATM   43  C   UNL     1      38.303  -5.683  15.677  1.00  0.00     0.210 C 
ENDBRANCH  37  42
ENDBRANCH   1  34
TORSDOF 9
ENDMDL
MODEL 7
REMARK VINA RESULT:      -8.4      3.134      9.620
REMARK  9 active torsions:
REMARK  status: ('A' for Active; 'I' for Inactive)
REMARK    1  A    between atoms: O_2  and  C_3 
REMARK    2  A    between atoms: C_5  and  O_6 
REMARK    3  A    between atoms: C_8  and  N_9 
REMARK    4  A    between atoms: C_10  and  O_11 
REMARK    5  A    between atoms: C_10  and  C_12 
REMARK       I    between atoms: C_12  and  N_13 
REMARK    6  A    between atoms: N_13  and  C_14 
REMARK    7  A    between atoms: C_14  and  C_15 
REMARK    8  A    between atoms: C_15  and  N_16 
REMARK    9  A    between atoms: N_20  and  C_21 
ROOT
HETATM    1  N   UNL     1      42.076 -13.173   3.966  1.00  0.00    -0.251 N 
HETATM    2  C   UNL     1      41.214 -12.123   4.524  1.00  0.00     0.256 C 
HETATM    3  C   UNL     1      40.339 -11.500   3.450  1.00  0.00     0.034 A 
HETATM    4  C   UNL     1      40.833 -11.460   2.150  1.00  0.00     0.048 A 
HETATM    5  N   UNL     1      42.042 -12.091   1.880  1.00  0.00    -0.308 N 
HETATM    6  C   UNL     1      42.624 -13.008   2.703  1.00  0.00     0.330 C 
HETATM    7  O   UNL     1      43.613 -13.618   2.296  1.00  0.00    -0.246 OA
HETATM    8  C   UNL     1      39.089 -10.913   3.711  1.00  0.00     0.015 A 
HETATM    9  C   UNL     1      38.357 -10.318   2.681  1.00  0.00     0.001 A 
HETATM   10  C   UNL     1      38.878 -10.277   1.389  1.00  0.00     0.002 A 
HETATM   11  C   UNL     1      40.124 -10.841   1.121  1.00  0.00     0.030 A 
HETATM   12  H   UNL     1      42.405 -12.088   0.932  1.00  0.00     0.170 HD
ENDROOT
BRANCH   2  13
HETATM   13  O   UNL     1      40.308 -12.669   5.485  1.00  0.00    -0.359 OA
HETATM   14  H   UNL     1      40.643 -13.556   5.694  1.00  0.00     0.213 HD
ENDBRANCH   2  13
BRANCH   2  15
HETATM   15  C   UNL     1      42.056 -10.947   5.209  1.00  0.00     0.279 C 
HETATM   16  N   UNL     1      41.721 -10.574   6.498  1.00  0.00    -0.355 N 
HETATM   17  H   UNL     1      40.791 -10.869   6.795  1.00  0.00     0.162 HD
HETATM   18  O   UNL     1      43.033 -10.421   4.659  1.00  0.00    -0.268 OA
BRANCH  16  19
HETATM   19  C   UNL     1      42.252  -9.391   7.173  1.00  0.00     0.150 C 
BRANCH  19  20
HETATM   20  C   UNL     1      43.351  -9.624   8.238  1.00  0.00     0.254 C 
BRANCH  20  21
HETATM   21  N   UNL     1      42.811  -9.982   9.599  1.00  0.00    -0.067 N 
HETATM   22  H   UNL     1      42.469 -10.963   9.523  1.00  0.00     0.280 HD
HETATM   23  C   UNL     1      43.844 -10.026  10.721  1.00  0.00     0.254 C 
HETATM   24  C   UNL     1      43.206 -10.587  12.011  1.00  0.00     0.150 C 
HETATM   25  N   UNL     1      42.018  -9.795  12.385  1.00  0.00    -0.378 N 
HETATM   26  C   UNL     1      41.001  -9.660  11.329  1.00  0.00     0.150 C 
HETATM   27  C   UNL     1      41.613  -9.132  10.014  1.00  0.00     0.254 C 
BRANCH  25  28
HETATM   28  C   UNL     1      42.141  -8.872  13.417  1.00  0.00     0.030 A 
HETATM   29  C   UNL     1      41.366  -8.915  14.583  1.00  0.00     0.029 A 
HETATM   30  C   UNL     1      41.525  -7.972  15.609  1.00  0.00     0.002 A 
HETATM   31  C   UNL     1      42.479  -6.967  15.496  1.00  0.00     0.000 A 
HETATM   32  C   UNL     1      43.275  -6.909  14.361  1.00  0.00     0.002 A 
HETATM   33  C   UNL     1      43.107  -7.852  13.341  1.00  0.00     0.029 A 
ENDBRANCH  25  28
ENDBRANCH  20  21
ENDBRANCH  19  20
ENDBRANCH  16  19
ENDBRANCH   2  15
BRANCH   1  34
HETATM   34  C   UNL     1      42.281 -14.416   4.658  1.00  0.00     0.076 A 
HETATM   35  C   UNL     1      41.627 -15.615   4.317  1.00  0.00     0.098 A 
HETATM   36  C   UNL     1      42.011 -16.831   4.907  1.00  0.00     0.075 A 
HETATM   37  C   UNL     1      43.007 -16.857   5.882  1.00  0.00     0.070 A 
HETATM   38  C   UNL     1      43.590 -15.662   6.293  1.00  0.00     0.039 A 
HETATM   39  C   UNL     1      43.233 -14.455   5.689  1.00  0.00     0.035 A 
BRANCH  35  40
HETATM   40  O   UNL     1      40.629 -15.559   3.370  1.00  0.00    -0.354 OA
HETATM   41  C   UNL     1      40.974 -16.222   2.150  1.00  0.00     0.210 C 
ENDBRANCH  35  40
BRANCH  37  42
HETATM   42  O   UNL     1      43.482 -17.973   6.512  1.00  0.00    -0.356 OA
HETATM   43  C   UNL     1      43.736 -19.112   5.699  1.00  0.00     0.210 C 
ENDBRANCH  37  42
ENDBRANCH   1  34
TORSDOF 9
ENDMDL
MODEL 8
REMARK VINA RESULT:      -8.4      2.332      3.991
REMARK  9 active torsions:
REMARK  status: ('A' for Active; 'I' for Inactive)
REMARK    1  A    between atoms: O_2  and  C_3 
REMARK    2  A    between atoms: C_5  and  O_6 
REMARK    3  A    between atoms: C_8  and  N_9 
REMARK    4  A    between atoms: C_10  and  O_11 
REMARK    5  A    between atoms: C_10  and  C_12 
REMARK       I    between atoms: C_12  and  N_13 
REMARK    6  A    between atoms: N_13  and  C_14 
REMARK    7  A    between atoms: C_14  and  C_15 
REMARK    8  A    between atoms: C_15  and  N_16 
REMARK    9  A    between atoms: N_20  and  C_21 
ROOT
HETATM    1  N   UNL     1      43.210 -10.487   7.353  1.00  0.00    -0.251 N 
HETATM    2  C   UNL     1      42.189 -11.060   6.467  1.00  0.00     0.256 C 
HETATM    3  C   UNL     1      42.369 -12.561   6.316  1.00  0.00     0.034 A 
HETATM    4  C   UNL     1      43.658 -13.074   6.413  1.00  0.00     0.048 A 
HETATM    5  N   UNL     1      44.692 -12.211   6.756  1.00  0.00    -0.308 N 
HETATM    6  C   UNL     1      44.506 -10.980   7.310  1.00  0.00     0.330 C 
HETATM    7  O   UNL     1      45.491 -10.364   7.717  1.00  0.00    -0.246 OA
HETATM    8  C   UNL     1      41.315 -13.444   6.027  1.00  0.00     0.015 A 
HETATM    9  C   UNL     1      41.560 -14.808   5.857  1.00  0.00     0.001 A 
HETATM   10  C   UNL     1      42.862 -15.299   5.944  1.00  0.00     0.002 A 
HETATM   11  C   UNL     1      43.918 -14.430   6.214  1.00  0.00     0.030 A 
HETATM   12  H   UNL     1      45.635 -12.575   6.851  1.00  0.00     0.170 HD
ENDROOT
BRANCH   2  13
HETATM   13  O   UNL     1      40.883 -10.886   7.022  1.00  0.00    -0.359 OA
HETATM   14  H   UNL     1      40.311 -10.623   6.282  1.00  0.00     0.213 HD
ENDBRANCH   2  13
BRANCH   2  15
HETATM   15  C   UNL     1      42.224 -10.415   5.003  1.00  0.00     0.279 C 
HETATM   16  N   UNL     1      41.163  -9.615   4.619  1.00  0.00    -0.355 N 
HETATM   17  H   UNL     1      40.318  -9.737   5.179  1.00  0.00     0.162 HD
HETATM   18  O   UNL     1      43.193 -10.545   4.242  1.00  0.00    -0.268 OA
BRANCH  16  19
HETATM   19  C   UNL     1      40.952  -9.132   3.256  1.00  0.00     0.150 C 
BRANCH  19  20
HETATM   20  C   UNL     1      39.583  -9.446   2.604  1.00  0.00     0.254 C 
BRANCH  20  21
HETATM   21  N   UNL     1      39.464 -10.859   2.093  1.00  0.00    -0.067 N 
HETATM   22  H   UNL     1      38.581 -10.892   1.543  1.00  0.00     0.280 HD
HETATM   23  C   UNL     1      40.544 -11.290   1.104  1.00  0.00     0.254 C 
HETATM   24  C   UNL     1      40.203 -12.677   0.515  1.00  0.00     0.150 C 
HETATM   25  N   UNL     1      40.019 -13.664   1.596  1.00  0.00    -0.378 N 
HETATM   26  C   UNL     1      39.032 -13.290   2.622  1.00  0.00     0.150 C 
HETATM   27  C   UNL     1      39.324 -11.892   3.209  1.00  0.00     0.254 C 
BRANCH  25  28
HETATM   28  C   UNL     1      41.052 -14.557   1.855  1.00  0.00     0.030 A 
HETATM   29  C   UNL     1      42.407 -14.227   1.713  1.00  0.00     0.029 A 
HETATM   30  C   UNL     1      43.423 -15.152   1.994  1.00  0.00     0.002 A 
HETATM   31  C   UNL     1      43.106 -16.430   2.438  1.00  0.00     0.000 A 
HETATM   32  C   UNL     1      41.774 -16.781   2.606  1.00  0.00     0.002 A 
HETATM   33  C   UNL     1      40.766 -15.853   2.321  1.00  0.00     0.029 A 
ENDBRANCH  25  28
ENDBRANCH  20  21
ENDBRANCH  19  20
ENDBRANCH  16  19
ENDBRANCH   2  15
BRANCH   1  34
HETATM   34  C   UNL     1      42.874  -9.496   8.338  1.00  0.00     0.076 A 
HETATM   35  C   UNL     1      42.488  -8.180   8.019  1.00  0.00     0.098 A 
HETATM   36  C   UNL     1      41.993  -7.320   9.013  1.00  0.00     0.075 A 
HETATM   37  C   UNL     1      41.931  -7.740  10.341  1.00  0.00     0.070 A 
HETATM   38  C   UNL     1      42.402  -9.006  10.678  1.00  0.00     0.039 A 
HETATM   39  C   UNL     1      42.868  -9.875   9.689  1.00  0.00     0.035 A 
BRANCH  35  40
HETATM   40  O   UNL     1      42.583  -7.780   6.704  1.00  0.00    -0.354 OA
HETATM   41  C   UNL     1      41.870  -6.569   6.433  1.00  0.00     0.210 C 
ENDBRANCH  35  40
BRANCH  37  42
HETATM   42  O   UNL     1      41.451  -7.009  11.391  1.00  0.00    -0.356 OA
HETATM   43  C   UNL     1      41.479  -5.593  11.256  1.00  0.00     0.210 C 
ENDBRANCH  37  42
ENDBRANCH   1  34
TORSDOF 9
ENDMDL
MODEL 9
REMARK VINA RESULT:      -8.3      3.843      8.785
REMARK  9 active torsions:
REMARK  status: ('A' for Active; 'I' for Inactive)
REMARK    1  A    between atoms: O_2  and  C_3 
REMARK    2  A    between atoms: C_5  and  O_6 
REMARK    3  A    between atoms: C_8  and  N_9 
REMARK    4  A    between atoms: C_10  and  O_11 
REMARK    5  A    between atoms: C_10  and  C_12 
REMARK       I    between atoms: C_12  and  N_13 
REMARK    6  A    between atoms: N_13  and  C_14 
REMARK    7  A    between atoms: C_14  and  C_15 
REMARK    8  A    between atoms: C_15  and  N_16 
REMARK    9  A    between atoms: N_20  and  C_21 
ROOT
HETATM    1  N   UNL     1      39.469 -10.042  -2.366  1.00  0.00    -0.251 N 
HETATM    2  C   UNL     1      40.125 -11.202  -1.749  1.00  0.00     0.256 C 
HETATM    3  C   UNL     1      39.485 -12.503  -2.203  1.00  0.00     0.034 A 
HETATM    4  C   UNL     1      38.133 -12.484  -2.527  1.00  0.00     0.048 A 
HETATM    5  N   UNL     1      37.468 -11.264  -2.531  1.00  0.00    -0.308 N 
HETATM    6  C   UNL     1      38.095 -10.053  -2.553  1.00  0.00     0.330 C 
HETATM    7  O   UNL     1      37.413  -9.042  -2.711  1.00  0.00    -0.246 OA
HETATM    8  C   UNL     1      40.171 -13.728  -2.257  1.00  0.00     0.015 A 
HETATM    9  C   UNL     1      39.508 -14.895  -2.641  1.00  0.00     0.001 A 
HETATM   10  C   UNL     1      38.149 -14.857  -2.947  1.00  0.00     0.002 A 
HETATM   11  C   UNL     1      37.454 -13.650  -2.882  1.00  0.00     0.030 A 
HETATM   12  H   UNL     1      36.485 -11.231  -2.785  1.00  0.00     0.170 HD
ENDROOT
BRANCH   2  13
HETATM   13  O   UNL     1      41.493 -11.287  -2.158  1.00  0.00    -0.359 OA
HETATM   14  H   UNL     1      41.863 -10.397  -2.036  1.00  0.00     0.213 HD
ENDBRANCH   2  13
BRANCH   2  15
HETATM   15  C   UNL     1      40.059 -11.159  -0.151  1.00  0.00     0.279 C 
HETATM   16  N   UNL     1      41.101 -10.550   0.526  1.00  0.00    -0.355 N 
HETATM   17  H   UNL     1      41.955 -10.442  -0.022  1.00  0.00     0.162 HD
HETATM   18  O   UNL     1      39.083 -11.577   0.486  1.00  0.00    -0.268 OA
BRANCH  16  19
HETATM   19  C   UNL     1      41.286 -10.615   1.974  1.00  0.00     0.150 C 
BRANCH  19  20
HETATM   20  C   UNL     1      42.445 -11.498   2.495  1.00  0.00     0.254 C 
BRANCH  20  21
HETATM   21  N   UNL     1      41.989 -12.789   3.127  1.00  0.00    -0.067 N 
HETATM   22  H   UNL     1      41.124 -12.557   3.659  1.00  0.00     0.280 HD
HETATM   23  C   UNL     1      41.553 -13.876   2.149  1.00  0.00     0.254 C 
HETATM   24  C   UNL     1      40.932 -15.064   2.916  1.00  0.00     0.150 C 
HETATM   25  N   UNL     1      41.878 -15.577   3.925  1.00  0.00    -0.378 N 
HETATM   26  C   UNL     1      42.389 -14.570   4.870  1.00  0.00     0.150 C 
HETATM   27  C   UNL     1      42.987 -13.351   4.135  1.00  0.00     0.254 C 
BRANCH  25  28
HETATM   28  C   UNL     1      42.577 -16.744   3.639  1.00  0.00     0.030 A 
HETATM   29  C   UNL     1      42.353 -17.511   2.488  1.00  0.00     0.029 A 
HETATM   30  C   UNL     1      43.086 -18.679   2.227  1.00  0.00     0.002 A 
HETATM   31  C   UNL     1      44.072 -19.100   3.111  1.00  0.00     0.000 A 
HETATM   32  C   UNL     1      44.329 -18.352   4.251  1.00  0.00     0.002 A 
HETATM   33  C   UNL     1      43.592 -17.190   4.505  1.00  0.00     0.029 A 
ENDBRANCH  25  28
ENDBRANCH  20  21
ENDBRANCH  19  20
ENDBRANCH  16  19
ENDBRANCH   2  15
BRANCH   1  34
HETATM   34  C   UNL     1      40.232  -8.935  -2.875  1.00  0.00     0.076 A 
HETATM   35  C   UNL     1      40.747  -7.906  -2.064  1.00  0.00     0.098 A 
HETATM   36  C   UNL     1      41.640  -6.959  -2.593  1.00  0.00     0.075 A 
HETATM   37  C   UNL     1      41.982  -6.992  -3.945  1.00  0.00     0.070 A 
HETATM   38  C   UNL     1      41.401  -7.948  -4.771  1.00  0.00     0.039 A 
HETATM   39  C   UNL     1      40.536  -8.909  -4.244  1.00  0.00     0.035 A 
BRANCH  35  40
HETATM   40  O   UNL     1      40.374  -7.880  -0.739  1.00  0.00    -0.354 OA
HETATM   41  C   UNL     1      39.313  -6.957  -0.473  1.00  0.00     0.210 C 
ENDBRANCH  35  40
BRANCH  37  42
HETATM   42  O   UNL     1      42.852  -6.144  -4.571  1.00  0.00    -0.356 OA
HETATM   43  C   UNL     1      42.981  -6.281  -5.981  1.00  0.00     0.210 C 
ENDBRANCH  37  42
ENDBRANCH   1  34
TORSDOF 9
ENDMDL
MODEL 10
REMARK VINA RESULT:      -8.3      2.900      9.141
REMARK  9 active torsions:
REMARK  status: ('A' for Active; 'I' for Inactive)
REMARK    1  A    between atoms: O_2  and  C_3 
REMARK    2  A    between atoms: C_5  and  O_6 
REMARK    3  A    between atoms: C_8  and  N_9 
REMARK    4  A    between atoms: C_10  and  O_11 
REMARK    5  A    between atoms: C_10  and  C_12 
REMARK       I    between atoms: C_12  and  N_13 
REMARK    6  A    between atoms: N_13  and  C_14 
REMARK    7  A    between atoms: C_14  and  C_15 
REMARK    8  A    between atoms: C_15  and  N_16 
REMARK    9  A    between atoms: N_20  and  C_21 
ROOT
HETATM    1  N   UNL     1      41.838 -13.181   3.634  1.00  0.00    -0.251 N 
HETATM    2  C   UNL     1      40.378 -13.059   3.736  1.00  0.00     0.256 C 
HETATM    3  C   UNL     1      39.841 -12.026   2.760  1.00  0.00     0.034 A 
HETATM    4  C   UNL     1      40.666 -10.958   2.425  1.00  0.00     0.048 A 
HETATM    5  N   UNL     1      41.970 -10.951   2.905  1.00  0.00    -0.308 N 
HETATM    6  C   UNL     1      42.604 -12.047   3.410  1.00  0.00     0.330 C 
HETATM    7  O   UNL     1      43.806 -11.966   3.662  1.00  0.00    -0.246 OA
HETATM    8  C   UNL     1      38.541 -12.064   2.228  1.00  0.00     0.015 A 
HETATM    9  C   UNL     1      38.099 -11.056   1.370  1.00  0.00     0.001 A 
HETATM   10  C   UNL     1      38.937  -9.986   1.058  1.00  0.00     0.002 A 
HETATM   11  C   UNL     1      40.222  -9.929   1.594  1.00  0.00     0.030 A 
HETATM   12  H   UNL     1      42.591 -10.188   2.652  1.00  0.00     0.170 HD
ENDROOT
BRANCH   2  13
HETATM   13  O   UNL     1      39.742 -14.289   3.379  1.00  0.00    -0.359 OA
HETATM   14  H   UNL     1      40.067 -14.951   4.011  1.00  0.00     0.213 HD
ENDBRANCH   2  13
BRANCH   2  15
HETATM   15  C   UNL     1      39.905 -12.634   5.205  1.00  0.00     0.279 C 
HETATM   16  N   UNL     1      39.674 -11.292   5.450  1.00  0.00    -0.355 N 
HETATM   17  H   UNL     1      40.101 -10.660   4.773  1.00  0.00     0.162 HD
HETATM   18  O   UNL     1      39.667 -13.463   6.093  1.00  0.00    -0.268 OA
BRANCH  16  19
HETATM   19  C   UNL     1      39.444 -10.730   6.779  1.00  0.00     0.150 C 
BRANCH  19  20
HETATM   20  C   UNL     1      40.427  -9.634   7.259  1.00  0.00     0.254 C 
BRANCH  20  21
HETATM   21  N   UNL     1      40.918  -9.834   8.670  1.00  0.00    -0.067 N 
HETATM   22  H   UNL     1      41.014 -10.864   8.797  1.00  0.00     0.280 HD
HETATM   23  C   UNL     1      42.311  -9.284   8.961  1.00  0.00     0.254 C 
HETATM   24  C   UNL     1      42.771  -9.719  10.370  1.00  0.00     0.150 C 
HETATM   25  N   UNL     1      41.788  -9.297  11.385  1.00  0.00    -0.378 N 
HETATM   26  C   UNL     1      40.407  -9.743  11.140  1.00  0.00     0.150 C 
HETATM   27  C   UNL     1      39.927  -9.353   9.726  1.00  0.00     0.254 C 
BRANCH  25  28
HETATM   28  C   UNL     1      42.079  -8.178  12.157  1.00  0.00     0.030 A 
HETATM   29  C   UNL     1      41.801  -6.867  11.746  1.00  0.00     0.029 A 
HETATM   30  C   UNL     1      42.098  -5.762  12.557  1.00  0.00     0.002 A 
HETATM   31  C   UNL     1      42.671  -5.946  13.810  1.00  0.00     0.000 A 
HETATM   32  C   UNL     1      42.941  -7.232  14.253  1.00  0.00     0.002 A 
HETATM   33  C   UNL     1      42.644  -8.330  13.437  1.00  0.00     0.029 A 
ENDBRANCH  25  28
ENDBRANCH  20  21
ENDBRANCH  19  20
ENDBRANCH  16  19
ENDBRANCH   2  15
BRANCH   1  34
HETATM   34  C   UNL     1      42.484 -14.464   3.660  1.00  0.00     0.076 A 
HETATM   35  C   UNL     1      42.848 -15.130   4.845  1.00  0.00     0.098 A 
HETATM   36  C   UNL     1      43.303 -16.459   4.807  1.00  0.00     0.075 A 
HETATM   37  C   UNL     1      43.455 -17.117   3.587  1.00  0.00     0.070 A 
HETATM   38  C   UNL     1      43.189 -16.432   2.406  1.00  0.00     0.039 A 
HETATM   39  C   UNL     1      42.709 -15.121   2.440  1.00  0.00     0.035 A 
BRANCH  35  40
HETATM   40  O   UNL     1      42.714 -14.450   6.035  1.00  0.00    -0.354 OA
HETATM   41  C   UNL     1      42.608 -15.318   7.169  1.00  0.00     0.210 C 
ENDBRANCH  35  40
BRANCH  37  42
HETATM   42  O   UNL     1      43.866 -18.410   3.420  1.00  0.00    -0.356 OA
HETATM   43  C   UNL     1      44.320 -19.096   4.581  1.00  0.00     0.210 C 
ENDBRANCH  37  42
ENDBRANCH   1  34
TORSDOF 9
ENDMDL
