MODEL 1
REMARK VINA RESULT:      -8.9      0.000      0.000
REMARK  9 active torsions:
REMARK  status: ('A' for Active; 'I' for Inactive)
REMARK    1  A    between atoms: C_6  and  C_7 
REMARK    2  A    between atoms: C_7  and  C_8 
REMARK       I    between atoms: C_8  and  N_9 
REMARK    3  A    between atoms: N_9  and  C_10 
REMARK    4  A    between atoms: C_10  and  C_11 
REMARK    5  A    between atoms: C_11  and  N_12 
REMARK    6  A    between atoms: C_20  and  C_21 
REMARK    7  A    between atoms: C_24  and  C_25 
REMARK    8  A    between atoms: C_32  and  C_33 
REMARK    9  A    between atoms: C_33  and  O_34 
ROOT
HETATM    1  C   UNL     1      40.018 -15.436   6.796  1.00  0.00     0.071 C 
HETATM    2  C   UNL     1      40.959 -15.160   5.652  1.00  0.00     0.048 C 
HETATM    3  N   UNL     1      40.353 -15.258   4.402  1.00  0.00    -0.229 NA
HETATM    4  C   UNL     1      40.981 -14.728   3.406  1.00  0.00     0.170 C 
HETATM    5  N   UNL     1      42.364 -14.053   3.567  1.00  0.00    -0.319 N 
HETATM    6  C   UNL     1      42.439 -13.015   2.807  1.00  0.00     0.011 C 
HETATM    7  C   UNL     1      43.176 -14.757   4.586  1.00  0.00     0.166 C 
HETATM    8  S   UNL     1      40.303 -14.412   1.854  1.00  0.00    -0.086 SA
HETATM    9  C   UNL     1      41.463 -13.017   1.638  1.00  0.00     0.135 C 
HETATM   10  C   UNL     1      42.277 -14.866   5.794  1.00  0.00     0.069 C 
ENDROOT
BRANCH   6  11
HETATM   11  C   UNL     1      43.349 -11.864   3.132  1.00  0.00     0.156 C 
BRANCH  11  12
HETATM   12  C   UNL     1      42.629 -10.918   4.085  1.00  0.00     0.223 C 
HETATM   13  N   UNL     1      42.939 -11.023   5.414  1.00  0.00    -0.359 N 
HETATM   14  H   UNL     1      43.778 -11.525   5.695  1.00  0.00     0.162 HD
HETATM   15  O   UNL     1      41.697 -10.223   3.690  1.00  0.00    -0.273 OA
BRANCH  13  16
HETATM   16  C   UNL     1      42.046 -10.611   6.512  1.00  0.00     0.150 C 
BRANCH  16  17
HETATM   17  C   UNL     1      42.383  -9.308   7.285  1.00  0.00     0.254 C 
BRANCH  17  18
HETATM   18  N   UNL     1      42.999  -9.562   8.645  1.00  0.00    -0.070 N 
HETATM   19  H   UNL     1      43.083 -10.595   8.726  1.00  0.00     0.279 HD
HETATM   20  C   UNL     1      44.388  -8.995   8.829  1.00  0.00     0.235 C 
HETATM   21  C   UNL     1      44.976  -9.530  10.129  1.00  0.00     0.028 C 
HETATM   22  C   UNL     1      44.083  -9.215  11.325  1.00  0.00     0.003 C 
HETATM   23  C   UNL     1      42.648  -9.673  11.088  1.00  0.00     0.028 C 
HETATM   24  C   UNL     1      42.088  -9.140   9.776  1.00  0.00     0.235 C 
ENDBRANCH  17  18
ENDBRANCH  16  17
ENDBRANCH  13  16
ENDBRANCH  11  12
ENDBRANCH   6  11
BRANCH   7  25
HETATM   25  C   UNL     1      43.575 -16.118   3.971  1.00  0.00    -0.030 C 
HETATM   26  C   UNL     1      43.209 -16.437   2.647  1.00  0.00     0.010 C 
HETATM   27  C   UNL     1      43.181 -17.767   2.217  1.00  0.00     0.008 C 
HETATM   28  C   UNL     1      43.563 -18.804   3.075  1.00  0.00    -0.055 C 
HETATM   29  C   UNL     1      44.114 -18.469   4.315  1.00  0.00     0.008 C 
HETATM   30  C   UNL     1      44.135 -17.143   4.752  1.00  0.00     0.010 C 
BRANCH  28  31
HETATM   31  C   UNL     1      43.301 -20.252   2.692  1.00  0.00     0.010 C 
HETATM   32  C   UNL     1      43.843 -20.611   1.310  1.00  0.00     0.015 C 
HETATM   33  C   UNL     1      43.880 -21.192   3.761  1.00  0.00     0.015 C 
ENDBRANCH  28  31
ENDBRANCH   7  25
BRANCH  10  34
HETATM   34  C   UNL     1      42.979 -14.600   7.064  1.00  0.00     0.293 C 
HETATM   35  O   UNL     1      43.483 -13.518   7.309  1.00  0.00    -0.259 OA
BRANCH  34  36
HETATM   36  O   UNL     1      42.761 -15.607   7.939  1.00  0.00    -0.323 OA
HETATM   37  C   UNL     1      43.853 -16.528   8.061  1.00  0.00     0.213 C 
ENDBRANCH  34  36
ENDBRANCH  10  34
TORSDOF 9
ENDMDL
MODEL 2
REMARK VINA RESULT:      -8.9      2.497      5.360
REMARK  9 active torsions:
REMARK  status: ('A' for Active; 'I' for Inactive)
REMARK    1  A    between atoms: C_6  and  C_7 
REMARK    2  A    between atoms: C_7  and  C_8 
REMARK       I    between atoms: C_8  and  N_9 
REMARK    3  A    between atoms: N_9  and  C_10 
REMARK    4  A    between atoms: C_10  and  C_11 
REMARK    5  A    between atoms: C_11  and  N_12 
REMARK    6  A    between atoms: C_20  and  C_21 
REMARK    7  A    between atoms: C_24  and  C_25 
REMARK    8  A    between atoms: C_32  and  C_33 
REMARK    9  A    between atoms: C_33  and  O_34 
ROOT
HETATM    1  C   UNL     1      43.261 -11.170   3.193  1.00  0.00     0.071 C 
HETATM    2  C   UNL     1      42.449 -12.438   3.137  1.00  0.00     0.048 C 
HETATM    3  N   UNL     1      43.119 -13.497   2.530  1.00  0.00    -0.229 NA
HETATM    4  C   UNL     1      42.642 -14.679   2.729  1.00  0.00     0.170 C 
HETATM    5  N   UNL     1      41.361 -14.924   3.562  1.00  0.00    -0.319 N 
HETATM    6  C   UNL     1      41.486 -16.001   4.257  1.00  0.00     0.011 C 
HETATM    7  C   UNL     1      40.390 -13.823   3.365  1.00  0.00     0.166 C 
HETATM    8  S   UNL     1      43.462 -16.156   2.388  1.00  0.00    -0.086 SA
HETATM    9  C   UNL     1      42.529 -16.976   3.728  1.00  0.00     0.135 C 
HETATM   10  C   UNL     1      41.180 -12.559   3.603  1.00  0.00     0.069 C 
ENDROOT
BRANCH   6  11
HETATM   11  C   UNL     1      40.727 -16.205   5.539  1.00  0.00     0.156 C 
BRANCH  11  12
HETATM   12  C   UNL     1      41.562 -15.672   6.697  1.00  0.00     0.223 C 
HETATM   13  N   UNL     1      41.902 -14.347   6.657  1.00  0.00    -0.359 N 
HETATM   14  H   UNL     1      41.409 -13.722   6.024  1.00  0.00     0.162 HD
HETATM   15  O   UNL     1      42.043 -16.440   7.526  1.00  0.00    -0.273 OA
BRANCH  13  16
HETATM   16  C   UNL     1      43.070 -13.767   7.343  1.00  0.00     0.150 C 
BRANCH  16  17
HETATM   17  C   UNL     1      43.985 -12.798   6.548  1.00  0.00     0.254 C 
BRANCH  17  18
HETATM   18  N   UNL     1      44.527 -11.661   7.389  1.00  0.00    -0.070 N 
HETATM   19  H   UNL     1      44.740 -12.077   8.318  1.00  0.00     0.279 HD
HETATM   20  C   UNL     1      45.811 -11.049   6.880  1.00  0.00     0.235 C 
HETATM   21  C   UNL     1      46.366 -10.104   7.939  1.00  0.00     0.028 C 
HETATM   22  C   UNL     1      45.354  -9.031   8.325  1.00  0.00     0.003 C 
HETATM   23  C   UNL     1      44.013  -9.642   8.718  1.00  0.00     0.028 C 
HETATM   24  C   UNL     1      43.487 -10.595   7.654  1.00  0.00     0.235 C 
ENDBRANCH  17  18
ENDBRANCH  16  17
ENDBRANCH  13  16
ENDBRANCH  11  12
ENDBRANCH   6  11
BRANCH   7  25
HETATM   25  C   UNL     1      39.845 -13.965   1.925  1.00  0.00    -0.030 C 
HETATM   26  C   UNL     1      39.829 -15.224   1.290  1.00  0.00     0.010 C 
HETATM   27  C   UNL     1      39.745 -15.318  -0.102  1.00  0.00     0.008 C 
HETATM   28  C   UNL     1      39.625 -14.168  -0.891  1.00  0.00    -0.055 C 
HETATM   29  C   UNL     1      39.440 -12.940  -0.248  1.00  0.00     0.008 C 
HETATM   30  C   UNL     1      39.531 -12.842   1.142  1.00  0.00     0.010 C 
BRANCH  28  31
HETATM   31  C   UNL     1      39.780 -14.253  -2.401  1.00  0.00     0.010 C 
HETATM   32  C   UNL     1      38.444 -14.357  -3.133  1.00  0.00     0.015 C 
HETATM   33  C   UNL     1      40.587 -13.052  -2.916  1.00  0.00     0.015 C 
ENDBRANCH  28  31
ENDBRANCH   7  25
BRANCH  10  34
HETATM   34  C   UNL     1      40.437 -11.550   4.384  1.00  0.00     0.293 C 
HETATM   35  O   UNL     1      39.601 -10.826   3.873  1.00  0.00    -0.259 OA
BRANCH  34  36
HETATM   36  O   UNL     1      40.650 -11.733   5.706  1.00  0.00    -0.323 OA
HETATM   37  C   UNL     1      39.536 -11.376   6.536  1.00  0.00     0.213 C 
ENDBRANCH  34  36
ENDBRANCH  10  34
TORSDOF 9
ENDMDL
MODEL 3
REMARK VINA RESULT:      -8.9      2.732      6.358
REMARK  9 active torsions:
REMARK  status: ('A' for Active; 'I' for Inactive)
REMARK    1  A    between atoms: C_6  and  C_7 
REMARK    2  A    between atoms: C_7  and  C_8 
REMARK       I    between atoms: C_8  and  N_9 
REMARK    3  A    between atoms: N_9  and  C_10 
REMARK    4  A    between atoms: C_10  and  C_11 
REMARK    5  A    between atoms: C_11  and  N_12 
REMARK    6  A    between atoms: C_20  and  C_21 
REMARK    7  A    between atoms: C_24  and  C_25 
REMARK    8  A    between atoms: C_32  and  C_33 
REMARK    9  A    between atoms: C_33  and  O_34 
ROOT
HETATM    1  C   UNL     1      40.001 -15.742   6.841  1.00  0.00     0.071 C 
HETATM    2  C   UNL     1      40.780 -15.459   5.583  1.00  0.00     0.048 C 
HETATM    3  N   UNL     1      40.165 -15.941   4.431  1.00  0.00    -0.229 NA
HETATM    4  C   UNL     1      40.583 -15.468   3.306  1.00  0.00     0.170 C 
HETATM    5  N   UNL     1      41.742 -14.446   3.218  1.00  0.00    -0.319 N 
HETATM    6  C   UNL     1      41.502 -13.587   2.289  1.00  0.00     0.011 C 
HETATM    7  C   UNL     1      42.758 -14.716   4.261  1.00  0.00     0.166 C 
HETATM    8  S   UNL     1      39.775 -15.633   1.793  1.00  0.00    -0.086 SA
HETATM    9  C   UNL     1      40.510 -14.057   1.234  1.00  0.00     0.135 C 
HETATM   10  C   UNL     1      41.977 -14.819   5.549  1.00  0.00     0.069 C 
ENDROOT
BRANCH   6  11
HETATM   11  C   UNL     1      42.087 -12.202   2.326  1.00  0.00     0.156 C 
BRANCH  11  12
HETATM   12  C   UNL     1      41.164 -11.255   1.569  1.00  0.00     0.223 C 
HETATM   13  N   UNL     1      41.349 -11.159   0.216  1.00  0.00    -0.359 N 
HETATM   14  H   UNL     1      41.897 -11.867  -0.267  1.00  0.00     0.162 HD
HETATM   15  O   UNL     1      40.414 -10.495   2.176  1.00  0.00    -0.273 OA
BRANCH  13  16
HETATM   16  C   UNL     1      40.959  -9.993  -0.596  1.00  0.00     0.150 C 
BRANCH  16  17
HETATM   17  C   UNL     1      40.117 -10.236  -1.877  1.00  0.00     0.254 C 
BRANCH  17  18
HETATM   18  N   UNL     1      39.631 -11.665  -2.010  1.00  0.00    -0.070 N 
HETATM   19  H   UNL     1      39.702 -12.074  -1.057  1.00  0.00     0.279 HD
HETATM   20  C   UNL     1      38.189 -11.808  -2.440  1.00  0.00     0.235 C 
HETATM   21  C   UNL     1      37.769 -13.265  -2.293  1.00  0.00     0.028 C 
HETATM   22  C   UNL     1      38.680 -14.199  -3.081  1.00  0.00     0.003 C 
HETATM   23  C   UNL     1      40.148 -13.968  -2.741  1.00  0.00     0.028 C 
HETATM   24  C   UNL     1      40.541 -12.503  -2.879  1.00  0.00     0.235 C 
ENDBRANCH  17  18
ENDBRANCH  16  17
ENDBRANCH  13  16
ENDBRANCH  11  12
ENDBRANCH   6  11
BRANCH   7  25
HETATM   25  C   UNL     1      43.476 -16.022   3.852  1.00  0.00    -0.030 C 
HETATM   26  C   UNL     1      43.452 -16.460   2.512  1.00  0.00     0.010 C 
HETATM   27  C   UNL     1      43.714 -17.796   2.195  1.00  0.00     0.008 C 
HETATM   28  C   UNL     1      44.055 -18.715   3.194  1.00  0.00    -0.055 C 
HETATM   29  C   UNL     1      44.273 -18.235   4.488  1.00  0.00     0.008 C 
HETATM   30  C   UNL     1      44.004 -16.903   4.811  1.00  0.00     0.010 C 
BRANCH  28  31
HETATM   31  C   UNL     1      44.099 -20.203   2.884  1.00  0.00     0.010 C 
HETATM   32  C   UNL     1      43.780 -21.074   4.097  1.00  0.00     0.015 C 
HETATM   33  C   UNL     1      43.150 -20.526   1.721  1.00  0.00     0.015 C 
ENDBRANCH  28  31
ENDBRANCH   7  25
BRANCH  10  34
HETATM   34  C   UNL     1      42.641 -14.148   6.684  1.00  0.00     0.293 C 
HETATM   35  O   UNL     1      43.111 -14.774   7.618  1.00  0.00    -0.259 OA
BRANCH  34  36
HETATM   36  O   UNL     1      42.843 -12.842   6.402  1.00  0.00    -0.323 OA
HETATM   37  C   UNL     1      44.059 -12.305   6.940  1.00  0.00     0.213 C 
ENDBRANCH  34  36
ENDBRANCH  10  34
TORSDOF 9
ENDMDL
MODEL 4
REMARK VINA RESULT:      -8.8      0.789      1.101
REMARK  9 active torsions:
REMARK  status: ('A' for Active; 'I' for Inactive)
REMARK    1  A    between atoms: C_6  and  C_7 
REMARK    2  A    between atoms: C_7  and  C_8 
REMARK       I    between atoms: C_8  and  N_9 
REMARK    3  A    between atoms: N_9  and  C_10 
REMARK    4  A    between atoms: C_10  and  C_11 
REMARK    5  A    between atoms: C_11  and  N_12 
REMARK    6  A    between atoms: C_20  and  C_21 
REMARK    7  A    between atoms: C_24  and  C_25 
REMARK    8  A    between atoms: C_32  and  C_33 
REMARK    9  A    between atoms: C_33  and  O_34 
ROOT
HETATM    1  C   UNL     1      39.989 -15.389   6.852  1.00  0.00     0.071 C 
HETATM    2  C   UNL     1      40.868 -15.133   5.655  1.00  0.00     0.048 C 
HETATM    3  N   UNL     1      40.225 -15.350   4.440  1.00  0.00    -0.229 NA
HETATM    4  C   UNL     1      40.782 -14.851   3.388  1.00  0.00     0.170 C 
HETATM    5  N   UNL     1      42.124 -14.084   3.449  1.00  0.00    -0.319 N 
HETATM    6  C   UNL     1      42.107 -13.096   2.622  1.00  0.00     0.011 C 
HETATM    7  C   UNL     1      43.015 -14.669   4.478  1.00  0.00     0.166 C 
HETATM    8  S   UNL     1      40.030 -14.679   1.847  1.00  0.00    -0.086 SA
HETATM    9  C   UNL     1      41.091 -13.234   1.496  1.00  0.00     0.135 C 
HETATM   10  C   UNL     1      42.169 -14.751   5.726  1.00  0.00     0.069 C 
ENDROOT
BRANCH   6  11
HETATM   11  C   UNL     1      42.955 -11.873   2.836  1.00  0.00     0.156 C 
BRANCH  11  12
HETATM   12  C   UNL     1      42.165 -10.862   3.658  1.00  0.00     0.223 C 
HETATM   13  N   UNL     1      42.126 -11.059   5.012  1.00  0.00    -0.359 N 
HETATM   14  H   UNL     1      42.794 -11.692   5.446  1.00  0.00     0.162 HD
HETATM   15  O   UNL     1      41.462 -10.020   3.105  1.00  0.00    -0.273 OA
BRANCH  13  16
HETATM   16  C   UNL     1      41.061 -10.553   5.896  1.00  0.00     0.150 C 
BRANCH  16  17
HETATM   17  C   UNL     1      41.369  -9.323   6.790  1.00  0.00     0.254 C 
BRANCH  17  18
HETATM   18  N   UNL     1      41.863  -9.696   8.172  1.00  0.00    -0.070 N 
HETATM   19  H   UNL     1      41.583 -10.688   8.311  1.00  0.00     0.279 HD
HETATM   20  C   UNL     1      43.362  -9.636   8.350  1.00  0.00     0.235 C 
HETATM   21  C   UNL     1      43.731 -10.266   9.687  1.00  0.00     0.028 C 
HETATM   22  C   UNL     1      43.006  -9.594  10.848  1.00  0.00     0.003 C 
HETATM   23  C   UNL     1      41.501  -9.539  10.612  1.00  0.00     0.028 C 
HETATM   24  C   UNL     1      41.157  -8.921   9.263  1.00  0.00     0.235 C 
ENDBRANCH  17  18
ENDBRANCH  16  17
ENDBRANCH  13  16
ENDBRANCH  11  12
ENDBRANCH   6  11
BRANCH   7  25
HETATM   25  C   UNL     1      43.476 -16.041   3.936  1.00  0.00    -0.030 C 
HETATM   26  C   UNL     1      43.231 -16.397   2.593  1.00  0.00     0.010 C 
HETATM   27  C   UNL     1      43.250 -17.737   2.197  1.00  0.00     0.008 C 
HETATM   28  C   UNL     1      43.562 -18.749   3.112  1.00  0.00    -0.055 C 
HETATM   29  C   UNL     1      43.999 -18.378   4.386  1.00  0.00     0.008 C 
HETATM   30  C   UNL     1      43.973 -17.041   4.789  1.00  0.00     0.010 C 
BRANCH  28  31
HETATM   31  C   UNL     1      43.345 -20.209   2.744  1.00  0.00     0.010 C 
HETATM   32  C   UNL     1      43.906 -20.568   1.370  1.00  0.00     0.015 C 
HETATM   33  C   UNL     1      43.944 -21.118   3.828  1.00  0.00     0.015 C 
ENDBRANCH  28  31
ENDBRANCH   7  25
BRANCH  10  34
HETATM   34  C   UNL     1      42.899 -14.360   6.947  1.00  0.00     0.293 C 
HETATM   35  O   UNL     1      43.349 -15.186   7.722  1.00  0.00    -0.259 OA
BRANCH  34  36
HETATM   36  O   UNL     1      43.177 -13.038   6.923  1.00  0.00    -0.323 OA
HETATM   37  C   UNL     1      44.576 -12.731   6.857  1.00  0.00     0.213 C 
ENDBRANCH  34  36
ENDBRANCH  10  34
TORSDOF 9
ENDMDL
MODEL 5
REMARK VINA RESULT:      -8.7      2.589      4.323
REMARK  9 active torsions:
REMARK  status: ('A' for Active; 'I' for Inactive)
REMARK    1  A    between atoms: C_6  and  C_7 
REMARK    2  A    between atoms: C_7  and  C_8 
REMARK       I    between atoms: C_8  and  N_9 
REMARK    3  A    between atoms: N_9  and  C_10 
REMARK    4  A    between atoms: C_10  and  C_11 
REMARK    5  A    between atoms: C_11  and  N_12 
REMARK    6  A    between atoms: C_20  and  C_21 
REMARK    7  A    between atoms: C_24  and  C_25 
REMARK    8  A    between atoms: C_32  and  C_33 
REMARK    9  A    between atoms: C_33  and  O_34 
ROOT
HETATM    1  C   UNL     1      41.697 -11.123   0.565  1.00  0.00     0.071 C 
HETATM    2  C   UNL     1      41.751 -11.889   1.861  1.00  0.00     0.048 C 
HETATM    3  N   UNL     1      42.820 -11.523   2.675  1.00  0.00    -0.229 NA
HETATM    4  C   UNL     1      42.758 -11.880   3.914  1.00  0.00     0.170 C 
HETATM    5  N   UNL     1      41.583 -12.714   4.476  1.00  0.00    -0.319 N 
HETATM    6  C   UNL     1      41.291 -12.320   5.667  1.00  0.00     0.011 C 
HETATM    7  C   UNL     1      41.096 -13.681   3.464  1.00  0.00     0.166 C 
HETATM    8  S   UNL     1      43.757 -11.269   5.178  1.00  0.00    -0.086 SA
HETATM    9  C   UNL     1      42.416 -11.581   6.380  1.00  0.00     0.135 C 
HETATM   10  C   UNL     1      40.873 -12.861   2.216  1.00  0.00     0.069 C 
ENDROOT
BRANCH   6  11
HETATM   11  C   UNL     1      39.913 -12.495   6.241  1.00  0.00     0.156 C 
BRANCH  11  12
HETATM   12  C   UNL     1      39.390 -11.137   6.692  1.00  0.00     0.223 C 
HETATM   13  N   UNL     1      40.060 -10.524   7.716  1.00  0.00    -0.359 N 
HETATM   14  H   UNL     1      40.989 -10.848   7.972  1.00  0.00     0.162 HD
HETATM   15  O   UNL     1      38.320 -10.707   6.269  1.00  0.00    -0.273 OA
BRANCH  13  16
HETATM   16  C   UNL     1      39.464  -9.523   8.619  1.00  0.00     0.150 C 
BRANCH  16  17
HETATM   17  C   UNL     1      39.496  -9.797  10.146  1.00  0.00     0.254 C 
BRANCH  17  18
HETATM   18  N   UNL     1      40.890  -9.735  10.735  1.00  0.00    -0.070 N 
HETATM   19  H   UNL     1      41.352 -10.623  10.455  1.00  0.00     0.279 HD
HETATM   20  C   UNL     1      41.752  -8.610  10.213  1.00  0.00     0.235 C 
HETATM   21  C   UNL     1      43.183  -8.814  10.695  1.00  0.00     0.028 C 
HETATM   22  C   UNL     1      43.259  -8.914  12.215  1.00  0.00     0.003 C 
HETATM   23  C   UNL     1      42.294  -9.963  12.756  1.00  0.00     0.028 C 
HETATM   24  C   UNL     1      40.875  -9.749  12.248  1.00  0.00     0.235 C 
ENDBRANCH  17  18
ENDBRANCH  16  17
ENDBRANCH  13  16
ENDBRANCH  11  12
ENDBRANCH   6  11
BRANCH   7  25
HETATM   25  C   UNL     1      42.192 -14.762   3.322  1.00  0.00    -0.030 C 
HETATM   26  C   UNL     1      42.527 -15.274   2.051  1.00  0.00     0.010 C 
HETATM   27  C   UNL     1      43.181 -16.504   1.929  1.00  0.00     0.008 C 
HETATM   28  C   UNL     1      43.562 -17.228   3.065  1.00  0.00    -0.055 C 
HETATM   29  C   UNL     1      43.407 -16.624   4.317  1.00  0.00     0.008 C 
HETATM   30  C   UNL     1      42.747 -15.401   4.443  1.00  0.00     0.010 C 
BRANCH  28  31
HETATM   31  C   UNL     1      44.047 -18.662   2.933  1.00  0.00     0.010 C 
HETATM   32  C   UNL     1      44.293 -19.336   4.282  1.00  0.00     0.015 C 
HETATM   33  C   UNL     1      43.052 -19.479   2.094  1.00  0.00     0.015 C 
ENDBRANCH  28  31
ENDBRANCH   7  25
BRANCH  10  34
HETATM   34  C   UNL     1      39.635 -13.224   1.499  1.00  0.00     0.293 C 
HETATM   35  O   UNL     1      38.677 -12.473   1.445  1.00  0.00    -0.259 OA
BRANCH  34  36
HETATM   36  O   UNL     1      39.832 -14.338   0.760  1.00  0.00    -0.323 OA
HETATM   37  C   UNL     1      39.851 -14.110  -0.655  1.00  0.00     0.213 C 
ENDBRANCH  34  36
ENDBRANCH  10  34
TORSDOF 9
ENDMDL
MODEL 6
REMARK VINA RESULT:      -8.6      2.499      4.502
REMARK  9 active torsions:
REMARK  status: ('A' for Active; 'I' for Inactive)
REMARK    1  A    between atoms: C_6  and  C_7 
REMARK    2  A    between atoms: C_7  and  C_8 
REMARK       I    between atoms: C_8  and  N_9 
REMARK    3  A    between atoms: N_9  and  C_10 
REMARK    4  A    between atoms: C_10  and  C_11 
REMARK    5  A    between atoms: C_11  and  N_12 
REMARK    6  A    between atoms: C_20  and  C_21 
REMARK    7  A    between atoms: C_24  and  C_25 
REMARK    8  A    between atoms: C_32  and  C_33 
REMARK    9  A    between atoms: C_33  and  O_34 
ROOT
HETATM    1  C   UNL     1      40.295 -16.441   5.511  1.00  0.00     0.071 C 
HETATM    2  C   UNL     1      40.773 -15.241   4.734  1.00  0.00     0.048 C 
HETATM    3  N   UNL     1      39.983 -14.110   4.923  1.00  0.00    -0.229 NA
HETATM    4  C   UNL     1      40.491 -12.978   4.570  1.00  0.00     0.170 C 
HETATM    5  N   UNL     1      41.893 -12.868   3.923  1.00  0.00    -0.319 N 
HETATM    6  C   UNL     1      42.493 -11.810   4.348  1.00  0.00     0.011 C 
HETATM    7  C   UNL     1      42.161 -14.035   3.052  1.00  0.00     0.166 C 
HETATM    8  S   UNL     1      39.877 -11.429   5.008  1.00  0.00    -0.086 SA
HETATM    9  C   UNL     1      41.564 -10.735   4.898  1.00  0.00     0.135 C 
HETATM   10  C   UNL     1      41.849 -15.240   3.907  1.00  0.00     0.069 C 
ENDROOT
BRANCH   6  11
HETATM   11  C   UNL     1      43.993 -11.715   4.384  1.00  0.00     0.156 C 
BRANCH  11  12
HETATM   12  C   UNL     1      44.457 -11.782   5.834  1.00  0.00     0.223 C 
HETATM   13  N   UNL     1      45.060 -10.665   6.345  1.00  0.00    -0.359 N 
HETATM   14  H   UNL     1      44.965  -9.777   5.858  1.00  0.00     0.162 HD
HETATM   15  O   UNL     1      44.442 -12.847   6.446  1.00  0.00    -0.273 OA
BRANCH  13  16
HETATM   16  C   UNL     1      46.004 -10.672   7.476  1.00  0.00     0.150 C 
BRANCH  16  17
HETATM   17  C   UNL     1      46.360  -9.319   8.147  1.00  0.00     0.254 C 
BRANCH  17  18
HETATM   18  N   UNL     1      45.336  -8.871   9.169  1.00  0.00    -0.070 N 
HETATM   19  H   UNL     1      45.842  -8.225   9.808  1.00  0.00     0.279 HD
HETATM   20  C   UNL     1      44.168  -8.097   8.603  1.00  0.00     0.235 C 
HETATM   21  C   UNL     1      43.360  -7.504   9.750  1.00  0.00     0.028 C 
HETATM   22  C   UNL     1      42.895  -8.577  10.729  1.00  0.00     0.003 C 
HETATM   23  C   UNL     1      44.056  -9.442  11.205  1.00  0.00     0.028 C 
HETATM   24  C   UNL     1      44.858 -10.011  10.041  1.00  0.00     0.235 C 
ENDBRANCH  17  18
ENDBRANCH  16  17
ENDBRANCH  13  16
ENDBRANCH  11  12
ENDBRANCH   6  11
BRANCH   7  25
HETATM   25  C   UNL     1      41.246 -13.885   1.815  1.00  0.00    -0.030 C 
HETATM   26  C   UNL     1      40.474 -14.975   1.362  1.00  0.00     0.010 C 
HETATM   27  C   UNL     1      39.984 -15.004   0.054  1.00  0.00     0.008 C 
HETATM   28  C   UNL     1      40.204 -13.932  -0.817  1.00  0.00    -0.055 C 
HETATM   29  C   UNL     1      40.793 -12.773  -0.304  1.00  0.00     0.008 C 
HETATM   30  C   UNL     1      41.292 -12.742   0.999  1.00  0.00     0.010 C 
BRANCH  28  31
HETATM   31  C   UNL     1      39.886 -14.068  -2.298  1.00  0.00     0.010 C 
HETATM   32  C   UNL     1      38.774 -15.077  -2.579  1.00  0.00     0.015 C 
HETATM   33  C   UNL     1      39.532 -12.695  -2.888  1.00  0.00     0.015 C 
ENDBRANCH  28  31
ENDBRANCH   7  25
BRANCH  10  34
HETATM   34  C   UNL     1      42.828 -16.333   3.747  1.00  0.00     0.293 C 
HETATM   35  O   UNL     1      42.851 -17.038   2.754  1.00  0.00    -0.259 OA
BRANCH  34  36
HETATM   36  O   UNL     1      43.778 -16.254   4.706  1.00  0.00    -0.323 OA
HETATM   37  C   UNL     1      44.037 -17.492   5.380  1.00  0.00     0.213 C 
ENDBRANCH  34  36
ENDBRANCH  10  34
TORSDOF 9
ENDMDL
MODEL 7
REMARK VINA RESULT:      -8.4      2.539      4.179
REMARK  9 active torsions:
REMARK  status: ('A' for Active; 'I' for Inactive)
REMARK    1  A    between atoms: C_6  and  C_7 
REMARK    2  A    between atoms: C_7  and  C_8 
REMARK       I    between atoms: C_8  and  N_9 
REMARK    3  A    between atoms: N_9  and  C_10 
REMARK    4  A    between atoms: C_10  and  C_11 
REMARK    5  A    between atoms: C_11  and  N_12 
REMARK    6  A    between atoms: C_20  and  C_21 
REMARK    7  A    between atoms: C_24  and  C_25 
REMARK    8  A    between atoms: C_32  and  C_33 
REMARK    9  A    between atoms: C_33  and  O_34 
ROOT
HETATM    1  C   UNL     1      40.182 -15.914   6.367  1.00  0.00     0.071 C 
HETATM    2  C   UNL     1      40.914 -14.921   5.502  1.00  0.00     0.048 C 
HETATM    3  N   UNL     1      40.192 -13.754   5.267  1.00  0.00    -0.229 NA
HETATM    4  C   UNL     1      40.853 -12.738   4.825  1.00  0.00     0.170 C 
HETATM    5  N   UNL     1      42.368 -12.807   4.522  1.00  0.00    -0.319 N 
HETATM    6  C   UNL     1      42.936 -11.700   4.856  1.00  0.00     0.011 C 
HETATM    7  C   UNL     1      42.737 -14.140   3.992  1.00  0.00     0.166 C 
HETATM    8  S   UNL     1      40.277 -11.115   4.784  1.00  0.00    -0.086 SA
HETATM    9  C   UNL     1      41.993 -10.508   4.942  1.00  0.00     0.135 C 
HETATM   10  C   UNL     1      42.147 -15.126   4.972  1.00  0.00     0.069 C 
ENDROOT
BRANCH   6  11
HETATM   11  C   UNL     1      44.392 -11.641   5.229  1.00  0.00     0.156 C 
BRANCH  11  12
HETATM   12  C   UNL     1      44.509 -11.467   6.737  1.00  0.00     0.223 C 
HETATM   13  N   UNL     1      44.844 -10.221   7.194  1.00  0.00    -0.359 N 
HETATM   14  H   UNL     1      44.765  -9.421   6.571  1.00  0.00     0.162 HD
HETATM   15  O   UNL     1      44.472 -12.442   7.484  1.00  0.00    -0.273 OA
BRANCH  13  16
HETATM   16  C   UNL     1      45.492  -9.957   8.491  1.00  0.00     0.150 C 
BRANCH  16  17
HETATM   17  C   UNL     1      44.988  -8.756   9.334  1.00  0.00     0.254 C 
BRANCH  17  18
HETATM   18  N   UNL     1      44.374  -9.169  10.656  1.00  0.00    -0.070 N 
HETATM   19  H   UNL     1      45.167  -9.226  11.326  1.00  0.00     0.279 HD
HETATM   20  C   UNL     1      43.384  -8.185  11.234  1.00  0.00     0.235 C 
HETATM   21  C   UNL     1      43.041  -8.601  12.659  1.00  0.00     0.028 C 
HETATM   22  C   UNL     1      42.506 -10.028  12.718  1.00  0.00     0.003 C 
HETATM   23  C   UNL     1      43.445 -11.007  12.022  1.00  0.00     0.028 C 
HETATM   24  C   UNL     1      43.786 -10.562  10.606  1.00  0.00     0.235 C 
ENDBRANCH  17  18
ENDBRANCH  16  17
ENDBRANCH  13  16
ENDBRANCH  11  12
ENDBRANCH   6  11
BRANCH   7  25
HETATM   25  C   UNL     1      42.140 -14.232   2.569  1.00  0.00    -0.030 C 
HETATM   26  C   UNL     1      42.187 -13.119   1.703  1.00  0.00     0.010 C 
HETATM   27  C   UNL     1      41.318 -13.029   0.612  1.00  0.00     0.008 C 
HETATM   28  C   UNL     1      40.419 -14.063   0.327  1.00  0.00    -0.055 C 
HETATM   29  C   UNL     1      40.514 -15.246   1.065  1.00  0.00     0.008 C 
HETATM   30  C   UNL     1      41.375 -15.337   2.160  1.00  0.00     0.010 C 
BRANCH  28  31
HETATM   31  C   UNL     1      39.317 -13.859  -0.702  1.00  0.00     0.010 C 
HETATM   32  C   UNL     1      38.718 -12.455  -0.665  1.00  0.00     0.015 C 
HETATM   33  C   UNL     1      39.844 -14.186  -2.107  1.00  0.00     0.015 C 
ENDBRANCH  28  31
ENDBRANCH   7  25
BRANCH  10  34
HETATM   34  C   UNL     1      43.049 -16.255   5.272  1.00  0.00     0.293 C 
HETATM   35  O   UNL     1      43.089 -17.252   4.574  1.00  0.00    -0.259 OA
BRANCH  34  36
HETATM   36  O   UNL     1      43.932 -15.905   6.235  1.00  0.00    -0.323 OA
HETATM   37  C   UNL     1      43.702 -16.536   7.501  1.00  0.00     0.213 C 
ENDBRANCH  34  36
ENDBRANCH  10  34
TORSDOF 9
ENDMDL
MODEL 8
REMARK VINA RESULT:      -8.2      2.582      4.486
REMARK  9 active torsions:
REMARK  status: ('A' for Active; 'I' for Inactive)
REMARK    1  A    between atoms: C_6  and  C_7 
REMARK    2  A    between atoms: C_7  and  C_8 
REMARK       I    between atoms: C_8  and  N_9 
REMARK    3  A    between atoms: N_9  and  C_10 
REMARK    4  A    between atoms: C_10  and  C_11 
REMARK    5  A    between atoms: C_11  and  N_12 
REMARK    6  A    between atoms: C_20  and  C_21 
REMARK    7  A    between atoms: C_24  and  C_25 
REMARK    8  A    between atoms: C_32  and  C_33 
REMARK    9  A    between atoms: C_33  and  O_34 
ROOT
HETATM    1  C   UNL     1      41.702 -10.791   0.584  1.00  0.00     0.071 C 
HETATM    2  C   UNL     1      41.715 -11.610   1.848  1.00  0.00     0.048 C 
HETATM    3  N   UNL     1      42.758 -11.281   2.710  1.00  0.00    -0.229 NA
HETATM    4  C   UNL     1      42.658 -11.689   3.930  1.00  0.00     0.170 C 
HETATM    5  N   UNL     1      41.464 -12.542   4.420  1.00  0.00    -0.319 N 
HETATM    6  C   UNL     1      41.136 -12.197   5.617  1.00  0.00     0.011 C 
HETATM    7  C   UNL     1      41.008 -13.465   3.355  1.00  0.00     0.166 C 
HETATM    8  S   UNL     1      43.617 -11.133   5.249  1.00  0.00    -0.086 SA
HETATM    9  C   UNL     1      42.239 -11.491   6.394  1.00  0.00     0.135 C 
HETATM   10  C   UNL     1      40.825 -12.594   2.136  1.00  0.00     0.069 C 
ENDROOT
BRANCH   6  11
HETATM   11  C   UNL     1      39.740 -12.391   6.139  1.00  0.00     0.156 C 
BRANCH  11  12
HETATM   12  C   UNL     1      39.204 -11.052   6.629  1.00  0.00     0.223 C 
HETATM   13  N   UNL     1      39.475  -9.955   5.856  1.00  0.00    -0.359 N 
HETATM   14  H   UNL     1      39.791 -10.084   4.897  1.00  0.00     0.162 HD
HETATM   15  O   UNL     1      38.708 -10.948   7.748  1.00  0.00    -0.273 OA
BRANCH  13  16
HETATM   16  C   UNL     1      39.517  -8.571   6.360  1.00  0.00     0.150 C 
BRANCH  16  17
HETATM   17  C   UNL     1      40.883  -7.835   6.374  1.00  0.00     0.254 C 
BRANCH  17  18
HETATM   18  N   UNL     1      41.386  -7.532   7.770  1.00  0.00    -0.070 N 
HETATM   19  H   UNL     1      41.320  -6.500   7.873  1.00  0.00     0.279 HD
HETATM   20  C   UNL     1      40.565  -8.136   8.886  1.00  0.00     0.235 C 
HETATM   21  C   UNL     1      41.029  -7.555  10.216  1.00  0.00     0.028 C 
HETATM   22  C   UNL     1      42.520  -7.776  10.440  1.00  0.00     0.003 C 
HETATM   23  C   UNL     1      43.344  -7.283   9.256  1.00  0.00     0.028 C 
HETATM   24  C   UNL     1      42.852  -7.863   7.937  1.00  0.00     0.235 C 
ENDBRANCH  17  18
ENDBRANCH  16  17
ENDBRANCH  13  16
ENDBRANCH  11  12
ENDBRANCH   6  11
BRANCH   7  25
HETATM   25  C   UNL     1      42.106 -14.542   3.202  1.00  0.00    -0.030 C 
HETATM   26  C   UNL     1      42.368 -15.120   1.942  1.00  0.00     0.010 C 
HETATM   27  C   UNL     1      43.028 -16.348   1.846  1.00  0.00     0.008 C 
HETATM   28  C   UNL     1      43.488 -17.005   2.993  1.00  0.00    -0.055 C 
HETATM   29  C   UNL     1      43.404 -16.336   4.217  1.00  0.00     0.008 C 
HETATM   30  C   UNL     1      42.738 -15.114   4.319  1.00  0.00     0.010 C 
BRANCH  28  31
HETATM   31  C   UNL     1      43.982 -18.441   2.908  1.00  0.00     0.010 C 
HETATM   32  C   UNL     1      44.230 -19.068   4.278  1.00  0.00     0.015 C 
HETATM   33  C   UNL     1      42.993 -19.290   2.095  1.00  0.00     0.015 C 
ENDBRANCH  28  31
ENDBRANCH   7  25
BRANCH  10  34
HETATM   34  C   UNL     1      39.609 -12.923   1.366  1.00  0.00     0.293 C 
HETATM   35  O   UNL     1      39.653 -13.583   0.342  1.00  0.00    -0.259 OA
BRANCH  34  36
HETATM   36  O   UNL     1      38.505 -12.604   2.077  1.00  0.00    -0.323 OA
HETATM   37  C   UNL     1      38.101 -11.234   1.954  1.00  0.00     0.213 C 
ENDBRANCH  34  36
ENDBRANCH  10  34
TORSDOF 9
ENDMDL
MODEL 9
REMARK VINA RESULT:      -8.1      3.866     10.382
REMARK  9 active torsions:
REMARK  status: ('A' for Active; 'I' for Inactive)
REMARK    1  A    between atoms: C_6  and  C_7 
REMARK    2  A    between atoms: C_7  and  C_8 
REMARK       I    between atoms: C_8  and  N_9 
REMARK    3  A    between atoms: N_9  and  C_10 
REMARK    4  A    between atoms: C_10  and  C_11 
REMARK    5  A    between atoms: C_11  and  N_12 
REMARK    6  A    between atoms: C_20  and  C_21 
REMARK    7  A    between atoms: C_24  and  C_25 
REMARK    8  A    between atoms: C_32  and  C_33 
REMARK    9  A    between atoms: C_33  and  O_34 
ROOT
HETATM    1  C   UNL     1      44.574  -7.428   8.757  1.00  0.00     0.071 C 
HETATM    2  C   UNL     1      43.350  -7.847   9.530  1.00  0.00     0.048 C 
HETATM    3  N   UNL     1      42.495  -6.790   9.827  1.00  0.00    -0.229 NA
HETATM    4  C   UNL     1      41.294  -7.094  10.186  1.00  0.00     0.170 C 
HETATM    5  N   UNL     1      40.821  -8.561  10.329  1.00  0.00    -0.319 N 
HETATM    6  C   UNL     1      39.603  -8.673   9.925  1.00  0.00     0.011 C 
HETATM    7  C   UNL     1      41.919  -9.419  10.831  1.00  0.00     0.166 C 
HETATM    8  S   UNL     1      39.969  -5.996  10.270  1.00  0.00    -0.086 SA
HETATM    9  C   UNL     1      38.815  -7.370   9.926  1.00  0.00     0.135 C 
HETATM   10  C   UNL     1      43.092  -9.119   9.929  1.00  0.00     0.069 C 
ENDROOT
BRANCH   6  11
HETATM   11  C   UNL     1      39.063  -9.974   9.400  1.00  0.00     0.156 C 
BRANCH  11  12
HETATM   12  C   UNL     1      39.310 -10.043   7.899  1.00  0.00     0.223 C 
HETATM   13  N   UNL     1      39.168 -11.267   7.302  1.00  0.00    -0.359 N 
HETATM   14  H   UNL     1      38.682 -12.011   7.795  1.00  0.00     0.162 HD
HETATM   15  O   UNL     1      39.781  -9.080   7.298  1.00  0.00    -0.273 OA
BRANCH  13  16
HETATM   16  C   UNL     1      39.828 -11.661   6.044  1.00  0.00     0.150 C 
BRANCH  16  17
HETATM   17  C   UNL     1      41.320 -12.084   6.098  1.00  0.00     0.254 C 
BRANCH  17  18
HETATM   18  N   UNL     1      41.518 -13.524   6.525  1.00  0.00    -0.070 N 
HETATM   19  H   UNL     1      41.434 -13.523   7.561  1.00  0.00     0.279 HD
HETATM   20  C   UNL     1      40.480 -14.491   6.003  1.00  0.00     0.235 C 
HETATM   21  C   UNL     1      40.656 -15.834   6.702  1.00  0.00     0.028 C 
HETATM   22  C   UNL     1      42.067 -16.384   6.524  1.00  0.00     0.003 C 
HETATM   23  C   UNL     1      43.121 -15.360   6.930  1.00  0.00     0.028 C 
HETATM   24  C   UNL     1      42.916 -14.022   6.233  1.00  0.00     0.235 C 
ENDBRANCH  17  18
ENDBRANCH  16  17
ENDBRANCH  13  16
ENDBRANCH  11  12
ENDBRANCH   6  11
BRANCH   7  25
HETATM   25  C   UNL     1      42.144  -9.030  12.310  1.00  0.00    -0.030 C 
HETATM   26  C   UNL     1      41.132  -9.251  13.267  1.00  0.00     0.010 C 
HETATM   27  C   UNL     1      41.134  -8.552  14.478  1.00  0.00     0.008 C 
HETATM   28  C   UNL     1      42.165  -7.658  14.787  1.00  0.00    -0.055 C 
HETATM   29  C   UNL     1      43.265  -7.593  13.927  1.00  0.00     0.008 C 
HETATM   30  C   UNL     1      43.263  -8.282  12.713  1.00  0.00     0.010 C 
BRANCH  28  31
HETATM   31  C   UNL     1      42.039  -6.727  15.982  1.00  0.00     0.010 C 
HETATM   32  C   UNL     1      41.182  -5.496  15.693  1.00  0.00     0.015 C 
HETATM   33  C   UNL     1      41.490  -7.496  17.193  1.00  0.00     0.015 C 
ENDBRANCH  28  31
ENDBRANCH   7  25
BRANCH  10  34
HETATM   34  C   UNL     1      43.853 -10.325   9.547  1.00  0.00     0.293 C 
HETATM   35  O   UNL     1      44.437 -11.006  10.371  1.00  0.00    -0.259 OA
BRANCH  34  36
HETATM   36  O   UNL     1      43.595 -10.652   8.261  1.00  0.00    -0.323 OA
HETATM   37  C   UNL     1      44.755 -11.021   7.504  1.00  0.00     0.213 C 
ENDBRANCH  34  36
ENDBRANCH  10  34
TORSDOF 9
ENDMDL
MODEL 10
REMARK VINA RESULT:      -8.1      2.932      8.477
REMARK  9 active torsions:
REMARK  status: ('A' for Active; 'I' for Inactive)
REMARK    1  A    between atoms: C_6  and  C_7 
REMARK    2  A    between atoms: C_7  and  C_8 
REMARK       I    between atoms: C_8  and  N_9 
REMARK    3  A    between atoms: N_9  and  C_10 
REMARK    4  A    between atoms: C_10  and  C_11 
REMARK    5  A    between atoms: C_11  and  N_12 
REMARK    6  A    between atoms: C_20  and  C_21 
REMARK    7  A    between atoms: C_24  and  C_25 
REMARK    8  A    between atoms: C_32  and  C_33 
REMARK    9  A    between atoms: C_33  and  O_34 
ROOT
HETATM    1  C   UNL     1      38.952 -11.560   3.811  1.00  0.00     0.071 C 
HETATM    2  C   UNL     1      40.144 -12.296   4.364  1.00  0.00     0.048 C 
HETATM    3  N   UNL     1      39.831 -13.133   5.432  1.00  0.00    -0.229 NA
HETATM    4  C   UNL     1      40.704 -14.029   5.747  1.00  0.00     0.170 C 
HETATM    5  N   UNL     1      42.061 -14.153   5.014  1.00  0.00    -0.319 N 
HETATM    6  C   UNL     1      42.382 -15.394   4.888  1.00  0.00     0.011 C 
HETATM    7  C   UNL     1      42.568 -12.818   4.620  1.00  0.00     0.166 C 
HETATM    8  S   UNL     1      40.420 -15.381   6.777  1.00  0.00    -0.086 SA
HETATM    9  C   UNL     1      41.698 -16.327   5.878  1.00  0.00     0.135 C 
HETATM   10  C   UNL     1      41.413 -12.159   3.903  1.00  0.00     0.069 C 
ENDROOT
BRANCH   6  11
HETATM   11  C   UNL     1      43.279 -15.868   3.777  1.00  0.00     0.156 C 
BRANCH  11  12
HETATM   12  C   UNL     1      42.425 -16.196   2.559  1.00  0.00     0.223 C 
HETATM   13  N   UNL     1      41.804 -15.147   1.936  1.00  0.00    -0.359 N 
HETATM   14  H   UNL     1      42.109 -14.196   2.132  1.00  0.00     0.162 HD
HETATM   15  O   UNL     1      42.176 -17.362   2.266  1.00  0.00    -0.273 OA
BRANCH  13  16
HETATM   16  C   UNL     1      40.585 -15.269   1.117  1.00  0.00     0.150 C 
BRANCH  16  17
HETATM   17  C   UNL     1      39.617 -14.058   1.055  1.00  0.00     0.254 C 
BRANCH  17  18
HETATM   18  N   UNL     1      39.214 -13.686  -0.357  1.00  0.00    -0.070 N 
HETATM   19  H   UNL     1      38.454 -14.348  -0.614  1.00  0.00     0.279 HD
HETATM   20  C   UNL     1      38.650 -12.293  -0.512  1.00  0.00     0.235 C 
HETATM   21  C   UNL     1      38.064 -12.145  -1.911  1.00  0.00     0.028 C 
HETATM   22  C   UNL     1      39.096 -12.451  -2.991  1.00  0.00     0.003 C 
HETATM   23  C   UNL     1      39.759 -13.805  -2.764  1.00  0.00     0.028 C 
HETATM   24  C   UNL     1      40.322 -13.936  -1.355  1.00  0.00     0.235 C 
ENDBRANCH  17  18
ENDBRANCH  16  17
ENDBRANCH  13  16
ENDBRANCH  11  12
ENDBRANCH   6  11
BRANCH   7  25
HETATM   25  C   UNL     1      42.993 -12.103   5.923  1.00  0.00    -0.030 C 
HETATM   26  C   UNL     1      42.437 -10.853   6.265  1.00  0.00     0.010 C 
HETATM   27  C   UNL     1      43.082 -10.012   7.176  1.00  0.00     0.008 C 
HETATM   28  C   UNL     1      44.266 -10.413   7.805  1.00  0.00    -0.055 C 
HETATM   29  C   UNL     1      44.704 -11.727   7.616  1.00  0.00     0.008 C 
HETATM   30  C   UNL     1      44.067 -12.567   6.701  1.00  0.00     0.010 C 
BRANCH  28  31
HETATM   31  C   UNL     1      45.089  -9.412   8.600  1.00  0.00     0.010 C 
HETATM   32  C   UNL     1      44.433  -8.036   8.689  1.00  0.00     0.015 C 
HETATM   33  C   UNL     1      45.378  -9.966  10.003  1.00  0.00     0.015 C 
ENDBRANCH  28  31
ENDBRANCH   7  25
BRANCH  10  34
HETATM   34  C   UNL     1      41.829 -11.415   2.698  1.00  0.00     0.293 C 
HETATM   35  O   UNL     1      42.089 -11.979   1.650  1.00  0.00    -0.259 OA
BRANCH  34  36
HETATM   36  O   UNL     1      41.638 -10.089   2.878  1.00  0.00    -0.323 OA
HETATM   37  C   UNL     1      41.047  -9.422   1.755  1.00  0.00     0.213 C 
ENDBRANCH  34  36
ENDBRANCH  10  34
TORSDOF 9
ENDMDL
