MODEL 1
REMARK VINA RESULT:      -8.6      0.000      0.000
REMARK  8 active torsions:
REMARK  status: ('A' for Active; 'I' for Inactive)
REMARK    1  A    between atoms: C_2  and  C_3 
REMARK    2  A    between atoms: C_4  and  N_5 
REMARK       I    between atoms: N_5  and  C_6 
REMARK    3  A    between atoms: C_6  and  C_7 
REMARK    4  A    between atoms: C_7  and  N_8 
REMARK    5  A    between atoms: C_11  and  C_12 
REMARK       I    between atoms: C_12  and  N_13 
REMARK    6  A    between atoms: N_13  and  C_14 
REMARK    7  A    between atoms: C_15  and  O_16 
REMARK    8  A    between atoms: C_24  and  N_25 
ROOT
HETATM    1  N   UNL     1      40.954 -11.859   4.782  1.00  0.00    -0.252 N 
HETATM    2  N   UNL     1      42.014 -11.819   3.953  1.00  0.00     0.007 NA
HETATM    3  N   UNL     1      42.326 -13.070   3.639  1.00  0.00    -0.151 NA
HETATM    4  C   UNL     1      41.433 -13.910   4.267  1.00  0.00     0.181 A 
HETATM    5  C   UNL     1      40.512 -13.148   4.964  1.00  0.00     0.130 A 
ENDROOT
BRANCH   1   6
HETATM    6  C   UNL     1      40.482 -10.660   5.435  1.00  0.00     0.251 C 
BRANCH   6   7
HETATM    7  C   UNL     1      41.566  -9.943   6.221  1.00  0.00     0.241 C 
HETATM    8  N   UNL     1      42.226 -10.719   7.164  1.00  0.00    -0.325 N 
HETATM    9  H   UNL     1      41.932 -11.689   7.240  1.00  0.00     0.169 HD
HETATM   10  O   UNL     1      41.726  -8.736   6.047  1.00  0.00    -0.271 OA
BRANCH   8  11
HETATM   11  C   UNL     1      43.305 -10.346   8.007  1.00  0.00     0.041 A 
HETATM   12  C   UNL     1      44.607 -10.823   7.717  1.00  0.00    -0.032 A 
HETATM   13  C   UNL     1      45.684 -10.430   8.538  1.00  0.00     0.009 A 
HETATM   14  C   UNL     1      45.487  -9.594   9.633  1.00  0.00     0.001 A 
HETATM   15  C   UNL     1      44.210  -9.135   9.922  1.00  0.00     0.002 A 
HETATM   16  C   UNL     1      43.131  -9.506   9.115  1.00  0.00     0.030 A 
BRANCH  12  17
HETATM   17  C   UNL     1      44.935 -11.709   6.534  1.00  0.00     0.036 C 
HETATM   18  C   UNL     1      44.322 -13.094   6.673  1.00  0.00     0.010 C 
ENDBRANCH  12  17
ENDBRANCH   8  11
ENDBRANCH   6   7
ENDBRANCH   1   6
BRANCH   5  19
HETATM   19  N   UNL     1      39.463 -13.473   5.767  1.00  0.00    -0.285 NA
HETATM   20  H   UNL     1      38.545 -13.472   5.301  1.00  0.00     0.125 HD
HETATM   21  H   UNL     1      39.371 -13.021   6.678  1.00  0.00     0.125 HD
ENDBRANCH   5  19
BRANCH   4  22
HETATM   22  C   UNL     1      41.510 -15.365   4.211  1.00  0.00     0.279 C 
HETATM   23  N   UNL     1      42.768 -15.818   3.877  1.00  0.00    -0.319 N 
HETATM   24  H   UNL     1      43.465 -15.110   3.651  1.00  0.00     0.169 HD
HETATM   25  O   UNL     1      40.529 -16.061   4.457  1.00  0.00    -0.265 OA
BRANCH  23  26
HETATM   26  C   UNL     1      43.244 -17.145   3.829  1.00  0.00     0.069 A 
HETATM   27  C   UNL     1      43.939 -17.617   4.962  1.00  0.00     0.095 A 
HETATM   28  C   UNL     1      44.403 -18.934   4.991  1.00  0.00     0.039 A 
HETATM   29  C   UNL     1      44.188 -19.780   3.899  1.00  0.00     0.009 A 
HETATM   30  C   UNL     1      43.518 -19.317   2.763  1.00  0.00    -0.060 A 
HETATM   31  C   UNL     1      43.249 -20.234   1.607  1.00  0.00     0.048 C 
HETATM   32  C   UNL     1      43.039 -17.999   2.741  1.00  0.00     0.039 A 
BRANCH  27  33
HETATM   33  O   UNL     1      44.092 -16.707   5.982  1.00  0.00    -0.354 OA
HETATM   34  C   UNL     1      43.463 -17.015   7.221  1.00  0.00     0.210 C 
ENDBRANCH  27  33
ENDBRANCH  23  26
ENDBRANCH   4  22
TORSDOF 8
ENDMDL
MODEL 2
REMARK VINA RESULT:      -8.4      3.952      7.517
REMARK  8 active torsions:
REMARK  status: ('A' for Active; 'I' for Inactive)
REMARK    1  A    between atoms: C_2  and  C_3 
REMARK    2  A    between atoms: C_4  and  N_5 
REMARK       I    between atoms: N_5  and  C_6 
REMARK    3  A    between atoms: C_6  and  C_7 
REMARK    4  A    between atoms: C_7  and  N_8 
REMARK    5  A    between atoms: C_11  and  C_12 
REMARK       I    between atoms: C_12  and  N_13 
REMARK    6  A    between atoms: N_13  and  C_14 
REMARK    7  A    between atoms: C_15  and  O_16 
REMARK    8  A    between atoms: C_24  and  N_25 
ROOT
HETATM    1  N   UNL     1      42.198 -13.495   5.154  1.00  0.00    -0.252 N 
HETATM    2  N   UNL     1      43.224 -12.917   4.501  1.00  0.00     0.007 NA
HETATM    3  N   UNL     1      42.760 -12.465   3.343  1.00  0.00    -0.151 NA
HETATM    4  C   UNL     1      41.413 -12.745   3.277  1.00  0.00     0.181 A 
HETATM    5  C   UNL     1      41.023 -13.360   4.454  1.00  0.00     0.130 A 
ENDROOT
BRANCH   1   6
HETATM    6  C   UNL     1      42.422 -14.233   6.376  1.00  0.00     0.251 C 
BRANCH   6   7
HETATM    7  C   UNL     1      42.576 -15.726   6.150  1.00  0.00     0.241 C 
HETATM    8  N   UNL     1      43.088 -16.090   4.911  1.00  0.00    -0.325 N 
HETATM    9  H   UNL     1      43.317 -15.331   4.274  1.00  0.00     0.169 HD
HETATM   10  O   UNL     1      42.166 -16.503   7.011  1.00  0.00    -0.271 OA
BRANCH   8  11
HETATM   11  C   UNL     1      43.387 -17.392   4.433  1.00  0.00     0.041 A 
HETATM   12  C   UNL     1      43.055 -17.733   3.099  1.00  0.00    -0.032 A 
HETATM   13  C   UNL     1      43.376 -19.018   2.615  1.00  0.00     0.009 A 
HETATM   14  C   UNL     1      44.002 -19.958   3.428  1.00  0.00     0.001 A 
HETATM   15  C   UNL     1      44.318 -19.627   4.737  1.00  0.00     0.002 A 
HETATM   16  C   UNL     1      44.015 -18.355   5.234  1.00  0.00     0.030 A 
BRANCH  12  17
HETATM   17  C   UNL     1      42.404 -16.776   2.122  1.00  0.00     0.036 C 
HETATM   18  C   UNL     1      43.415 -15.827   1.495  1.00  0.00     0.010 C 
ENDBRANCH  12  17
ENDBRANCH   8  11
ENDBRANCH   6   7
ENDBRANCH   1   6
BRANCH   5  19
HETATM   19  N   UNL     1      39.835 -13.867   4.881  1.00  0.00    -0.285 NA
HETATM   20  H   UNL     1      39.515 -13.508   5.792  1.00  0.00     0.125 HD
HETATM   21  H   UNL     1      39.681 -14.876   4.852  1.00  0.00     0.125 HD
ENDBRANCH   5  19
BRANCH   4  22
HETATM   22  C   UNL     1      40.580 -12.459   2.115  1.00  0.00     0.279 C 
HETATM   23  N   UNL     1      41.171 -12.842   0.931  1.00  0.00    -0.319 N 
HETATM   24  H   UNL     1      42.119 -13.212   0.990  1.00  0.00     0.169 HD
HETATM   25  O   UNL     1      39.474 -11.942   2.241  1.00  0.00    -0.265 OA
BRANCH  23  26
HETATM   26  C   UNL     1      40.631 -12.821  -0.373  1.00  0.00     0.069 A 
HETATM   27  C   UNL     1      40.819 -11.643  -1.124  1.00  0.00     0.095 A 
HETATM   28  C   UNL     1      40.340 -11.573  -2.434  1.00  0.00     0.039 A 
HETATM   29  C   UNL     1      39.668 -12.662  -2.997  1.00  0.00     0.009 A 
HETATM   30  C   UNL     1      39.458 -13.827  -2.254  1.00  0.00    -0.060 A 
HETATM   31  C   UNL     1      38.775 -15.013  -2.868  1.00  0.00     0.048 C 
HETATM   32  C   UNL     1      39.954 -13.902  -0.944  1.00  0.00     0.039 A 
BRANCH  27  33
HETATM   33  O   UNL     1      41.496 -10.633  -0.480  1.00  0.00    -0.354 OA
HETATM   34  C   UNL     1      41.974  -9.562  -1.284  1.00  0.00     0.210 C 
ENDBRANCH  27  33
ENDBRANCH  23  26
ENDBRANCH   4  22
TORSDOF 8
ENDMDL
MODEL 3
REMARK VINA RESULT:      -8.4      2.100      8.730
REMARK  8 active torsions:
REMARK  status: ('A' for Active; 'I' for Inactive)
REMARK    1  A    between atoms: C_2  and  C_3 
REMARK    2  A    between atoms: C_4  and  N_5 
REMARK       I    between atoms: N_5  and  C_6 
REMARK    3  A    between atoms: C_6  and  C_7 
REMARK    4  A    between atoms: C_7  and  N_8 
REMARK    5  A    between atoms: C_11  and  C_12 
REMARK       I    between atoms: C_12  and  N_13 
REMARK    6  A    between atoms: N_13  and  C_14 
REMARK    7  A    between atoms: C_15  and  O_16 
REMARK    8  A    between atoms: C_24  and  N_25 
ROOT
HETATM    1  N   UNL     1      43.215 -12.383   4.468  1.00  0.00    -0.252 N 
HETATM    2  N   UNL     1      44.285 -11.693   4.031  1.00  0.00     0.007 NA
HETATM    3  N   UNL     1      44.820 -11.077   5.077  1.00  0.00    -0.151 NA
HETATM    4  C   UNL     1      44.084 -11.403   6.195  1.00  0.00     0.181 A 
HETATM    5  C   UNL     1      43.080 -12.284   5.832  1.00  0.00     0.130 A 
ENDROOT
BRANCH   1   6
HETATM    6  C   UNL     1      42.320 -13.026   3.533  1.00  0.00     0.251 C 
BRANCH   6   7
HETATM    7  C   UNL     1      42.864 -14.336   2.991  1.00  0.00     0.241 C 
HETATM    8  N   UNL     1      42.784 -15.417   3.859  1.00  0.00    -0.325 N 
HETATM    9  H   UNL     1      42.369 -15.238   4.770  1.00  0.00     0.169 HD
HETATM   10  O   UNL     1      43.408 -14.342   1.888  1.00  0.00    -0.271 OA
BRANCH   8  11
HETATM   11  C   UNL     1      43.162 -16.763   3.621  1.00  0.00     0.041 A 
HETATM   12  C   UNL     1      43.982 -17.429   4.565  1.00  0.00    -0.032 A 
HETATM   13  C   UNL     1      44.336 -18.777   4.342  1.00  0.00     0.009 A 
HETATM   14  C   UNL     1      43.903 -19.456   3.207  1.00  0.00     0.001 A 
HETATM   15  C   UNL     1      43.108 -18.800   2.279  1.00  0.00     0.002 A 
HETATM   16  C   UNL     1      42.740 -17.467   2.486  1.00  0.00     0.030 A 
BRANCH  12  17
HETATM   17  C   UNL     1      44.479 -16.794   5.846  1.00  0.00     0.036 C 
HETATM   18  C   UNL     1      43.607 -17.159   7.038  1.00  0.00     0.010 C 
ENDBRANCH  12  17
ENDBRANCH   8  11
ENDBRANCH   6   7
ENDBRANCH   1   6
BRANCH   5  19
HETATM   19  N   UNL     1      42.072 -12.873   6.530  1.00  0.00    -0.285 NA
HETATM   20  H   UNL     1      41.560 -12.243   7.163  1.00  0.00     0.125 HD
HETATM   21  H   UNL     1      42.246 -13.755   7.013  1.00  0.00     0.125 HD
ENDBRANCH   5  19
BRANCH   4  22
HETATM   22  C   UNL     1      44.335 -10.852   7.522  1.00  0.00     0.279 C 
HETATM   23  N   UNL     1      43.345  -9.985   7.932  1.00  0.00    -0.319 N 
HETATM   24  H   UNL     1      42.606  -9.783   7.261  1.00  0.00     0.169 HD
HETATM   25  O   UNL     1      45.332 -11.173   8.162  1.00  0.00    -0.265 OA
BRANCH  23  26
HETATM   26  C   UNL     1      43.193  -9.349   9.182  1.00  0.00     0.069 A 
HETATM   27  C   UNL     1      43.152  -7.939   9.181  1.00  0.00     0.095 A 
HETATM   28  C   UNL     1      42.965  -7.252  10.382  1.00  0.00     0.039 A 
HETATM   29  C   UNL     1      42.830  -7.955  11.583  1.00  0.00     0.009 A 
HETATM   30  C   UNL     1      42.890  -9.351  11.598  1.00  0.00    -0.060 A 
HETATM   31  C   UNL     1      42.702 -10.111  12.877  1.00  0.00     0.048 C 
HETATM   32  C   UNL     1      43.060 -10.041  10.389  1.00  0.00     0.039 A 
BRANCH  27  33
HETATM   33  O   UNL     1      43.290  -7.345   7.948  1.00  0.00    -0.354 OA
HETATM   34  C   UNL     1      42.198  -6.560   7.485  1.00  0.00     0.210 C 
ENDBRANCH  27  33
ENDBRANCH  23  26
ENDBRANCH   4  22
TORSDOF 8
ENDMDL
MODEL 4
REMARK VINA RESULT:      -8.3      1.753      8.097
REMARK  8 active torsions:
REMARK  status: ('A' for Active; 'I' for Inactive)
REMARK    1  A    between atoms: C_2  and  C_3 
REMARK    2  A    between atoms: C_4  and  N_5 
REMARK       I    between atoms: N_5  and  C_6 
REMARK    3  A    between atoms: C_6  and  C_7 
REMARK    4  A    between atoms: C_7  and  N_8 
REMARK    5  A    between atoms: C_11  and  C_12 
REMARK       I    between atoms: C_12  and  N_13 
REMARK    6  A    between atoms: N_13  and  C_14 
REMARK    7  A    between atoms: C_15  and  O_16 
REMARK    8  A    between atoms: C_24  and  N_25 
ROOT
HETATM    1  N   UNL     1      41.388 -12.399   3.882  1.00  0.00    -0.252 N 
HETATM    2  N   UNL     1      40.672 -12.963   4.873  1.00  0.00     0.007 NA
HETATM    3  N   UNL     1      40.849 -12.230   5.965  1.00  0.00    -0.151 NA
HETATM    4  C   UNL     1      41.675 -11.174   5.648  1.00  0.00     0.181 A 
HETATM    5  C   UNL     1      41.990 -11.236   4.302  1.00  0.00     0.130 A 
ENDROOT
BRANCH   1   6
HETATM    6  C   UNL     1      41.535 -13.062   2.607  1.00  0.00     0.251 C 
BRANCH   6   7
HETATM    7  C   UNL     1      42.542 -14.199   2.639  1.00  0.00     0.241 C 
HETATM    8  N   UNL     1      42.147 -15.322   3.354  1.00  0.00    -0.325 N 
HETATM    9  H   UNL     1      41.227 -15.286   3.784  1.00  0.00     0.169 HD
HETATM   10  O   UNL     1      43.647 -14.028   2.126  1.00  0.00    -0.271 OA
BRANCH   8  11
HETATM   11  C   UNL     1      42.845 -16.545   3.520  1.00  0.00     0.041 A 
HETATM   12  C   UNL     1      43.471 -16.823   4.761  1.00  0.00    -0.032 A 
HETATM   13  C   UNL     1      44.142 -18.051   4.936  1.00  0.00     0.009 A 
HETATM   14  C   UNL     1      44.209 -18.987   3.909  1.00  0.00     0.001 A 
HETATM   15  C   UNL     1      43.604 -18.711   2.691  1.00  0.00     0.002 A 
HETATM   16  C   UNL     1      42.927 -17.502   2.501  1.00  0.00     0.030 A 
BRANCH  12  17
HETATM   17  C   UNL     1      43.430 -15.889   5.952  1.00  0.00     0.036 C 
HETATM   18  C   UNL     1      42.273 -16.209   6.887  1.00  0.00     0.010 C 
ENDBRANCH  12  17
ENDBRANCH   8  11
ENDBRANCH   6   7
ENDBRANCH   1   6
BRANCH   5  19
HETATM   19  N   UNL     1      42.785 -10.474   3.503  1.00  0.00    -0.285 NA
HETATM   20  H   UNL     1      42.449 -10.367   2.535  1.00  0.00     0.125 HD
HETATM   21  H   UNL     1      43.791 -10.649   3.485  1.00  0.00     0.125 HD
ENDBRANCH   5  19
BRANCH   4  22
HETATM   22  C   UNL     1      42.150 -10.195   6.619  1.00  0.00     0.279 C 
HETATM   23  N   UNL     1      42.585 -10.776   7.790  1.00  0.00    -0.319 N 
HETATM   24  H   UNL     1      42.471 -11.785   7.871  1.00  0.00     0.169 HD
HETATM   25  O   UNL     1      42.150  -8.995   6.359  1.00  0.00    -0.265 OA
BRANCH  23  26
HETATM   26  C   UNL     1      43.201 -10.165   8.902  1.00  0.00     0.069 A 
HETATM   27  C   UNL     1      44.568 -10.444   9.110  1.00  0.00     0.095 A 
HETATM   28  C   UNL     1      45.244  -9.841  10.172  1.00  0.00     0.039 A 
HETATM   29  C   UNL     1      44.569  -8.970  11.033  1.00  0.00     0.009 A 
HETATM   30  C   UNL     1      43.210  -8.703  10.849  1.00  0.00    -0.060 A 
HETATM   31  C   UNL     1      42.492  -7.736  11.745  1.00  0.00     0.048 C 
HETATM   32  C   UNL     1      42.536  -9.296   9.772  1.00  0.00     0.039 A 
BRANCH  27  33
HETATM   33  O   UNL     1      45.138 -11.309   8.204  1.00  0.00    -0.354 OA
HETATM   34  C   UNL     1      46.170 -10.786   7.376  1.00  0.00     0.210 C 
ENDBRANCH  27  33
ENDBRANCH  23  26
ENDBRANCH   4  22
TORSDOF 8
ENDMDL
MODEL 5
REMARK VINA RESULT:      -7.9      2.256      3.796
REMARK  8 active torsions:
REMARK  status: ('A' for Active; 'I' for Inactive)
REMARK    1  A    between atoms: C_2  and  C_3 
REMARK    2  A    between atoms: C_4  and  N_5 
REMARK       I    between atoms: N_5  and  C_6 
REMARK    3  A    between atoms: C_6  and  C_7 
REMARK    4  A    between atoms: C_7  and  N_8 
REMARK    5  A    between atoms: C_11  and  C_12 
REMARK       I    between atoms: C_12  and  N_13 
REMARK    6  A    between atoms: N_13  and  C_14 
REMARK    7  A    between atoms: C_15  and  O_16 
REMARK    8  A    between atoms: C_24  and  N_25 
ROOT
HETATM    1  N   UNL     1      42.850 -10.590   6.920  1.00  0.00    -0.252 N 
HETATM    2  N   UNL     1      43.895 -10.957   7.685  1.00  0.00     0.007 NA
HETATM    3  N   UNL     1      44.075 -12.262   7.520  1.00  0.00    -0.151 NA
HETATM    4  C   UNL     1      43.138 -12.718   6.619  1.00  0.00     0.181 A 
HETATM    5  C   UNL     1      42.376 -11.648   6.182  1.00  0.00     0.130 A 
ENDROOT
BRANCH   1   6
HETATM    6  C   UNL     1      42.300  -9.258   7.012  1.00  0.00     0.251 C 
BRANCH   6   7
HETATM    7  C   UNL     1      42.198  -8.753   8.441  1.00  0.00     0.241 C 
HETATM    8  N   UNL     1      41.705  -9.669   9.361  1.00  0.00    -0.325 N 
HETATM    9  H   UNL     1      41.464 -10.588   9.000  1.00  0.00     0.169 HD
HETATM   10  O   UNL     1      42.461  -7.574   8.675  1.00  0.00    -0.271 OA
BRANCH   8  11
HETATM   11  C   UNL     1      41.543  -9.506  10.760  1.00  0.00     0.041 A 
HETATM   12  C   UNL     1      42.557  -9.970  11.634  1.00  0.00    -0.032 A 
HETATM   13  C   UNL     1      42.409  -9.784  13.024  1.00  0.00     0.009 A 
HETATM   14  C   UNL     1      41.280  -9.165  13.551  1.00  0.00     0.001 A 
HETATM   15  C   UNL     1      40.283  -8.719  12.696  1.00  0.00     0.002 A 
HETATM   16  C   UNL     1      40.415  -8.887  11.314  1.00  0.00     0.030 A 
BRANCH  12  17
HETATM   17  C   UNL     1      43.838 -10.627  11.163  1.00  0.00     0.036 C 
HETATM   18  C   UNL     1      44.905  -9.602  10.805  1.00  0.00     0.010 C 
ENDBRANCH  12  17
ENDBRANCH   8  11
ENDBRANCH   6   7
ENDBRANCH   1   6
BRANCH   5  19
HETATM   19  N   UNL     1      41.313 -11.556   5.337  1.00  0.00    -0.285 NA
HETATM   20  H   UNL     1      40.660 -10.788   5.548  1.00  0.00     0.125 HD
HETATM   21  H   UNL     1      40.776 -12.395   5.115  1.00  0.00     0.125 HD
ENDBRANCH   5  19
BRANCH   4  22
HETATM   22  C   UNL     1      42.985 -14.119   6.246  1.00  0.00     0.279 C 
HETATM   23  N   UNL     1      42.941 -14.304   4.882  1.00  0.00    -0.319 N 
HETATM   24  H   UNL     1      42.955 -13.464   4.305  1.00  0.00     0.169 HD
HETATM   25  O   UNL     1      42.920 -14.998   7.102  1.00  0.00    -0.265 OA
BRANCH  23  26
HETATM   26  C   UNL     1      42.906 -15.513   4.156  1.00  0.00     0.069 A 
HETATM   27  C   UNL     1      42.066 -15.557   3.024  1.00  0.00     0.095 A 
HETATM   28  C   UNL     1      42.016 -16.713   2.243  1.00  0.00     0.039 A 
HETATM   29  C   UNL     1      42.787 -17.827   2.585  1.00  0.00     0.009 A 
HETATM   30  C   UNL     1      43.607 -17.803   3.716  1.00  0.00    -0.060 A 
HETATM   31  C   UNL     1      44.469 -18.982   4.062  1.00  0.00     0.048 C 
HETATM   32  C   UNL     1      43.670 -16.635   4.490  1.00  0.00     0.039 A 
BRANCH  27  33
HETATM   33  O   UNL     1      41.354 -14.406   2.773  1.00  0.00    -0.354 OA
HETATM   34  C   UNL     1      39.962 -14.552   2.517  1.00  0.00     0.210 C 
ENDBRANCH  27  33
ENDBRANCH  23  26
ENDBRANCH   4  22
TORSDOF 8
ENDMDL
MODEL 6
REMARK VINA RESULT:      -7.7      1.642      7.947
REMARK  8 active torsions:
REMARK  status: ('A' for Active; 'I' for Inactive)
REMARK    1  A    between atoms: C_2  and  C_3 
REMARK    2  A    between atoms: C_4  and  N_5 
REMARK       I    between atoms: N_5  and  C_6 
REMARK    3  A    between atoms: C_6  and  C_7 
REMARK    4  A    between atoms: C_7  and  N_8 
REMARK    5  A    between atoms: C_11  and  C_12 
REMARK       I    between atoms: C_12  and  N_13 
REMARK    6  A    between atoms: N_13  and  C_14 
REMARK    7  A    between atoms: C_15  and  O_16 
REMARK    8  A    between atoms: C_24  and  N_25 
ROOT
HETATM    1  N   UNL     1      41.488 -11.551   3.907  1.00  0.00    -0.252 N 
HETATM    2  N   UNL     1      40.295 -10.936   4.018  1.00  0.00     0.007 NA
HETATM    3  N   UNL     1      40.383 -10.069   5.019  1.00  0.00    -0.151 NA
HETATM    4  C   UNL     1      41.661 -10.125   5.531  1.00  0.00     0.181 A 
HETATM    5  C   UNL     1      42.401 -11.035   4.795  1.00  0.00     0.130 A 
ENDROOT
BRANCH   1   6
HETATM    6  C   UNL     1      41.658 -12.674   3.013  1.00  0.00     0.251 C 
BRANCH   6   7
HETATM    7  C   UNL     1      41.600 -14.015   3.724  1.00  0.00     0.241 C 
HETATM    8  N   UNL     1      42.823 -14.514   4.150  1.00  0.00    -0.325 N 
HETATM    9  H   UNL     1      43.640 -13.942   3.955  1.00  0.00     0.169 HD
HETATM   10  O   UNL     1      40.522 -14.603   3.796  1.00  0.00    -0.271 OA
BRANCH   8  11
HETATM   11  C   UNL     1      43.079 -15.706   4.876  1.00  0.00     0.041 A 
HETATM   12  C   UNL     1      43.302 -16.913   4.169  1.00  0.00    -0.032 A 
HETATM   13  C   UNL     1      43.583 -18.093   4.890  1.00  0.00     0.009 A 
HETATM   14  C   UNL     1      43.634 -18.092   6.280  1.00  0.00     0.001 A 
HETATM   15  C   UNL     1      43.406 -16.912   6.972  1.00  0.00     0.002 A 
HETATM   16  C   UNL     1      43.134 -15.730   6.276  1.00  0.00     0.030 A 
BRANCH  12  17
HETATM   17  C   UNL     1      43.302 -17.017   2.658  1.00  0.00     0.036 C 
HETATM   18  C   UNL     1      43.018 -18.435   2.185  1.00  0.00     0.010 C 
ENDBRANCH  12  17
ENDBRANCH   8  11
ENDBRANCH   6   7
ENDBRANCH   1   6
BRANCH   5  19
HETATM   19  N   UNL     1      43.679 -11.487   4.903  1.00  0.00    -0.285 NA
HETATM   20  H   UNL     1      44.402 -10.810   4.619  1.00  0.00     0.125 HD
HETATM   21  H   UNL     1      43.919 -12.404   4.525  1.00  0.00     0.125 HD
ENDBRANCH   5  19
BRANCH   4  22
HETATM   22  C   UNL     1      42.105  -9.361   6.691  1.00  0.00     0.279 C 
HETATM   23  N   UNL     1      42.483 -10.166   7.743  1.00  0.00    -0.319 N 
HETATM   24  H   UNL     1      42.355 -11.169   7.623  1.00  0.00     0.169 HD
HETATM   25  O   UNL     1      42.130  -8.134   6.668  1.00  0.00    -0.265 OA
BRANCH  23  26
HETATM   26  C   UNL     1      43.060  -9.793   8.976  1.00  0.00     0.069 A 
HETATM   27  C   UNL     1      44.331 -10.325   9.275  1.00  0.00     0.095 A 
HETATM   28  C   UNL     1      44.970  -9.964  10.463  1.00  0.00     0.039 A 
HETATM   29  C   UNL     1      44.350  -9.087  11.358  1.00  0.00     0.009 A 
HETATM   30  C   UNL     1      43.081  -8.570  11.081  1.00  0.00    -0.060 A 
HETATM   31  C   UNL     1      42.432  -7.595  12.018  1.00  0.00     0.048 C 
HETATM   32  C   UNL     1      42.448  -8.920   9.880  1.00  0.00     0.039 A 
BRANCH  27  33
HETATM   33  O   UNL     1      44.854 -11.173   8.327  1.00  0.00    -0.354 OA
HETATM   34  C   UNL     1      46.014 -10.729   7.633  1.00  0.00     0.210 C 
ENDBRANCH  27  33
ENDBRANCH  23  26
ENDBRANCH   4  22
TORSDOF 8
ENDMDL
MODEL 7
REMARK VINA RESULT:      -7.6      1.852      8.291
REMARK  8 active torsions:
REMARK  status: ('A' for Active; 'I' for Inactive)
REMARK    1  A    between atoms: C_2  and  C_3 
REMARK    2  A    between atoms: C_4  and  N_5 
REMARK       I    between atoms: N_5  and  C_6 
REMARK    3  A    between atoms: C_6  and  C_7 
REMARK    4  A    between atoms: C_7  and  N_8 
REMARK    5  A    between atoms: C_11  and  C_12 
REMARK       I    between atoms: C_12  and  N_13 
REMARK    6  A    between atoms: N_13  and  C_14 
REMARK    7  A    between atoms: C_15  and  O_16 
REMARK    8  A    between atoms: C_24  and  N_25 
ROOT
HETATM    1  N   UNL     1      41.447 -12.951   3.037  1.00  0.00    -0.252 N 
HETATM    2  N   UNL     1      40.715 -13.465   4.043  1.00  0.00     0.007 NA
HETATM    3  N   UNL     1      40.779 -12.615   5.061  1.00  0.00    -0.151 NA
HETATM    4  C   UNL     1      41.549 -11.539   4.679  1.00  0.00     0.181 A 
HETATM    5  C   UNL     1      41.944 -11.712   3.364  1.00  0.00     0.130 A 
ENDROOT
BRANCH   1   6
HETATM    6  C   UNL     1      41.711 -13.725   1.846  1.00  0.00     0.251 C 
BRANCH   6   7
HETATM    7  C   UNL     1      42.693 -14.860   2.079  1.00  0.00     0.241 C 
HETATM    8  N   UNL     1      42.194 -15.938   2.799  1.00  0.00    -0.325 N 
HETATM    9  H   UNL     1      41.225 -15.874   3.098  1.00  0.00     0.169 HD
HETATM   10  O   UNL     1      43.858 -14.724   1.710  1.00  0.00    -0.271 OA
BRANCH   8  11
HETATM   11  C   UNL     1      42.850 -17.152   3.128  1.00  0.00     0.041 A 
HETATM   12  C   UNL     1      43.441 -17.294   4.408  1.00  0.00    -0.032 A 
HETATM   13  C   UNL     1      44.070 -18.511   4.746  1.00  0.00     0.009 A 
HETATM   14  C   UNL     1      44.130 -19.566   3.841  1.00  0.00     0.001 A 
HETATM   15  C   UNL     1      43.560 -19.422   2.584  1.00  0.00     0.002 A 
HETATM   16  C   UNL     1      42.924 -18.227   2.233  1.00  0.00     0.030 A 
BRANCH  12  17
HETATM   17  C   UNL     1      43.404 -16.222   5.477  1.00  0.00     0.036 C 
HETATM   18  C   UNL     1      44.602 -16.307   6.410  1.00  0.00     0.010 C 
ENDBRANCH  12  17
ENDBRANCH   8  11
ENDBRANCH   6   7
ENDBRANCH   1   6
BRANCH   5  19
HETATM   19  N   UNL     1      42.730 -10.977   2.532  1.00  0.00    -0.285 NA
HETATM   20  H   UNL     1      43.115 -10.117   2.949  1.00  0.00     0.125 HD
HETATM   21  H   UNL     1      42.403 -10.767   1.588  1.00  0.00     0.125 HD
ENDBRANCH   5  19
BRANCH   4  22
HETATM   22  C   UNL     1      41.900 -10.436   5.567  1.00  0.00     0.279 C 
HETATM   23  N   UNL     1      42.040 -10.834   6.878  1.00  0.00    -0.319 N 
HETATM   24  H   UNL     1      41.828 -11.808   7.087  1.00  0.00     0.169 HD
HETATM   25  O   UNL     1      42.053  -9.298   5.132  1.00  0.00    -0.265 OA
BRANCH  23  26
HETATM   26  C   UNL     1      42.470 -10.077   7.989  1.00  0.00     0.069 A 
HETATM   27  C   UNL     1      41.508  -9.260   8.618  1.00  0.00     0.095 A 
HETATM   28  C   UNL     1      41.863  -8.516   9.744  1.00  0.00     0.039 A 
HETATM   29  C   UNL     1      43.167  -8.570  10.243  1.00  0.00     0.009 A 
HETATM   30  C   UNL     1      44.134  -9.361   9.615  1.00  0.00    -0.060 A 
HETATM   31  C   UNL     1      45.524  -9.455  10.172  1.00  0.00     0.048 C 
HETATM   32  C   UNL     1      43.773 -10.121   8.493  1.00  0.00     0.039 A 
BRANCH  27  33
HETATM   33  O   UNL     1      40.254  -9.282   8.052  1.00  0.00    -0.354 OA
HETATM   34  C   UNL     1      39.653  -8.025   7.766  1.00  0.00     0.210 C 
ENDBRANCH  27  33
ENDBRANCH  23  26
ENDBRANCH   4  22
TORSDOF 8
ENDMDL
MODEL 8
REMARK VINA RESULT:      -7.6      4.126      6.853
REMARK  8 active torsions:
REMARK  status: ('A' for Active; 'I' for Inactive)
REMARK    1  A    between atoms: C_2  and  C_3 
REMARK    2  A    between atoms: C_4  and  N_5 
REMARK       I    between atoms: N_5  and  C_6 
REMARK    3  A    between atoms: C_6  and  C_7 
REMARK    4  A    between atoms: C_7  and  N_8 
REMARK    5  A    between atoms: C_11  and  C_12 
REMARK       I    between atoms: C_12  and  N_13 
REMARK    6  A    between atoms: N_13  and  C_14 
REMARK    7  A    between atoms: C_15  and  O_16 
REMARK    8  A    between atoms: C_24  and  N_25 
ROOT
HETATM    1  N   UNL     1      39.949 -11.315   2.798  1.00  0.00    -0.252 N 
HETATM    2  N   UNL     1      39.233 -12.102   3.623  1.00  0.00     0.007 NA
HETATM    3  N   UNL     1      40.030 -13.077   4.040  1.00  0.00    -0.151 NA
HETATM    4  C   UNL     1      41.275 -12.888   3.482  1.00  0.00     0.181 A 
HETATM    5  C   UNL     1      41.257 -11.731   2.723  1.00  0.00     0.130 A 
ENDROOT
BRANCH   1   6
HETATM    6  C   UNL     1      39.311 -10.258   2.048  1.00  0.00     0.251 C 
BRANCH   6   7
HETATM    7  C   UNL     1      38.958 -10.665   0.628  1.00  0.00     0.241 C 
HETATM    8  N   UNL     1      38.941 -12.033   0.389  1.00  0.00    -0.325 N 
HETATM    9  H   UNL     1      39.159 -12.635   1.179  1.00  0.00     0.169 HD
HETATM   10  O   UNL     1      38.804  -9.789  -0.222  1.00  0.00    -0.271 OA
BRANCH   8  11
HETATM   11  C   UNL     1      38.603 -12.710  -0.811  1.00  0.00     0.041 A 
HETATM   12  C   UNL     1      39.344 -13.856  -1.191  1.00  0.00    -0.032 A 
HETATM   13  C   UNL     1      38.992 -14.546  -2.370  1.00  0.00     0.009 A 
HETATM   14  C   UNL     1      37.939 -14.113  -3.170  1.00  0.00     0.001 A 
HETATM   15  C   UNL     1      37.220 -12.985  -2.802  1.00  0.00     0.002 A 
HETATM   16  C   UNL     1      37.549 -12.292  -1.633  1.00  0.00     0.030 A 
BRANCH  12  17
HETATM   17  C   UNL     1      40.485 -14.430  -0.377  1.00  0.00     0.036 C 
HETATM   18  C   UNL     1      39.990 -15.365   0.717  1.00  0.00     0.010 C 
ENDBRANCH  12  17
ENDBRANCH   8  11
ENDBRANCH   6   7
ENDBRANCH   1   6
BRANCH   5  19
HETATM   19  N   UNL     1      42.193 -11.121   1.947  1.00  0.00    -0.285 NA
HETATM   20  H   UNL     1      42.426 -11.622   1.078  1.00  0.00     0.125 HD
HETATM   21  H   UNL     1      43.057 -10.785   2.375  1.00  0.00     0.125 HD
ENDBRANCH   5  19
BRANCH   4  22
HETATM   22  C   UNL     1      42.393 -13.808   3.659  1.00  0.00     0.279 C 
HETATM   23  N   UNL     1      41.983 -15.090   3.956  1.00  0.00    -0.319 N 
HETATM   24  H   UNL     1      40.982 -15.234   4.079  1.00  0.00     0.169 HD
HETATM   25  O   UNL     1      43.552 -13.427   3.531  1.00  0.00    -0.265 OA
BRANCH  23  26
HETATM   26  C   UNL     1      42.765 -16.257   4.090  1.00  0.00     0.069 A 
HETATM   27  C   UNL     1      43.492 -16.406   5.288  1.00  0.00     0.095 A 
HETATM   28  C   UNL     1      44.255 -17.557   5.496  1.00  0.00     0.039 A 
HETATM   29  C   UNL     1      44.307 -18.554   4.518  1.00  0.00     0.009 A 
HETATM   30  C   UNL     1      43.606 -18.407   3.318  1.00  0.00    -0.060 A 
HETATM   31  C   UNL     1      43.624 -19.494   2.284  1.00  0.00     0.048 C 
HETATM   32  C   UNL     1      42.827 -17.258   3.117  1.00  0.00     0.039 A 
BRANCH  27  33
HETATM   33  O   UNL     1      43.369 -15.371   6.187  1.00  0.00    -0.354 OA
HETATM   34  C   UNL     1      42.638 -15.634   7.378  1.00  0.00     0.210 C 
ENDBRANCH  27  33
ENDBRANCH  23  26
ENDBRANCH   4  22
TORSDOF 8
ENDMDL
MODEL 9
REMARK VINA RESULT:      -7.6      2.528      4.285
REMARK  8 active torsions:
REMARK  status: ('A' for Active; 'I' for Inactive)
REMARK    1  A    between atoms: C_2  and  C_3 
REMARK    2  A    between atoms: C_4  and  N_5 
REMARK       I    between atoms: N_5  and  C_6 
REMARK    3  A    between atoms: C_6  and  C_7 
REMARK    4  A    between atoms: C_7  and  N_8 
REMARK    5  A    between atoms: C_11  and  C_12 
REMARK       I    between atoms: C_12  and  N_13 
REMARK    6  A    between atoms: N_13  and  C_14 
REMARK    7  A    between atoms: C_15  and  O_16 
REMARK    8  A    between atoms: C_24  and  N_25 
ROOT
HETATM    1  N   UNL     1      43.502 -10.487   7.091  1.00  0.00    -0.252 N 
HETATM    2  N   UNL     1      42.242 -10.042   6.930  1.00  0.00     0.007 NA
HETATM    3  N   UNL     1      41.560 -10.988   6.298  1.00  0.00    -0.151 NA
HETATM    4  C   UNL     1      42.402 -12.056   6.076  1.00  0.00     0.181 A 
HETATM    5  C   UNL     1      43.641 -11.772   6.626  1.00  0.00     0.130 A 
ENDROOT
BRANCH   1   6
HETATM    6  C   UNL     1      44.534  -9.612   7.598  1.00  0.00     0.251 C 
BRANCH   6   7
HETATM    7  C   UNL     1      44.050  -8.702   8.713  1.00  0.00     0.241 C 
HETATM    8  N   UNL     1      43.330  -9.330   9.721  1.00  0.00    -0.325 N 
HETATM    9  H   UNL     1      43.198 -10.333   9.626  1.00  0.00     0.169 HD
HETATM   10  O   UNL     1      44.236  -7.490   8.615  1.00  0.00    -0.271 OA
BRANCH   8  11
HETATM   11  C   UNL     1      42.797  -8.758  10.904  1.00  0.00     0.041 A 
HETATM   12  C   UNL     1      41.416  -8.444  10.960  1.00  0.00    -0.032 A 
HETATM   13  C   UNL     1      40.879  -7.901  12.146  1.00  0.00     0.009 A 
HETATM   14  C   UNL     1      41.684  -7.658  13.255  1.00  0.00     0.001 A 
HETATM   15  C   UNL     1      43.037  -7.956  13.196  1.00  0.00     0.002 A 
HETATM   16  C   UNL     1      43.587  -8.503  12.032  1.00  0.00     0.030 A 
BRANCH  12  17
HETATM   17  C   UNL     1      40.448  -8.699   9.824  1.00  0.00     0.036 C 
HETATM   18  C   UNL     1      39.378  -9.712  10.205  1.00  0.00     0.010 C 
ENDBRANCH  12  17
ENDBRANCH   8  11
ENDBRANCH   6   7
ENDBRANCH   1   6
BRANCH   5  19
HETATM   19  N   UNL     1      44.817 -12.456   6.653  1.00  0.00    -0.285 NA
HETATM   20  H   UNL     1      44.985 -13.057   5.834  1.00  0.00     0.125 HD
HETATM   21  H   UNL     1      45.079 -12.968   7.496  1.00  0.00     0.125 HD
ENDBRANCH   5  19
BRANCH   4  22
HETATM   22  C   UNL     1      42.018 -13.254   5.340  1.00  0.00     0.279 C 
HETATM   23  N   UNL     1      43.015 -13.704   4.502  1.00  0.00    -0.319 N 
HETATM   24  H   UNL     1      43.857 -13.134   4.443  1.00  0.00     0.169 HD
HETATM   25  O   UNL     1      40.915 -13.769   5.501  1.00  0.00    -0.265 OA
BRANCH  23  26
HETATM   26  C   UNL     1      43.047 -14.879   3.721  1.00  0.00     0.069 A 
HETATM   27  C   UNL     1      42.767 -14.740   2.346  1.00  0.00     0.095 A 
HETATM   28  C   UNL     1      42.819 -15.860   1.512  1.00  0.00     0.039 A 
HETATM   29  C   UNL     1      43.138 -17.115   2.038  1.00  0.00     0.009 A 
HETATM   30  C   UNL     1      43.397 -17.267   3.403  1.00  0.00    -0.060 A 
HETATM   31  C   UNL     1      43.782 -18.604   3.964  1.00  0.00     0.048 C 
HETATM   32  C   UNL     1      43.361 -16.139   4.236  1.00  0.00     0.039 A 
BRANCH  27  33
HETATM   33  O   UNL     1      42.469 -13.463   1.929  1.00  0.00    -0.354 OA
HETATM   34  C   UNL     1      41.195 -13.260   1.330  1.00  0.00     0.210 C 
ENDBRANCH  27  33
ENDBRANCH  23  26
ENDBRANCH   4  22
TORSDOF 8
ENDMDL
MODEL 10
REMARK VINA RESULT:      -7.5      2.312      3.780
REMARK  8 active torsions:
REMARK  status: ('A' for Active; 'I' for Inactive)
REMARK    1  A    between atoms: C_2  and  C_3 
REMARK    2  A    between atoms: C_4  and  N_5 
REMARK       I    between atoms: N_5  and  C_6 
REMARK    3  A    between atoms: C_6  and  C_7 
REMARK    4  A    between atoms: C_7  and  N_8 
REMARK    5  A    between atoms: C_11  and  C_12 
REMARK       I    between atoms: C_12  and  N_13 
REMARK    6  A    between atoms: N_13  and  C_14 
REMARK    7  A    between atoms: C_15  and  O_16 
REMARK    8  A    between atoms: C_24  and  N_25 
ROOT
HETATM    1  N   UNL     1      40.679 -10.839   6.486  1.00  0.00    -0.252 N 
HETATM    2  N   UNL     1      42.024 -10.825   6.444  1.00  0.00     0.007 NA
HETATM    3  N   UNL     1      42.426 -12.021   6.033  1.00  0.00    -0.151 NA
HETATM    4  C   UNL     1      41.311 -12.794   5.792  1.00  0.00     0.181 A 
HETATM    5  C   UNL     1      40.178 -12.034   6.027  1.00  0.00     0.130 A 
ENDROOT
BRANCH   1   6
HETATM    6  C   UNL     1      39.946  -9.733   7.058  1.00  0.00     0.251 C 
BRANCH   6   7
HETATM    7  C   UNL     1      40.748  -8.957   8.089  1.00  0.00     0.241 C 
HETATM    8  N   UNL     1      41.067  -9.659   9.244  1.00  0.00    -0.325 N 
HETATM    9  H   UNL     1      40.743 -10.622   9.294  1.00  0.00     0.169 HD
HETATM   10  O   UNL     1      40.981  -7.766   7.888  1.00  0.00    -0.271 OA
BRANCH   8  11
HETATM   11  C   UNL     1      41.839  -9.222  10.351  1.00  0.00     0.041 A 
HETATM   12  C   UNL     1      41.179  -8.734  11.505  1.00  0.00    -0.032 A 
HETATM   13  C   UNL     1      41.944  -8.325  12.617  1.00  0.00     0.009 A 
HETATM   14  C   UNL     1      43.334  -8.382  12.594  1.00  0.00     0.001 A 
HETATM   15  C   UNL     1      43.981  -8.851  11.459  1.00  0.00     0.002 A 
HETATM   16  C   UNL     1      43.239  -9.269  10.350  1.00  0.00     0.030 A 
BRANCH  12  17
HETATM   17  C   UNL     1      39.673  -8.661  11.647  1.00  0.00     0.036 C 
HETATM   18  C   UNL     1      39.254  -7.849  12.864  1.00  0.00     0.010 C 
ENDBRANCH  12  17
ENDBRANCH   8  11
ENDBRANCH   6   7
ENDBRANCH   1   6
BRANCH   5  19
HETATM   19  N   UNL     1      38.848 -12.319   5.977  1.00  0.00    -0.285 NA
HETATM   20  H   UNL     1      38.229 -11.497   6.008  1.00  0.00     0.125 HD
HETATM   21  H   UNL     1      38.468 -13.041   6.591  1.00  0.00     0.125 HD
ENDBRANCH   5  19
BRANCH   4  22
HETATM   22  C   UNL     1      41.365 -14.195   5.393  1.00  0.00     0.279 C 
HETATM   23  N   UNL     1      42.376 -14.453   4.494  1.00  0.00    -0.319 N 
HETATM   24  H   UNL     1      42.916 -13.653   4.169  1.00  0.00     0.169 HD
HETATM   25  O   UNL     1      40.574 -15.014   5.854  1.00  0.00    -0.265 OA
BRANCH  23  26
HETATM   26  C   UNL     1      42.797 -15.695   3.972  1.00  0.00     0.069 A 
HETATM   27  C   UNL     1      42.826 -15.821   2.568  1.00  0.00     0.095 A 
HETATM   28  C   UNL     1      43.268 -17.013   1.989  1.00  0.00     0.039 A 
HETATM   29  C   UNL     1      43.671 -18.080   2.796  1.00  0.00     0.009 A 
HETATM   30  C   UNL     1      43.627 -17.973   4.189  1.00  0.00    -0.060 A 
HETATM   31  C   UNL     1      44.100 -19.101   5.058  1.00  0.00     0.048 C 
HETATM   32  C   UNL     1      43.199 -16.770   4.769  1.00  0.00     0.039 A 
BRANCH  27  33
HETATM   33  O   UNL     1      42.413 -14.711   1.866  1.00  0.00    -0.354 OA
HETATM   34  C   UNL     1      41.278 -14.867   1.023  1.00  0.00     0.210 C 
ENDBRANCH  27  33
ENDBRANCH  23  26
ENDBRANCH   4  22
TORSDOF 8
ENDMDL
