MODEL 1
REMARK VINA RESULT:      -9.2      0.000      0.000
REMARK  8 active torsions:
REMARK  status: ('A' for Active; 'I' for Inactive)
REMARK    1  A    between atoms: N_3  and  C_4 
REMARK    2  A    between atoms: C_7  and  O_8 
REMARK    3  A    between atoms: C_13  and  C_14 
REMARK    4  A    between atoms: N_15  and  N_16 
REMARK       I    between atoms: N_16  and  C_17 
REMARK    5  A    between atoms: C_17  and  C_18 
REMARK    6  A    between atoms: C_18  and  O_19 
REMARK    7  A    between atoms: C_18  and  C_20 
REMARK    8  A    between atoms: C_18  and  C_26 
ROOT
HETATM    1  N   UNL     1      42.273 -11.373   6.923  1.00  0.00    -0.244 N 
HETATM    2  C   UNL     1      41.950 -10.029   6.753  1.00  0.00     0.282 C 
HETATM    3  O   UNL     1      41.895  -9.449   5.663  1.00  0.00    -0.268 OA
HETATM    4  H   UNL     1      42.494 -11.704   7.858  1.00  0.00     0.192 HD
ENDROOT
BRANCH   1   5
HETATM    5  N   UNL     1      42.590 -12.279   5.945  1.00  0.00    -0.184 NA
HETATM    6  C   UNL     1      41.987 -13.423   5.914  1.00  0.00     0.152 C 
BRANCH   6   7
HETATM    7  C   UNL     1      42.366 -14.372   4.880  1.00  0.00     0.008 A 
HETATM    8  C   UNL     1      42.437 -15.753   5.025  1.00  0.00     0.025 A 
HETATM    9  N   UNL     1      42.922 -16.300   3.835  1.00  0.00    -0.319 N 
HETATM   10  C   UNL     1      42.004 -16.574   6.199  1.00  0.00     0.070 C 
HETATM   11  C   UNL     1      43.070 -15.268   2.914  1.00  0.00     0.014 A 
HETATM   12  C   UNL     1      43.624 -15.417   1.537  1.00  0.00     0.068 C 
HETATM   13  C   UNL     1      42.730 -14.086   3.542  1.00  0.00     0.040 A 
BRANCH   9  14
HETATM   14  C   UNL     1      43.253 -17.671   3.616  1.00  0.00     0.039 A 
HETATM   15  C   UNL     1      42.825 -18.314   2.445  1.00  0.00     0.033 A 
HETATM   16  C   UNL     1      43.126 -19.663   2.234  1.00  0.00     0.039 A 
HETATM   17  C   UNL     1      43.857 -20.360   3.191  1.00  0.00     0.065 A 
HETATM   18  C   UNL     1      44.290 -19.731   4.353  1.00  0.00     0.039 A 
HETATM   19  C   UNL     1      43.989 -18.385   4.569  1.00  0.00     0.033 A 
BRANCH  17  20
HETATM   20  O   UNL     1      44.171 -21.676   3.027  1.00  0.00    -0.361 OA
HETATM   21  H   UNL     1      43.806 -21.979   2.178  1.00  0.00     0.217 HD
ENDBRANCH  17  20
ENDBRANCH   9  14
ENDBRANCH   6   7
ENDBRANCH   1   5
BRANCH   2  22
HETATM   22  C   UNL     1      41.700  -9.234   8.086  1.00  0.00     0.195 C 
BRANCH  22  23
HETATM   23  O   UNL     1      40.633  -9.923   8.777  1.00  0.00    -0.371 OA
HETATM   24  H   UNL     1      40.019  -9.216   9.062  1.00  0.00     0.212 HD
ENDBRANCH  22  23
BRANCH  22  25
HETATM   25  C   UNL     1      42.951  -9.296   8.983  1.00  0.00    -0.010 A 
HETATM   26  C   UNL     1      44.249  -9.097   8.471  1.00  0.00     0.011 A 
HETATM   27  C   UNL     1      45.372  -9.216   9.293  1.00  0.00     0.001 A 
HETATM   28  C   UNL     1      45.222  -9.535  10.639  1.00  0.00     0.000 A 
HETATM   29  C   UNL     1      43.950  -9.736  11.167  1.00  0.00     0.001 A 
HETATM   30  C   UNL     1      42.826  -9.624  10.346  1.00  0.00     0.011 A 
ENDBRANCH  22  25
BRANCH  22  31
HETATM   31  C   UNL     1      41.149  -7.816   7.865  1.00  0.00    -0.010 A 
HETATM   32  C   UNL     1      41.971  -6.689   7.686  1.00  0.00     0.011 A 
HETATM   33  C   UNL     1      41.417  -5.420   7.496  1.00  0.00     0.001 A 
HETATM   34  C   UNL     1      40.035  -5.250   7.476  1.00  0.00     0.000 A 
HETATM   35  C   UNL     1      39.201  -6.352   7.634  1.00  0.00     0.001 A 
HETATM   36  C   UNL     1      39.752  -7.621   7.820  1.00  0.00     0.011 A 
ENDBRANCH  22  31
ENDBRANCH   2  22
TORSDOF 8
ENDMDL
MODEL 2
REMARK VINA RESULT:      -9.2      2.641     10.500
REMARK  8 active torsions:
REMARK  status: ('A' for Active; 'I' for Inactive)
REMARK    1  A    between atoms: N_3  and  C_4 
REMARK    2  A    between atoms: C_7  and  O_8 
REMARK    3  A    between atoms: C_13  and  C_14 
REMARK    4  A    between atoms: N_15  and  N_16 
REMARK       I    between atoms: N_16  and  C_17 
REMARK    5  A    between atoms: C_17  and  C_18 
REMARK    6  A    between atoms: C_18  and  O_19 
REMARK    7  A    between atoms: C_18  and  C_20 
REMARK    8  A    between atoms: C_18  and  C_26 
ROOT
HETATM    1  N   UNL     1      42.634 -14.114   5.175  1.00  0.00    -0.244 N 
HETATM    2  C   UNL     1      41.320 -14.487   4.905  1.00  0.00     0.282 C 
HETATM    3  O   UNL     1      40.324 -14.019   5.468  1.00  0.00    -0.268 OA
HETATM    4  H   UNL     1      43.387 -14.695   4.815  1.00  0.00     0.192 HD
ENDROOT
BRANCH   1   5
HETATM    5  N   UNL     1      43.061 -13.192   6.095  1.00  0.00    -0.184 NA
HETATM    6  C   UNL     1      43.175 -11.950   5.749  1.00  0.00     0.152 C 
BRANCH   6   7
HETATM    7  C   UNL     1      43.657 -11.003   6.741  1.00  0.00     0.008 A 
HETATM    8  C   UNL     1      42.869 -10.140   7.496  1.00  0.00     0.025 A 
HETATM    9  N   UNL     1      43.709  -9.332   8.266  1.00  0.00    -0.319 N 
HETATM   10  C   UNL     1      41.376 -10.095   7.574  1.00  0.00     0.070 C 
HETATM   11  C   UNL     1      45.020  -9.751   8.059  1.00  0.00     0.014 A 
HETATM   12  C   UNL     1      46.231  -9.109   8.647  1.00  0.00     0.068 C 
HETATM   13  C   UNL     1      44.998 -10.773   7.131  1.00  0.00     0.040 A 
BRANCH   9  14
HETATM   14  C   UNL     1      43.300  -8.238   9.086  1.00  0.00     0.039 A 
HETATM   15  C   UNL     1      43.125  -8.425  10.465  1.00  0.00     0.033 A 
HETATM   16  C   UNL     1      42.703  -7.364  11.270  1.00  0.00     0.039 A 
HETATM   17  C   UNL     1      42.462  -6.121  10.695  1.00  0.00     0.065 A 
HETATM   18  C   UNL     1      42.636  -5.922   9.330  1.00  0.00     0.039 A 
HETATM   19  C   UNL     1      43.055  -6.981   8.520  1.00  0.00     0.033 A 
BRANCH  17  20
HETATM   20  O   UNL     1      42.047  -5.059  11.442  1.00  0.00    -0.361 OA
HETATM   21  H   UNL     1      41.199  -5.286  11.860  1.00  0.00     0.217 HD
ENDBRANCH  17  20
ENDBRANCH   9  14
ENDBRANCH   6   7
ENDBRANCH   1   5
BRANCH   2  22
HETATM   22  C   UNL     1      41.162 -15.627   3.834  1.00  0.00     0.195 C 
BRANCH  22  23
HETATM   23  O   UNL     1      39.953 -16.344   4.177  1.00  0.00    -0.371 OA
HETATM   24  H   UNL     1      39.224 -15.739   3.936  1.00  0.00     0.212 HD
ENDBRANCH  22  23
BRANCH  22  25
HETATM   25  C   UNL     1      40.959 -15.016   2.434  1.00  0.00    -0.010 A 
HETATM   26  C   UNL     1      41.567 -13.804   2.053  1.00  0.00     0.011 A 
HETATM   27  C   UNL     1      41.321 -13.239   0.798  1.00  0.00     0.001 A 
HETATM   28  C   UNL     1      40.465 -13.874  -0.097  1.00  0.00     0.000 A 
HETATM   29  C   UNL     1      39.853 -15.072   0.258  1.00  0.00     0.001 A 
HETATM   30  C   UNL     1      40.092 -15.635   1.514  1.00  0.00     0.011 A 
ENDBRANCH  22  25
BRANCH  22  31
HETATM   31  C   UNL     1      42.264 -16.696   3.904  1.00  0.00    -0.010 A 
HETATM   32  C   UNL     1      42.814 -17.158   5.113  1.00  0.00     0.011 A 
HETATM   33  C   UNL     1      43.820 -18.129   5.119  1.00  0.00     0.001 A 
HETATM   34  C   UNL     1      44.293 -18.661   3.922  1.00  0.00     0.000 A 
HETATM   35  C   UNL     1      43.753 -18.233   2.714  1.00  0.00     0.001 A 
HETATM   36  C   UNL     1      42.746 -17.266   2.706  1.00  0.00     0.011 A 
ENDBRANCH  22  31
ENDBRANCH   2  22
TORSDOF 8
ENDMDL
MODEL 3
REMARK VINA RESULT:      -9.0      2.681     10.342
REMARK  8 active torsions:
REMARK  status: ('A' for Active; 'I' for Inactive)
REMARK    1  A    between atoms: N_3  and  C_4 
REMARK    2  A    between atoms: C_7  and  O_8 
REMARK    3  A    between atoms: C_13  and  C_14 
REMARK    4  A    between atoms: N_15  and  N_16 
REMARK       I    between atoms: N_16  and  C_17 
REMARK    5  A    between atoms: C_17  and  C_18 
REMARK    6  A    between atoms: C_18  and  O_19 
REMARK    7  A    between atoms: C_18  and  C_20 
REMARK    8  A    between atoms: C_18  and  C_26 
ROOT
HETATM    1  N   UNL     1      43.373 -13.392   4.720  1.00  0.00    -0.244 N 
HETATM    2  C   UNL     1      42.338 -14.169   4.205  1.00  0.00     0.282 C 
HETATM    3  O   UNL     1      41.227 -14.302   4.731  1.00  0.00    -0.268 OA
HETATM    4  H   UNL     1      44.305 -13.508   4.332  1.00  0.00     0.192 HD
ENDROOT
BRANCH   1   5
HETATM    5  N   UNL     1      43.361 -12.657   5.876  1.00  0.00    -0.184 NA
HETATM    6  C   UNL     1      44.018 -11.544   5.933  1.00  0.00     0.152 C 
BRANCH   6   7
HETATM    7  C   UNL     1      44.007 -10.802   7.183  1.00  0.00     0.008 A 
HETATM    8  C   UNL     1      43.104  -9.804   7.531  1.00  0.00     0.025 A 
HETATM    9  N   UNL     1      43.480  -9.278   8.770  1.00  0.00    -0.319 N 
HETATM   10  C   UNL     1      41.877  -9.379   6.789  1.00  0.00     0.070 C 
HETATM   11  C   UNL     1      44.567 -10.010   9.237  1.00  0.00     0.014 A 
HETATM   12  C   UNL     1      45.312  -9.731  10.499  1.00  0.00     0.068 C 
HETATM   13  C   UNL     1      44.894 -10.945   8.276  1.00  0.00     0.040 A 
BRANCH   9  14
HETATM   14  C   UNL     1      42.884  -8.156   9.421  1.00  0.00     0.039 A 
HETATM   15  C   UNL     1      41.815  -8.351  10.308  1.00  0.00     0.033 A 
HETATM   16  C   UNL     1      41.212  -7.255  10.933  1.00  0.00     0.039 A 
HETATM   17  C   UNL     1      41.682  -5.973  10.670  1.00  0.00     0.065 A 
HETATM   18  C   UNL     1      42.744  -5.768   9.796  1.00  0.00     0.039 A 
HETATM   19  C   UNL     1      43.347  -6.860   9.167  1.00  0.00     0.033 A 
BRANCH  17  20
HETATM   20  O   UNL     1      41.122  -4.876  11.255  1.00  0.00    -0.361 OA
HETATM   21  H   UNL     1      41.508  -4.080  10.853  1.00  0.00     0.217 HD
ENDBRANCH  17  20
ENDBRANCH   9  14
ENDBRANCH   6   7
ENDBRANCH   1   5
BRANCH   2  22
HETATM   22  C   UNL     1      42.688 -14.949   2.886  1.00  0.00     0.195 C 
BRANCH  22  23
HETATM   23  O   UNL     1      43.824 -14.271   2.300  1.00  0.00    -0.371 OA
HETATM   24  H   UNL     1      43.662 -14.294   1.336  1.00  0.00     0.212 HD
ENDBRANCH  22  23
BRANCH  22  25
HETATM   25  C   UNL     1      43.126 -16.387   3.221  1.00  0.00    -0.010 A 
HETATM   26  C   UNL     1      43.532 -16.762   4.517  1.00  0.00     0.011 A 
HETATM   27  C   UNL     1      43.982 -18.058   4.783  1.00  0.00     0.001 A 
HETATM   28  C   UNL     1      44.035 -19.003   3.762  1.00  0.00     0.000 A 
HETATM   29  C   UNL     1      43.640 -18.655   2.473  1.00  0.00     0.001 A 
HETATM   30  C   UNL     1      43.196 -17.358   2.204  1.00  0.00     0.011 A 
ENDBRANCH  22  25
BRANCH  22  31
HETATM   31  C   UNL     1      41.599 -14.855   1.805  1.00  0.00    -0.010 A 
HETATM   32  C   UNL     1      40.603 -15.831   1.628  1.00  0.00     0.011 A 
HETATM   33  C   UNL     1      39.639 -15.699   0.623  1.00  0.00     0.001 A 
HETATM   34  C   UNL     1      39.648 -14.590  -0.219  1.00  0.00     0.000 A 
HETATM   35  C   UNL     1      40.612 -13.603  -0.054  1.00  0.00     0.001 A 
HETATM   36  C   UNL     1      41.573 -13.731   0.952  1.00  0.00     0.011 A 
ENDBRANCH  22  31
ENDBRANCH   2  22
TORSDOF 8
ENDMDL
MODEL 4
REMARK VINA RESULT:      -9.0      6.664     10.522
REMARK  8 active torsions:
REMARK  status: ('A' for Active; 'I' for Inactive)
REMARK    1  A    between atoms: N_3  and  C_4 
REMARK    2  A    between atoms: C_7  and  O_8 
REMARK    3  A    between atoms: C_13  and  C_14 
REMARK    4  A    between atoms: N_15  and  N_16 
REMARK       I    between atoms: N_16  and  C_17 
REMARK    5  A    between atoms: C_17  and  C_18 
REMARK    6  A    between atoms: C_18  and  O_19 
REMARK    7  A    between atoms: C_18  and  C_20 
REMARK    8  A    between atoms: C_18  and  C_26 
ROOT
HETATM    1  N   UNL     1      42.129  -6.129  14.831  1.00  0.00    -0.244 N 
HETATM    2  C   UNL     1      41.572  -6.998  15.765  1.00  0.00     0.282 C 
HETATM    3  O   UNL     1      41.316  -8.189  15.556  1.00  0.00    -0.268 OA
HETATM    4  H   UNL     1      42.110  -5.132  15.025  1.00  0.00     0.192 HD
ENDROOT
BRANCH   1   5
HETATM    5  N   UNL     1      42.480  -6.417  13.538  1.00  0.00    -0.184 NA
HETATM    6  C   UNL     1      41.577  -6.823  12.705  1.00  0.00     0.152 C 
BRANCH   6   7
HETATM    7  C   UNL     1      41.988  -7.146  11.349  1.00  0.00     0.008 A 
HETATM    8  C   UNL     1      42.871  -8.156  10.982  1.00  0.00     0.025 A 
HETATM    9  N   UNL     1      43.075  -8.087   9.602  1.00  0.00    -0.319 N 
HETATM   10  C   UNL     1      43.469  -9.212  11.857  1.00  0.00     0.070 C 
HETATM   11  C   UNL     1      42.248  -7.091   9.093  1.00  0.00     0.014 A 
HETATM   12  C   UNL     1      42.206  -6.655   7.667  1.00  0.00     0.068 C 
HETATM   13  C   UNL     1      41.578  -6.513  10.151  1.00  0.00     0.040 A 
BRANCH   9  14
HETATM   14  C   UNL     1      44.003  -8.870   8.851  1.00  0.00     0.039 A 
HETATM   15  C   UNL     1      43.585 -10.072   8.261  1.00  0.00     0.033 A 
HETATM   16  C   UNL     1      44.494 -10.855   7.543  1.00  0.00     0.039 A 
HETATM   17  C   UNL     1      45.812 -10.431   7.415  1.00  0.00     0.065 A 
HETATM   18  C   UNL     1      46.236  -9.240   7.992  1.00  0.00     0.039 A 
HETATM   19  C   UNL     1      45.333  -8.456   8.714  1.00  0.00     0.033 A 
BRANCH  17  20
HETATM   20  O   UNL     1      46.732 -11.164   6.726  1.00  0.00    -0.361 OA
HETATM   21  H   UNL     1      47.107 -11.832   7.324  1.00  0.00     0.217 HD
ENDBRANCH  17  20
ENDBRANCH   9  14
ENDBRANCH   6   7
ENDBRANCH   1   5
BRANCH   2  22
HETATM   22  C   UNL     1      41.218  -6.344  17.150  1.00  0.00     0.195 C 
BRANCH  22  23
HETATM   23  O   UNL     1      42.363  -5.545  17.528  1.00  0.00    -0.371 OA
HETATM   24  H   UNL     1      42.199  -5.292  18.459  1.00  0.00     0.212 HD
ENDBRANCH  22  23
BRANCH  22  25
HETATM   25  C   UNL     1      40.018  -5.391  16.996  1.00  0.00    -0.010 A 
HETATM   26  C   UNL     1      39.024  -5.594  16.017  1.00  0.00     0.011 A 
HETATM   27  C   UNL     1      37.976  -4.684  15.857  1.00  0.00     0.001 A 
HETATM   28  C   UNL     1      37.900  -3.556  16.670  1.00  0.00     0.000 A 
HETATM   29  C   UNL     1      38.870  -3.335  17.643  1.00  0.00     0.001 A 
HETATM   30  C   UNL     1      39.922  -4.240  17.800  1.00  0.00     0.011 A 
ENDBRANCH  22  25
BRANCH  22  31
HETATM   31  C   UNL     1      41.077  -7.360  18.295  1.00  0.00    -0.010 A 
HETATM   32  C   UNL     1      42.167  -7.827  19.050  1.00  0.00     0.011 A 
HETATM   33  C   UNL     1      41.983  -8.757  20.077  1.00  0.00     0.001 A 
HETATM   34  C   UNL     1      40.709  -9.235  20.374  1.00  0.00     0.000 A 
HETATM   35  C   UNL     1      39.612  -8.776  19.653  1.00  0.00     0.001 A 
HETATM   36  C   UNL     1      39.794  -7.844  18.630  1.00  0.00     0.011 A 
ENDBRANCH  22  31
ENDBRANCH   2  22
TORSDOF 8
ENDMDL
MODEL 5
REMARK VINA RESULT:      -8.9      3.064     10.383
REMARK  8 active torsions:
REMARK  status: ('A' for Active; 'I' for Inactive)
REMARK    1  A    between atoms: N_3  and  C_4 
REMARK    2  A    between atoms: C_7  and  O_8 
REMARK    3  A    between atoms: C_13  and  C_14 
REMARK    4  A    between atoms: N_15  and  N_16 
REMARK       I    between atoms: N_16  and  C_17 
REMARK    5  A    between atoms: C_17  and  C_18 
REMARK    6  A    between atoms: C_18  and  O_19 
REMARK    7  A    between atoms: C_18  and  C_20 
REMARK    8  A    between atoms: C_18  and  C_26 
ROOT
HETATM    1  N   UNL     1      41.673 -13.163   4.353  1.00  0.00    -0.244 N 
HETATM    2  C   UNL     1      40.431 -13.194   3.724  1.00  0.00     0.282 C 
HETATM    3  O   UNL     1      39.419 -12.614   4.132  1.00  0.00    -0.268 OA
HETATM    4  H   UNL     1      42.382 -13.830   4.061  1.00  0.00     0.192 HD
ENDROOT
BRANCH   1   5
HETATM    5  N   UNL     1      41.997 -12.509   5.513  1.00  0.00    -0.184 NA
HETATM    6  C   UNL     1      42.952 -11.635   5.509  1.00  0.00     0.152 C 
BRANCH   6   7
HETATM    7  C   UNL     1      43.289 -10.980   6.762  1.00  0.00     0.008 A 
HETATM    8  C   UNL     1      42.575  -9.949   7.362  1.00  0.00     0.025 A 
HETATM    9  N   UNL     1      43.267  -9.534   8.503  1.00  0.00    -0.319 N 
HETATM   10  C   UNL     1      41.249  -9.393   6.950  1.00  0.00     0.070 C 
HETATM   11  C   UNL     1      44.369 -10.368   8.665  1.00  0.00     0.014 A 
HETATM   12  C   UNL     1      45.405 -10.225   9.728  1.00  0.00     0.068 C 
HETATM   13  C   UNL     1      44.390 -11.256   7.609  1.00  0.00     0.040 A 
BRANCH   9  14
HETATM   14  C   UNL     1      42.930  -8.421   9.330  1.00  0.00     0.039 A 
HETATM   15  C   UNL     1      43.383  -7.137   8.993  1.00  0.00     0.033 A 
HETATM   16  C   UNL     1      43.076  -6.046   9.811  1.00  0.00     0.039 A 
HETATM   17  C   UNL     1      42.314  -6.243  10.958  1.00  0.00     0.065 A 
HETATM   18  C   UNL     1      41.856  -7.510  11.300  1.00  0.00     0.039 A 
HETATM   19  C   UNL     1      42.164  -8.604  10.487  1.00  0.00     0.033 A 
BRANCH  17  20
HETATM   20  O   UNL     1      41.993  -5.208  11.785  1.00  0.00    -0.361 OA
HETATM   21  H   UNL     1      41.803  -5.565  12.669  1.00  0.00     0.217 HD
ENDBRANCH  17  20
ENDBRANCH   9  14
ENDBRANCH   6   7
ENDBRANCH   1   5
BRANCH   2  22
HETATM   22  C   UNL     1      40.364 -14.093   2.436  1.00  0.00     0.195 C 
BRANCH  22  23
HETATM   23  O   UNL     1      39.095 -14.785   2.487  1.00  0.00    -0.371 OA
HETATM   24  H   UNL     1      39.326 -15.727   2.618  1.00  0.00     0.212 HD
ENDBRANCH  22  23
BRANCH  22  25
HETATM   25  C   UNL     1      40.362 -13.212   1.173  1.00  0.00    -0.010 A 
HETATM   26  C   UNL     1      39.827 -13.661  -0.050  1.00  0.00     0.011 A 
HETATM   27  C   UNL     1      39.889 -12.866  -1.198  1.00  0.00     0.001 A 
HETATM   28  C   UNL     1      40.487 -11.610  -1.146  1.00  0.00     0.000 A 
HETATM   29  C   UNL     1      41.023 -11.145   0.052  1.00  0.00     0.001 A 
HETATM   30  C   UNL     1      40.967 -11.941   1.199  1.00  0.00     0.011 A 
ENDBRANCH  22  25
BRANCH  22  31
HETATM   31  C   UNL     1      41.406 -15.224   2.417  1.00  0.00    -0.010 A 
HETATM   32  C   UNL     1      41.271 -16.408   3.164  1.00  0.00     0.011 A 
HETATM   33  C   UNL     1      42.253 -17.402   3.115  1.00  0.00     0.001 A 
HETATM   34  C   UNL     1      43.383 -17.237   2.319  1.00  0.00     0.000 A 
HETATM   35  C   UNL     1      43.531 -16.083   1.558  1.00  0.00     0.001 A 
HETATM   36  C   UNL     1      42.550 -15.091   1.602  1.00  0.00     0.011 A 
ENDBRANCH  22  31
ENDBRANCH   2  22
TORSDOF 8
ENDMDL
MODEL 6
REMARK VINA RESULT:      -8.8      2.745     10.180
REMARK  8 active torsions:
REMARK  status: ('A' for Active; 'I' for Inactive)
REMARK    1  A    between atoms: N_3  and  C_4 
REMARK    2  A    between atoms: C_7  and  O_8 
REMARK    3  A    between atoms: C_13  and  C_14 
REMARK    4  A    between atoms: N_15  and  N_16 
REMARK       I    between atoms: N_16  and  C_17 
REMARK    5  A    between atoms: C_17  and  C_18 
REMARK    6  A    between atoms: C_18  and  O_19 
REMARK    7  A    between atoms: C_18  and  C_20 
REMARK    8  A    between atoms: C_18  and  C_26 
ROOT
HETATM    1  N   UNL     1      42.176 -12.813   4.888  1.00  0.00    -0.244 N 
HETATM    2  C   UNL     1      41.631 -14.010   4.429  1.00  0.00     0.282 C 
HETATM    3  O   UNL     1      40.707 -14.620   4.977  1.00  0.00    -0.268 OA
HETATM    4  H   UNL     1      43.058 -12.499   4.494  1.00  0.00     0.192 HD
ENDROOT
BRANCH   1   5
HETATM    5  N   UNL     1      41.807 -12.111   6.006  1.00  0.00    -0.184 NA
HETATM    6  C   UNL     1      41.599 -10.837   5.920  1.00  0.00     0.152 C 
BRANCH   6   7
HETATM    7  C   UNL     1      41.236 -10.117   7.130  1.00  0.00     0.008 A 
HETATM    8  C   UNL     1      42.115  -9.680   8.115  1.00  0.00     0.025 A 
HETATM    9  N   UNL     1      41.372  -9.111   9.152  1.00  0.00    -0.319 N 
HETATM   10  C   UNL     1      43.610  -9.711   8.087  1.00  0.00     0.070 C 
HETATM   11  C   UNL     1      40.033  -9.112   8.774  1.00  0.00     0.014 A 
HETATM   12  C   UNL     1      38.900  -8.649   9.626  1.00  0.00     0.068 C 
HETATM   13  C   UNL     1      39.940  -9.721   7.539  1.00  0.00     0.040 A 
BRANCH   9  14
HETATM   14  C   UNL     1      41.889  -8.652  10.401  1.00  0.00     0.039 A 
HETATM   15  C   UNL     1      42.117  -7.283  10.601  1.00  0.00     0.033 A 
HETATM   16  C   UNL     1      42.644  -6.828  11.814  1.00  0.00     0.039 A 
HETATM   17  C   UNL     1      42.937  -7.744  12.819  1.00  0.00     0.065 A 
HETATM   18  C   UNL     1      42.711  -9.102  12.633  1.00  0.00     0.039 A 
HETATM   19  C   UNL     1      42.188  -9.562  11.422  1.00  0.00     0.033 A 
BRANCH  17  20
HETATM   20  O   UNL     1      43.454  -7.345  14.016  1.00  0.00    -0.361 OA
HETATM   21  H   UNL     1      42.743  -7.347  14.677  1.00  0.00     0.217 HD
ENDBRANCH  17  20
ENDBRANCH   9  14
ENDBRANCH   6   7
ENDBRANCH   1   5
BRANCH   2  22
HETATM   22  C   UNL     1      42.321 -14.602   3.147  1.00  0.00     0.195 C 
BRANCH  22  23
HETATM   23  O   UNL     1      43.394 -13.693   2.804  1.00  0.00    -0.371 OA
HETATM   24  H   UNL     1      44.168 -14.267   2.639  1.00  0.00     0.212 HD
ENDBRANCH  22  23
BRANCH  22  25
HETATM   25  C   UNL     1      42.955 -15.969   3.468  1.00  0.00    -0.010 A 
HETATM   26  C   UNL     1      43.496 -16.262   4.735  1.00  0.00     0.011 A 
HETATM   27  C   UNL     1      44.119 -17.488   4.985  1.00  0.00     0.001 A 
HETATM   28  C   UNL     1      44.213 -18.442   3.976  1.00  0.00     0.000 A 
HETATM   29  C   UNL     1      43.686 -18.174   2.716  1.00  0.00     0.001 A 
HETATM   30  C   UNL     1      43.069 -16.947   2.462  1.00  0.00     0.011 A 
ENDBRANCH  22  25
BRANCH  22  31
HETATM   31  C   UNL     1      41.418 -14.600   1.903  1.00  0.00    -0.010 A 
HETATM   32  C   UNL     1      40.501 -15.626   1.615  1.00  0.00     0.011 A 
HETATM   33  C   UNL     1      39.707 -15.578   0.465  1.00  0.00     0.001 A 
HETATM   34  C   UNL     1      39.810 -14.505  -0.417  1.00  0.00     0.000 A 
HETATM   35  C   UNL     1      40.698 -13.469  -0.147  1.00  0.00     0.001 A 
HETATM   36  C   UNL     1      41.488 -13.514   1.004  1.00  0.00     0.011 A 
ENDBRANCH  22  31
ENDBRANCH   2  22
TORSDOF 8
ENDMDL
MODEL 7
REMARK VINA RESULT:      -8.8      1.168      3.282
REMARK  8 active torsions:
REMARK  status: ('A' for Active; 'I' for Inactive)
REMARK    1  A    between atoms: N_3  and  C_4 
REMARK    2  A    between atoms: C_7  and  O_8 
REMARK    3  A    between atoms: C_13  and  C_14 
REMARK    4  A    between atoms: N_15  and  N_16 
REMARK       I    between atoms: N_16  and  C_17 
REMARK    5  A    between atoms: C_17  and  C_18 
REMARK    6  A    between atoms: C_18  and  O_19 
REMARK    7  A    between atoms: C_18  and  C_20 
REMARK    8  A    between atoms: C_18  and  C_26 
ROOT
HETATM    1  N   UNL     1      42.762 -10.836   6.638  1.00  0.00    -0.244 N 
HETATM    2  C   UNL     1      42.169  -9.582   6.514  1.00  0.00     0.282 C 
HETATM    3  O   UNL     1      41.590  -9.174   5.501  1.00  0.00    -0.268 OA
HETATM    4  H   UNL     1      43.387 -11.001   7.423  1.00  0.00     0.192 HD
ENDROOT
BRANCH   1   5
HETATM    5  N   UNL     1      42.821 -11.822   5.689  1.00  0.00    -0.184 NA
HETATM    6  C   UNL     1      42.906 -13.060   6.057  1.00  0.00     0.152 C 
BRANCH   6   7
HETATM    7  C   UNL     1      42.995 -14.079   5.025  1.00  0.00     0.008 A 
HETATM    8  C   UNL     1      43.077 -15.451   5.237  1.00  0.00     0.025 A 
HETATM    9  N   UNL     1      43.237 -16.083   4.001  1.00  0.00    -0.319 N 
HETATM   10  C   UNL     1      42.943 -16.187   6.532  1.00  0.00     0.070 C 
HETATM   11  C   UNL     1      43.163 -15.111   3.008  1.00  0.00     0.014 A 
HETATM   12  C   UNL     1      43.348 -15.359   1.548  1.00  0.00     0.068 C 
HETATM   13  C   UNL     1      43.013 -13.885   3.622  1.00  0.00     0.040 A 
BRANCH   9  14
HETATM   14  C   UNL     1      43.479 -17.474   3.795  1.00  0.00     0.039 A 
HETATM   15  C   UNL     1      43.073 -18.084   2.599  1.00  0.00     0.033 A 
HETATM   16  C   UNL     1      43.287 -19.451   2.399  1.00  0.00     0.039 A 
HETATM   17  C   UNL     1      43.908 -20.199   3.394  1.00  0.00     0.065 A 
HETATM   18  C   UNL     1      44.318 -19.605   4.581  1.00  0.00     0.039 A 
HETATM   19  C   UNL     1      44.103 -18.240   4.786  1.00  0.00     0.033 A 
BRANCH  17  20
HETATM   20  O   UNL     1      44.134 -21.535   3.242  1.00  0.00    -0.361 OA
HETATM   21  H   UNL     1      45.094 -21.684   3.198  1.00  0.00     0.217 HD
ENDBRANCH  17  20
ENDBRANCH   9  14
ENDBRANCH   6   7
ENDBRANCH   1   5
BRANCH   2  22
HETATM   22  C   UNL     1      42.329  -8.646   7.766  1.00  0.00     0.195 C 
BRANCH  22  23
HETATM   23  O   UNL     1      42.713  -7.347   7.259  1.00  0.00    -0.371 OA
HETATM   24  H   UNL     1      42.757  -7.458   6.288  1.00  0.00     0.212 HD
ENDBRANCH  22  23
BRANCH  22  25
HETATM   25  C   UNL     1      40.975  -8.484   8.484  1.00  0.00    -0.010 A 
HETATM   26  C   UNL     1      40.545  -7.243   8.994  1.00  0.00     0.011 A 
HETATM   27  C   UNL     1      39.340  -7.132   9.693  1.00  0.00     0.001 A 
HETATM   28  C   UNL     1      38.543  -8.255   9.895  1.00  0.00     0.000 A 
HETATM   29  C   UNL     1      38.948  -9.491   9.400  1.00  0.00     0.001 A 
HETATM   30  C   UNL     1      40.155  -9.606   8.707  1.00  0.00     0.011 A 
ENDBRANCH  22  25
BRANCH  22  31
HETATM   31  C   UNL     1      43.491  -9.045   8.691  1.00  0.00    -0.010 A 
HETATM   32  C   UNL     1      44.841  -8.814   8.374  1.00  0.00     0.011 A 
HETATM   33  C   UNL     1      45.860  -9.203   9.249  1.00  0.00     0.001 A 
HETATM   34  C   UNL     1      45.552  -9.824  10.457  1.00  0.00     0.000 A 
HETATM   35  C   UNL     1      44.224 -10.049  10.800  1.00  0.00     0.001 A 
HETATM   36  C   UNL     1      43.205  -9.657   9.929  1.00  0.00     0.011 A 
ENDBRANCH  22  31
ENDBRANCH   2  22
TORSDOF 8
ENDMDL
MODEL 8
REMARK VINA RESULT:      -8.7      5.886     10.607
REMARK  8 active torsions:
REMARK  status: ('A' for Active; 'I' for Inactive)
REMARK    1  A    between atoms: N_3  and  C_4 
REMARK    2  A    between atoms: C_7  and  O_8 
REMARK    3  A    between atoms: C_13  and  C_14 
REMARK    4  A    between atoms: N_15  and  N_16 
REMARK       I    between atoms: N_16  and  C_17 
REMARK    5  A    between atoms: C_17  and  C_18 
REMARK    6  A    between atoms: C_18  and  O_19 
REMARK    7  A    between atoms: C_18  and  C_20 
REMARK    8  A    between atoms: C_18  and  C_26 
ROOT
HETATM    1  N   UNL     1      41.663 -15.358   1.386  1.00  0.00    -0.244 N 
HETATM    2  C   UNL     1      41.461 -16.020   2.594  1.00  0.00     0.282 C 
HETATM    3  O   UNL     1      40.354 -16.253   3.094  1.00  0.00    -0.268 OA
HETATM    4  H   UNL     1      42.600 -15.034   1.162  1.00  0.00     0.192 HD
ENDROOT
BRANCH   1   5
HETATM    5  N   UNL     1      40.704 -14.848   0.551  1.00  0.00    -0.184 NA
HETATM    6  C   UNL     1      40.709 -13.585   0.267  1.00  0.00     0.152 C 
BRANCH   6   7
HETATM    7  C   UNL     1      39.662 -13.071  -0.600  1.00  0.00     0.008 A 
HETATM    8  C   UNL     1      39.273 -11.741  -0.709  1.00  0.00     0.025 A 
HETATM    9  N   UNL     1      38.180 -11.668  -1.577  1.00  0.00    -0.319 N 
HETATM   10  C   UNL     1      39.924 -10.543  -0.094  1.00  0.00     0.070 C 
HETATM   11  C   UNL     1      37.943 -12.943  -2.080  1.00  0.00     0.014 A 
HETATM   12  C   UNL     1      36.824 -13.312  -2.994  1.00  0.00     0.068 C 
HETATM   13  C   UNL     1      38.845 -13.807  -1.492  1.00  0.00     0.040 A 
BRANCH   9  14
HETATM   14  C   UNL     1      37.412 -10.499  -1.862  1.00  0.00     0.039 A 
HETATM   15  C   UNL     1      36.364 -10.127  -1.007  1.00  0.00     0.033 A 
HETATM   16  C   UNL     1      35.593  -8.996  -1.292  1.00  0.00     0.039 A 
HETATM   17  C   UNL     1      35.876  -8.242  -2.426  1.00  0.00     0.065 A 
HETATM   18  C   UNL     1      36.915  -8.599  -3.278  1.00  0.00     0.039 A 
HETATM   19  C   UNL     1      37.686  -9.730  -2.999  1.00  0.00     0.033 A 
BRANCH  17  20
HETATM   20  O   UNL     1      35.148  -7.134  -2.743  1.00  0.00    -0.361 OA
HETATM   21  H   UNL     1      34.210  -7.318  -2.567  1.00  0.00     0.217 HD
ENDBRANCH  17  20
ENDBRANCH   9  14
ENDBRANCH   6   7
ENDBRANCH   1   5
BRANCH   2  22
HETATM   22  C   UNL     1      42.775 -16.428   3.354  1.00  0.00     0.195 C 
BRANCH  22  23
HETATM   23  O   UNL     1      43.862 -15.751   2.681  1.00  0.00    -0.371 OA
HETATM   24  H   UNL     1      44.107 -15.014   3.275  1.00  0.00     0.212 HD
ENDBRANCH  22  23
BRANCH  22  25
HETATM   25  C   UNL     1      42.732 -15.910   4.804  1.00  0.00    -0.010 A 
HETATM   26  C   UNL     1      43.475 -14.787   5.219  1.00  0.00     0.011 A 
HETATM   27  C   UNL     1      43.467 -14.372   6.553  1.00  0.00     0.001 A 
HETATM   28  C   UNL     1      42.717 -15.068   7.497  1.00  0.00     0.000 A 
HETATM   29  C   UNL     1      41.975 -16.180   7.111  1.00  0.00     0.001 A 
HETATM   30  C   UNL     1      41.987 -16.601   5.779  1.00  0.00     0.011 A 
ENDBRANCH  22  25
BRANCH  22  31
HETATM   31  C   UNL     1      43.126 -17.919   3.225  1.00  0.00    -0.010 A 
HETATM   32  C   UNL     1      42.766 -18.702   2.113  1.00  0.00     0.011 A 
HETATM   33  C   UNL     1      43.105 -20.057   2.050  1.00  0.00     0.001 A 
HETATM   34  C   UNL     1      43.813 -20.655   3.090  1.00  0.00     0.000 A 
HETATM   35  C   UNL     1      44.195 -19.898   4.192  1.00  0.00     0.001 A 
HETATM   36  C   UNL     1      43.860 -18.544   4.255  1.00  0.00     0.011 A 
ENDBRANCH  22  31
ENDBRANCH   2  22
TORSDOF 8
ENDMDL
MODEL 9
REMARK VINA RESULT:      -8.4      2.755     10.134
REMARK  8 active torsions:
REMARK  status: ('A' for Active; 'I' for Inactive)
REMARK    1  A    between atoms: N_3  and  C_4 
REMARK    2  A    between atoms: C_7  and  O_8 
REMARK    3  A    between atoms: C_13  and  C_14 
REMARK    4  A    between atoms: N_15  and  N_16 
REMARK       I    between atoms: N_16  and  C_17 
REMARK    5  A    between atoms: C_17  and  C_18 
REMARK    6  A    between atoms: C_18  and  O_19 
REMARK    7  A    between atoms: C_18  and  C_20 
REMARK    8  A    between atoms: C_18  and  C_26 
ROOT
HETATM    1  N   UNL     1      42.514 -12.145   5.812  1.00  0.00    -0.244 N 
HETATM    2  C   UNL     1      41.691 -13.136   5.285  1.00  0.00     0.282 C 
HETATM    3  O   UNL     1      40.508 -13.311   5.599  1.00  0.00    -0.268 OA
HETATM    4  H   UNL     1      43.515 -12.209   5.649  1.00  0.00     0.192 HD
ENDROOT
BRANCH   1   5
HETATM    5  N   UNL     1      42.184 -11.209   6.756  1.00  0.00    -0.184 NA
HETATM    6  C   UNL     1      43.115 -10.500   7.307  1.00  0.00     0.152 C 
BRANCH   6   7
HETATM    7  C   UNL     1      42.733  -9.535   8.326  1.00  0.00     0.008 A 
HETATM    8  C   UNL     1      42.929  -9.673   9.695  1.00  0.00     0.025 A 
HETATM    9  N   UNL     1      42.347  -8.578  10.339  1.00  0.00    -0.319 N 
HETATM   10  C   UNL     1      43.693 -10.743  10.408  1.00  0.00     0.070 C 
HETATM   11  C   UNL     1      41.865  -7.710   9.364  1.00  0.00     0.014 A 
HETATM   12  C   UNL     1      41.115  -6.448   9.631  1.00  0.00     0.068 C 
HETATM   13  C   UNL     1      42.099  -8.284   8.131  1.00  0.00     0.040 A 
BRANCH   9  14
HETATM   14  C   UNL     1      42.225  -8.402  11.750  1.00  0.00     0.039 A 
HETATM   15  C   UNL     1      41.121  -8.938  12.428  1.00  0.00     0.033 A 
HETATM   16  C   UNL     1      40.984  -8.750  13.807  1.00  0.00     0.039 A 
HETATM   17  C   UNL     1      41.953  -8.032  14.500  1.00  0.00     0.065 A 
HETATM   18  C   UNL     1      43.054  -7.500  13.839  1.00  0.00     0.039 A 
HETATM   19  C   UNL     1      43.193  -7.682  12.461  1.00  0.00     0.033 A 
BRANCH  17  20
HETATM   20  O   UNL     1      41.858  -7.823  15.844  1.00  0.00    -0.361 OA
HETATM   21  H   UNL     1      41.634  -6.890  15.997  1.00  0.00     0.217 HD
ENDBRANCH  17  20
ENDBRANCH   9  14
ENDBRANCH   6   7
ENDBRANCH   1   5
BRANCH   2  22
HETATM   22  C   UNL     1      42.389 -14.102   4.260  1.00  0.00     0.195 C 
BRANCH  22  23
HETATM   23  O   UNL     1      43.578 -13.418   3.800  1.00  0.00    -0.371 OA
HETATM   24  H   UNL     1      43.954 -14.002   3.111  1.00  0.00     0.212 HD
ENDBRANCH  22  23
BRANCH  22  25
HETATM   25  C   UNL     1      42.841 -15.392   4.970  1.00  0.00    -0.010 A 
HETATM   26  C   UNL     1      43.600 -16.381   4.313  1.00  0.00     0.011 A 
HETATM   27  C   UNL     1      43.948 -17.570   4.959  1.00  0.00     0.001 A 
HETATM   28  C   UNL     1      43.545 -17.794   6.273  1.00  0.00     0.000 A 
HETATM   29  C   UNL     1      42.795 -16.832   6.943  1.00  0.00     0.001 A 
HETATM   30  C   UNL     1      42.440 -15.645   6.296  1.00  0.00     0.011 A 
ENDBRANCH  22  25
BRANCH  22  31
HETATM   31  C   UNL     1      41.574 -14.338   2.979  1.00  0.00    -0.010 A 
HETATM   32  C   UNL     1      41.710 -13.548   1.823  1.00  0.00     0.011 A 
HETATM   33  C   UNL     1      40.938 -13.802   0.685  1.00  0.00     0.001 A 
HETATM   34  C   UNL     1      40.020 -14.850   0.677  1.00  0.00     0.000 A 
HETATM   35  C   UNL     1      39.879 -15.655   1.801  1.00  0.00     0.001 A 
HETATM   36  C   UNL     1      40.652 -15.405   2.937  1.00  0.00     0.011 A 
ENDBRANCH  22  31
ENDBRANCH   2  22
TORSDOF 8
ENDMDL
MODEL 10
REMARK VINA RESULT:      -8.3      2.725     10.580
REMARK  8 active torsions:
REMARK  status: ('A' for Active; 'I' for Inactive)
REMARK    1  A    between atoms: N_3  and  C_4 
REMARK    2  A    between atoms: C_7  and  O_8 
REMARK    3  A    between atoms: C_13  and  C_14 
REMARK    4  A    between atoms: N_15  and  N_16 
REMARK       I    between atoms: N_16  and  C_17 
REMARK    5  A    between atoms: C_17  and  C_18 
REMARK    6  A    between atoms: C_18  and  O_19 
REMARK    7  A    between atoms: C_18  and  C_20 
REMARK    8  A    between atoms: C_18  and  C_26 
ROOT
HETATM    1  N   UNL     1      40.237 -13.630   5.234  1.00  0.00    -0.244 N 
HETATM    2  C   UNL     1      41.407 -14.318   4.922  1.00  0.00     0.282 C 
HETATM    3  O   UNL     1      42.537 -13.995   5.303  1.00  0.00    -0.268 OA
HETATM    4  H   UNL     1      39.393 -13.847   4.712  1.00  0.00     0.192 HD
ENDROOT
BRANCH   1   5
HETATM    5  N   UNL     1      40.121 -12.495   5.993  1.00  0.00    -0.184 NA
HETATM    6  C   UNL     1      40.444 -11.350   5.484  1.00  0.00     0.152 C 
BRANCH   6   7
HETATM    7  C   UNL     1      40.336 -10.169   6.325  1.00  0.00     0.008 A 
HETATM    8  C   UNL     1      41.218  -9.801   7.335  1.00  0.00     0.025 A 
HETATM    9  N   UNL     1      40.721  -8.658   7.965  1.00  0.00    -0.319 N 
HETATM   10  C   UNL     1      42.529 -10.434   7.680  1.00  0.00     0.070 C 
HETATM   11  C   UNL     1      39.572  -8.258   7.288  1.00  0.00     0.014 A 
HETATM   12  C   UNL     1      38.699  -7.114   7.680  1.00  0.00     0.068 C 
HETATM   13  C   UNL     1      39.331  -9.173   6.283  1.00  0.00     0.040 A 
BRANCH   9  14
HETATM   14  C   UNL     1      41.268  -8.035   9.126  1.00  0.00     0.039 A 
HETATM   15  C   UNL     1      40.846  -8.440  10.401  1.00  0.00     0.033 A 
HETATM   16  C   UNL     1      41.361  -7.819  11.542  1.00  0.00     0.039 A 
HETATM   17  C   UNL     1      42.297  -6.800  11.404  1.00  0.00     0.065 A 
HETATM   18  C   UNL     1      42.727  -6.393  10.146  1.00  0.00     0.039 A 
HETATM   19  C   UNL     1      42.212  -7.008   9.002  1.00  0.00     0.033 A 
BRANCH  17  20
HETATM   20  O   UNL     1      42.824  -6.166  12.490  1.00  0.00    -0.361 OA
HETATM   21  H   UNL     1      42.306  -5.361  12.660  1.00  0.00     0.217 HD
ENDBRANCH  17  20
ENDBRANCH   9  14
ENDBRANCH   6   7
ENDBRANCH   1   5
BRANCH   2  22
HETATM   22  C   UNL     1      41.214 -15.553   3.970  1.00  0.00     0.195 C 
BRANCH  22  23
HETATM   23  O   UNL     1      40.008 -16.222   4.408  1.00  0.00    -0.371 OA
HETATM   24  H   UNL     1      40.238 -16.619   5.271  1.00  0.00     0.212 HD
ENDBRANCH  22  23
BRANCH  22  25
HETATM   25  C   UNL     1      40.984 -15.078   2.523  1.00  0.00    -0.010 A 
HETATM   26  C   UNL     1      41.595 -13.916   2.012  1.00  0.00     0.011 A 
HETATM   27  C   UNL     1      41.324 -13.472   0.715  1.00  0.00     0.001 A 
HETATM   28  C   UNL     1      40.440 -14.179  -0.095  1.00  0.00     0.000 A 
HETATM   29  C   UNL     1      39.824 -15.329   0.389  1.00  0.00     0.001 A 
HETATM   30  C   UNL     1      40.088 -15.772   1.687  1.00  0.00     0.011 A 
ENDBRANCH  22  25
BRANCH  22  31
HETATM   31  C   UNL     1      42.308 -16.623   4.118  1.00  0.00    -0.010 A 
HETATM   32  C   UNL     1      42.755 -17.101   5.363  1.00  0.00     0.011 A 
HETATM   33  C   UNL     1      43.759 -18.071   5.440  1.00  0.00     0.001 A 
HETATM   34  C   UNL     1      44.333 -18.586   4.280  1.00  0.00     0.000 A 
HETATM   35  C   UNL     1      43.896 -18.142   3.037  1.00  0.00     0.001 A 
HETATM   36  C   UNL     1      42.891 -17.176   2.957  1.00  0.00     0.011 A 
ENDBRANCH  22  31
ENDBRANCH   2  22
TORSDOF 8
ENDMDL
