MODEL 1
REMARK VINA RESULT:      -7.9      0.000      0.000
REMARK  8 active torsions:
REMARK  status: ('A' for Active; 'I' for Inactive)
REMARK    1  A    between atoms: C_2  and  C_3 
REMARK    2  A    between atoms: C_6  and  C_7 
REMARK       I    between atoms: C_7  and  N_8 
REMARK    3  A    between atoms: C_12  and  O_13 
REMARK    4  A    between atoms: O_13  and  C_14 
REMARK    5  A    between atoms: C_14  and  C_15 
REMARK    6  A    between atoms: C_15  and  O_16 
REMARK    7  A    between atoms: C_18  and  N_19 
REMARK       I    between atoms: N_19  and  C_20 
REMARK    8  A    between atoms: C_20  and  C_21 
ROOT
HETATM    1  C   UNL     1      45.107  -9.782   7.949  1.00  0.00     0.274 C 
HETATM    2  N   UNL     1      44.316 -10.756   7.320  1.00  0.00    -0.347 N 
HETATM    3  C   UNL     1      42.855 -10.827   7.362  1.00  0.00     0.127 C 
HETATM    4  C   UNL     1      42.284 -10.876   5.947  1.00  0.00     0.037 C 
HETATM    5  C   UNL     1      42.884 -12.021   5.101  1.00  0.00     0.019 C 
HETATM    6  C   UNL     1      42.405 -13.461   5.545  1.00  0.00     0.162 C 
HETATM    7  C   UNL     1      42.021 -14.246   4.246  1.00  0.00     0.148 C 
HETATM    8  C   UNL     1      41.876 -13.158   3.222  1.00  0.00    -0.026 A 
HETATM    9  C   UNL     1      42.383 -11.939   3.671  1.00  0.00    -0.038 A 
HETATM   10  C   UNL     1      41.356 -13.293   1.939  1.00  0.00     0.010 A 
HETATM   11  C   UNL     1      41.358 -12.184   1.092  1.00  0.00     0.001 A 
HETATM   12  C   UNL     1      41.883 -10.964   1.530  1.00  0.00     0.001 A 
HETATM   13  C   UNL     1      42.398 -10.836   2.823  1.00  0.00     0.009 A 
HETATM   14  C   UNL     1      44.426 -11.912   5.130  1.00  0.00     0.037 C 
HETATM   15  C   UNL     1      44.971 -11.815   6.557  1.00  0.00     0.127 C 
HETATM   16  O   UNL     1      46.303  -9.664   7.672  1.00  0.00    -0.266 OA
ENDROOT
BRANCH   6  17
HETATM   17  O   UNL     1      41.268 -13.353   6.427  1.00  0.00    -0.380 OA
BRANCH  17  18
HETATM   18  C   UNL     1      40.047 -13.786   5.821  1.00  0.00     0.194 C 
BRANCH  18  19
HETATM   19  C   UNL     1      39.128 -12.585   5.621  1.00  0.00     0.193 C 
BRANCH  19  20
HETATM   20  O   UNL     1      39.069 -11.827   6.829  1.00  0.00    -0.394 OA
HETATM   21  C   UNL     1      38.795 -10.456   6.578  1.00  0.00     0.201 C 
ENDBRANCH  19  20
ENDBRANCH  18  19
ENDBRANCH  17  18
ENDBRANCH   6  17
BRANCH   7  22
HETATM   22  N   UNL     1      43.010 -15.212   3.791  1.00  0.00    -0.350 N 
HETATM   23  C   UNL     1      43.023 -16.501   4.263  1.00  0.00     0.221 C 
HETATM   24  O   UNL     1      42.377 -16.858   5.243  1.00  0.00    -0.273 OA
HETATM   25  H   UNL     1      43.461 -15.019   2.907  1.00  0.00     0.163 HD
BRANCH  23  26
HETATM   26  C   UNL     1      43.850 -17.490   3.451  1.00  0.00     0.070 C 
HETATM   27  C   UNL     1      44.428 -18.568   4.366  1.00  0.00     0.019 C 
HETATM   28  C   UNL     1      43.057 -18.102   2.301  1.00  0.00     0.019 C 
ENDBRANCH  23  26
ENDBRANCH   7  22
BRANCH   1  29
HETATM   29  C   UNL     1      44.508  -8.865   8.932  1.00  0.00     0.154 A 
HETATM   30  N   UNL     1      44.131  -7.605   8.653  1.00  0.00    -0.123 NA
HETATM   31  O   UNL     1      43.613  -7.086   9.823  1.00  0.00    -0.217 OA
HETATM   32  C   UNL     1      43.623  -8.040  10.791  1.00  0.00     0.084 A 
HETATM   33  C   UNL     1      44.157  -9.193  10.271  1.00  0.00     0.075 A 
BRANCH  32  34
HETATM   34  C   UNL     1      43.096  -7.661  12.133  1.00  0.00     0.037 C 
HETATM   35  C   UNL     1      42.670  -8.887  12.940  1.00  0.00     0.016 C 
HETATM   36  C   UNL     1      41.937  -6.672  11.998  1.00  0.00     0.016 C 
ENDBRANCH  32  34
ENDBRANCH   1  29
TORSDOF 8
ENDMDL
MODEL 2
REMARK VINA RESULT:      -7.9      1.146      2.048
REMARK  8 active torsions:
REMARK  status: ('A' for Active; 'I' for Inactive)
REMARK    1  A    between atoms: C_2  and  C_3 
REMARK    2  A    between atoms: C_6  and  C_7 
REMARK       I    between atoms: C_7  and  N_8 
REMARK    3  A    between atoms: C_12  and  O_13 
REMARK    4  A    between atoms: O_13  and  C_14 
REMARK    5  A    between atoms: C_14  and  C_15 
REMARK    6  A    between atoms: C_15  and  O_16 
REMARK    7  A    between atoms: C_18  and  N_19 
REMARK       I    between atoms: N_19  and  C_20 
REMARK    8  A    between atoms: C_20  and  C_21 
ROOT
HETATM    1  C   UNL     1      44.851 -10.106   7.860  1.00  0.00     0.274 C 
HETATM    2  N   UNL     1      43.969 -10.927   7.140  1.00  0.00    -0.347 N 
HETATM    3  C   UNL     1      42.508 -10.877   7.208  1.00  0.00     0.127 C 
HETATM    4  C   UNL     1      41.916 -10.708   5.812  1.00  0.00     0.037 C 
HETATM    5  C   UNL     1      42.401 -11.791   4.823  1.00  0.00     0.019 C 
HETATM    6  C   UNL     1      41.804 -13.228   5.106  1.00  0.00     0.162 C 
HETATM    7  C   UNL     1      41.334 -13.816   3.734  1.00  0.00     0.148 C 
HETATM    8  C   UNL     1      41.271 -12.606   2.849  1.00  0.00    -0.026 A 
HETATM    9  C   UNL     1      41.889 -11.497   3.425  1.00  0.00    -0.038 A 
HETATM   10  C   UNL     1      40.723 -12.542   1.571  1.00  0.00     0.010 A 
HETATM   11  C   UNL     1      40.811 -11.345   0.861  1.00  0.00     0.001 A 
HETATM   12  C   UNL     1      41.447 -10.235   1.426  1.00  0.00     0.001 A 
HETATM   13  C   UNL     1      41.989 -10.306   2.712  1.00  0.00     0.009 A 
HETATM   14  C   UNL     1      43.947 -11.819   4.827  1.00  0.00     0.037 C 
HETATM   15  C   UNL     1      44.518 -11.939   6.242  1.00  0.00     0.127 C 
HETATM   16  O   UNL     1      46.049 -10.059   7.569  1.00  0.00    -0.266 OA
ENDROOT
BRANCH   6  17
HETATM   17  O   UNL     1      40.693 -13.128   6.022  1.00  0.00    -0.380 OA
BRANCH  17  18
HETATM   18  C   UNL     1      40.351 -14.381   6.623  1.00  0.00     0.194 C 
BRANCH  18  19
HETATM   19  C   UNL     1      41.628 -15.138   6.974  1.00  0.00     0.193 C 
BRANCH  19  20
HETATM   20  O   UNL     1      41.523 -16.484   6.512  1.00  0.00    -0.394 OA
HETATM   21  C   UNL     1      42.796 -17.106   6.410  1.00  0.00     0.201 C 
ENDBRANCH  19  20
ENDBRANCH  18  19
ENDBRANCH  17  18
ENDBRANCH   6  17
BRANCH   7  22
HETATM   22  N   UNL     1      42.228 -14.803   3.145  1.00  0.00    -0.350 N 
HETATM   23  C   UNL     1      41.818 -16.091   2.908  1.00  0.00     0.221 C 
HETATM   24  O   UNL     1      40.784 -16.558   3.375  1.00  0.00    -0.273 OA
HETATM   25  H   UNL     1      43.019 -14.446   2.626  1.00  0.00     0.163 HD
BRANCH  23  26
HETATM   26  C   UNL     1      42.704 -16.900   1.968  1.00  0.00     0.070 C 
HETATM   27  C   UNL     1      43.709 -15.983   1.274  1.00  0.00     0.019 C 
HETATM   28  C   UNL     1      43.402 -18.055   2.680  1.00  0.00     0.019 C 
ENDBRANCH  23  26
ENDBRANCH   7  22
BRANCH   1  29
HETATM   29  C   UNL     1      44.349  -9.264   8.958  1.00  0.00     0.154 A 
HETATM   30  N   UNL     1      43.888  -8.013   8.795  1.00  0.00    -0.123 NA
HETATM   31  O   UNL     1      43.506  -7.573  10.048  1.00  0.00    -0.217 OA
HETATM   32  C   UNL     1      43.682  -8.569  10.956  1.00  0.00     0.084 A 
HETATM   33  C   UNL     1      44.191  -9.670  10.312  1.00  0.00     0.075 A 
BRANCH  32  34
HETATM   34  C   UNL     1      43.320  -8.277  12.372  1.00  0.00     0.037 C 
HETATM   35  C   UNL     1      42.630  -9.469  13.035  1.00  0.00     0.016 C 
HETATM   36  C   UNL     1      42.444  -7.027  12.459  1.00  0.00     0.016 C 
ENDBRANCH  32  34
ENDBRANCH   1  29
TORSDOF 8
ENDMDL
MODEL 3
REMARK VINA RESULT:      -7.7      3.895      8.924
REMARK  8 active torsions:
REMARK  status: ('A' for Active; 'I' for Inactive)
REMARK    1  A    between atoms: C_2  and  C_3 
REMARK    2  A    between atoms: C_6  and  C_7 
REMARK       I    between atoms: C_7  and  N_8 
REMARK    3  A    between atoms: C_12  and  O_13 
REMARK    4  A    between atoms: O_13  and  C_14 
REMARK    5  A    between atoms: C_14  and  C_15 
REMARK    6  A    between atoms: C_15  and  O_16 
REMARK    7  A    between atoms: C_18  and  N_19 
REMARK       I    between atoms: N_19  and  C_20 
REMARK    8  A    between atoms: C_20  and  C_21 
ROOT
HETATM    1  C   UNL     1      40.395 -12.095  -0.907  1.00  0.00     0.274 C 
HETATM    2  N   UNL     1      40.576 -12.490   0.428  1.00  0.00    -0.347 N 
HETATM    3  C   UNL     1      39.611 -13.236   1.236  1.00  0.00     0.127 C 
HETATM    4  C   UNL     1      40.261 -14.488   1.818  1.00  0.00     0.037 C 
HETATM    5  C   UNL     1      41.547 -14.177   2.615  1.00  0.00     0.019 C 
HETATM    6  C   UNL     1      41.284 -13.445   3.992  1.00  0.00     0.162 C 
HETATM    7  C   UNL     1      42.160 -14.160   5.075  1.00  0.00     0.148 C 
HETATM    8  C   UNL     1      42.519 -15.460   4.417  1.00  0.00    -0.026 A 
HETATM    9  C   UNL     1      42.220 -15.464   3.056  1.00  0.00    -0.038 A 
HETATM   10  C   UNL     1      43.130 -16.553   5.023  1.00  0.00     0.010 A 
HETATM   11  C   UNL     1      43.454 -17.662   4.240  1.00  0.00     0.001 A 
HETATM   12  C   UNL     1      43.174 -17.663   2.870  1.00  0.00     0.001 A 
HETATM   13  C   UNL     1      42.555 -16.563   2.271  1.00  0.00     0.009 A 
HETATM   14  C   UNL     1      42.505 -13.355   1.722  1.00  0.00     0.037 C 
HETATM   15  C   UNL     1      41.817 -12.133   1.109  1.00  0.00     0.127 C 
HETATM   16  O   UNL     1      41.343 -11.678  -1.576  1.00  0.00    -0.266 OA
ENDROOT
BRANCH   6  17
HETATM   17  O   UNL     1      39.884 -13.529   4.336  1.00  0.00    -0.380 OA
BRANCH  17  18
HETATM   18  C   UNL     1      39.378 -12.321   4.912  1.00  0.00     0.194 C 
BRANCH  18  19
HETATM   19  C   UNL     1      40.016 -11.123   4.215  1.00  0.00     0.193 C 
BRANCH  19  20
HETATM   20  O   UNL     1      39.078 -10.048   4.166  1.00  0.00    -0.394 OA
HETATM   21  C   UNL     1      38.309  -9.966   5.357  1.00  0.00     0.201 C 
ENDBRANCH  19  20
ENDBRANCH  18  19
ENDBRANCH  17  18
ENDBRANCH   6  17
BRANCH   7  22
HETATM   22  N   UNL     1      43.375 -13.454   5.452  1.00  0.00    -0.350 N 
HETATM   23  C   UNL     1      43.348 -12.394   6.324  1.00  0.00     0.221 C 
HETATM   24  O   UNL     1      42.309 -11.829   6.654  1.00  0.00    -0.273 OA
HETATM   25  H   UNL     1      44.247 -13.951   5.326  1.00  0.00     0.163 HD
BRANCH  23  26
HETATM   26  C   UNL     1      44.695 -11.992   6.913  1.00  0.00     0.070 C 
HETATM   27  C   UNL     1      45.573 -11.362   5.834  1.00  0.00     0.019 C 
HETATM   28  C   UNL     1      44.547 -11.071   8.120  1.00  0.00     0.019 C 
ENDBRANCH  23  26
ENDBRANCH   7  22
BRANCH   1  29
HETATM   29  C   UNL     1      39.069 -12.203  -1.537  1.00  0.00     0.154 A 
HETATM   30  N   UNL     1      38.452 -13.369  -1.795  1.00  0.00    -0.123 NA
HETATM   31  O   UNL     1      37.240 -13.048  -2.373  1.00  0.00    -0.217 OA
HETATM   32  C   UNL     1      37.097 -11.697  -2.417  1.00  0.00     0.084 A 
HETATM   33  C   UNL     1      38.218 -11.115  -1.877  1.00  0.00     0.075 A 
BRANCH  32  34
HETATM   34  C   UNL     1      35.841 -11.159  -3.012  1.00  0.00     0.037 C 
HETATM   35  C   UNL     1      35.125 -12.207  -3.863  1.00  0.00     0.016 C 
HETATM   36  C   UNL     1      36.126  -9.900  -3.831  1.00  0.00     0.016 C 
ENDBRANCH  32  34
ENDBRANCH   1  29
TORSDOF 8
ENDMDL
MODEL 4
REMARK VINA RESULT:      -7.7      2.281      8.640
REMARK  8 active torsions:
REMARK  status: ('A' for Active; 'I' for Inactive)
REMARK    1  A    between atoms: C_2  and  C_3 
REMARK    2  A    between atoms: C_6  and  C_7 
REMARK       I    between atoms: C_7  and  N_8 
REMARK    3  A    between atoms: C_12  and  O_13 
REMARK    4  A    between atoms: O_13  and  C_14 
REMARK    5  A    between atoms: C_14  and  C_15 
REMARK    6  A    between atoms: C_15  and  O_16 
REMARK    7  A    between atoms: C_18  and  N_19 
REMARK       I    between atoms: N_19  and  C_20 
REMARK    8  A    between atoms: C_20  and  C_21 
ROOT
HETATM    1  C   UNL     1      41.141 -15.714   5.134  1.00  0.00     0.274 C 
HETATM    2  N   UNL     1      41.579 -14.384   5.233  1.00  0.00    -0.347 N 
HETATM    3  C   UNL     1      42.526 -13.727   4.331  1.00  0.00     0.127 C 
HETATM    4  C   UNL     1      41.922 -12.442   3.772  1.00  0.00     0.037 C 
HETATM    5  C   UNL     1      41.434 -11.482   4.878  1.00  0.00     0.019 C 
HETATM    6  C   UNL     1      42.604 -10.798   5.693  1.00  0.00     0.162 C 
HETATM    7  C   UNL     1      42.260  -9.276   5.817  1.00  0.00     0.148 C 
HETATM    8  C   UNL     1      41.212  -9.079   4.761  1.00  0.00    -0.026 A 
HETATM    9  C   UNL     1      40.725 -10.287   4.266  1.00  0.00    -0.038 A 
HETATM   10  C   UNL     1      40.702  -7.862   4.319  1.00  0.00     0.010 A 
HETATM   11  C   UNL     1      39.678  -7.866   3.372  1.00  0.00     0.001 A 
HETATM   12  C   UNL     1      39.172  -9.076   2.886  1.00  0.00     0.001 A 
HETATM   13  C   UNL     1      39.694 -10.293   3.332  1.00  0.00     0.009 A 
HETATM   14  C   UNL     1      40.472 -12.245   5.818  1.00  0.00     0.037 C 
HETATM   15  C   UNL     1      41.080 -13.555   6.326  1.00  0.00     0.127 C 
HETATM   16  O   UNL     1      40.176 -16.112   5.791  1.00  0.00    -0.266 OA
ENDROOT
BRANCH   6  17
HETATM   17  O   UNL     1      43.858 -10.981   5.002  1.00  0.00    -0.380 OA
BRANCH  17  18
HETATM   18  C   UNL     1      44.923 -11.375   5.873  1.00  0.00     0.194 C 
BRANCH  18  19
HETATM   19  C   UNL     1      44.338 -11.920   7.172  1.00  0.00     0.193 C 
BRANCH  19  20
HETATM   20  O   UNL     1      45.066 -11.390   8.279  1.00  0.00    -0.394 OA
HETATM   21  C   UNL     1      46.055 -10.460   7.862  1.00  0.00     0.201 C 
ENDBRANCH  19  20
ENDBRANCH  18  19
ENDBRANCH  17  18
ENDBRANCH   6  17
BRANCH   7  22
HETATM   22  N   UNL     1      41.732  -8.864   7.109  1.00  0.00    -0.350 N 
HETATM   23  C   UNL     1      42.475  -8.105   7.978  1.00  0.00     0.221 C 
HETATM   24  O   UNL     1      43.680  -7.923   7.841  1.00  0.00    -0.273 OA
HETATM   25  H   UNL     1      40.725  -8.865   7.210  1.00  0.00     0.163 HD
BRANCH  23  26
HETATM   26  C   UNL     1      41.692  -7.442   9.106  1.00  0.00     0.070 C 
HETATM   27  C   UNL     1      42.370  -6.137   9.519  1.00  0.00     0.019 C 
HETATM   28  C   UNL     1      40.228  -7.218   8.741  1.00  0.00     0.019 C 
ENDBRANCH  23  26
ENDBRANCH   7  22
BRANCH   1  29
HETATM   29  C   UNL     1      41.814 -16.648   4.216  1.00  0.00     0.154 A 
HETATM   30  N   UNL     1      41.589 -16.695   2.893  1.00  0.00    -0.123 NA
HETATM   31  O   UNL     1      42.412 -17.685   2.393  1.00  0.00    -0.217 OA
HETATM   32  C   UNL     1      43.171 -18.198   3.396  1.00  0.00     0.084 A 
HETATM   33  C   UNL     1      42.849 -17.559   4.567  1.00  0.00     0.075 A 
BRANCH  32  34
HETATM   34  C   UNL     1      44.128 -19.286   3.043  1.00  0.00     0.037 C 
HETATM   35  C   UNL     1      43.583 -20.179   1.930  1.00  0.00     0.016 C 
HETATM   36  C   UNL     1      44.482 -20.115   4.278  1.00  0.00     0.016 C 
ENDBRANCH  32  34
ENDBRANCH   1  29
TORSDOF 8
ENDMDL
MODEL 5
REMARK VINA RESULT:      -7.5      5.278      9.230
REMARK  8 active torsions:
REMARK  status: ('A' for Active; 'I' for Inactive)
REMARK    1  A    between atoms: C_2  and  C_3 
REMARK    2  A    between atoms: C_6  and  C_7 
REMARK       I    between atoms: C_7  and  N_8 
REMARK    3  A    between atoms: C_12  and  O_13 
REMARK    4  A    between atoms: O_13  and  C_14 
REMARK    5  A    between atoms: C_14  and  C_15 
REMARK    6  A    between atoms: C_15  and  O_16 
REMARK    7  A    between atoms: C_18  and  N_19 
REMARK       I    between atoms: N_19  and  C_20 
REMARK    8  A    between atoms: C_20  and  C_21 
ROOT
HETATM    1  C   UNL     1      42.494 -13.719   3.567  1.00  0.00     0.274 C 
HETATM    2  N   UNL     1      42.022 -13.151   2.373  1.00  0.00    -0.347 N 
HETATM    3  C   UNL     1      41.389 -13.879   1.272  1.00  0.00     0.127 C 
HETATM    4  C   UNL     1      40.034 -13.263   0.937  1.00  0.00     0.037 C 
HETATM    5  C   UNL     1      40.125 -11.750   0.638  1.00  0.00     0.019 C 
HETATM    6  C   UNL     1      40.828 -11.411  -0.737  1.00  0.00     0.162 C 
HETATM    7  C   UNL     1      39.952 -10.333  -1.457  1.00  0.00     0.148 C 
HETATM    8  C   UNL     1      38.642 -10.420  -0.729  1.00  0.00    -0.026 A 
HETATM    9  C   UNL     1      38.737 -11.166   0.444  1.00  0.00    -0.038 A 
HETATM   10  C   UNL     1      37.448  -9.807  -1.098  1.00  0.00     0.010 A 
HETATM   11  C   UNL     1      36.338  -9.941  -0.264  1.00  0.00     0.001 A 
HETATM   12  C   UNL     1      36.433 -10.672   0.924  1.00  0.00     0.001 A 
HETATM   13  C   UNL     1      37.634 -11.288   1.284  1.00  0.00     0.009 A 
HETATM   14  C   UNL     1      40.836 -11.046   1.817  1.00  0.00     0.037 C 
HETATM   15  C   UNL     1      42.169 -11.713   2.167  1.00  0.00     0.127 C 
HETATM   16  O   UNL     1      42.798 -13.008   4.527  1.00  0.00    -0.266 OA
ENDROOT
BRANCH   6  17
HETATM   17  O   UNL     1      40.932 -12.604  -1.544  1.00  0.00    -0.380 OA
BRANCH  17  18
HETATM   18  C   UNL     1      40.429 -12.424  -2.871  1.00  0.00     0.194 C 
BRANCH  18  19
HETATM   19  C   UNL     1      39.446 -13.546  -3.195  1.00  0.00     0.193 C 
BRANCH  19  20
HETATM   20  O   UNL     1      38.467 -13.631  -2.161  1.00  0.00    -0.394 OA
HETATM   21  C   UNL     1      37.182 -13.234  -2.618  1.00  0.00     0.201 C 
ENDBRANCH  19  20
ENDBRANCH  18  19
ENDBRANCH  17  18
ENDBRANCH   6  17
BRANCH   7  22
HETATM   22  N   UNL     1      40.460  -8.972  -1.383  1.00  0.00    -0.350 N 
HETATM   23  C   UNL     1      40.977  -8.338  -2.485  1.00  0.00     0.221 C 
HETATM   24  O   UNL     1      41.260  -8.929  -3.522  1.00  0.00    -0.273 OA
HETATM   25  H   UNL     1      40.131  -8.405  -0.612  1.00  0.00     0.163 HD
BRANCH  23  26
HETATM   26  C   UNL     1      41.125  -6.826  -2.365  1.00  0.00     0.070 C 
HETATM   27  C   UNL     1      40.663  -6.361  -0.985  1.00  0.00     0.019 C 
HETATM   28  C   UNL     1      42.545  -6.357  -2.665  1.00  0.00     0.019 C 
ENDBRANCH  23  26
ENDBRANCH   7  22
BRANCH   1  29
HETATM   29  C   UNL     1      42.602 -15.181   3.698  1.00  0.00     0.154 A 
HETATM   30  N   UNL     1      41.728 -15.943   4.377  1.00  0.00    -0.123 NA
HETATM   31  O   UNL     1      42.170 -17.245   4.255  1.00  0.00    -0.217 OA
HETATM   32  C   UNL     1      43.273 -17.282   3.463  1.00  0.00     0.084 A 
HETATM   33  C   UNL     1      43.574 -16.004   3.063  1.00  0.00     0.075 A 
BRANCH  32  34
HETATM   34  C   UNL     1      43.894 -18.614   3.214  1.00  0.00     0.037 C 
HETATM   35  C   UNL     1      43.116 -19.415   2.170  1.00  0.00     0.016 C 
HETATM   36  C   UNL     1      44.019 -19.403   4.518  1.00  0.00     0.016 C 
ENDBRANCH  32  34
ENDBRANCH   1  29
TORSDOF 8
ENDMDL
MODEL 6
REMARK VINA RESULT:      -7.4      2.659      9.883
REMARK  8 active torsions:
REMARK  status: ('A' for Active; 'I' for Inactive)
REMARK    1  A    between atoms: C_2  and  C_3 
REMARK    2  A    between atoms: C_6  and  C_7 
REMARK       I    between atoms: C_7  and  N_8 
REMARK    3  A    between atoms: C_12  and  O_13 
REMARK    4  A    between atoms: O_13  and  C_14 
REMARK    5  A    between atoms: C_14  and  C_15 
REMARK    6  A    between atoms: C_15  and  O_16 
REMARK    7  A    between atoms: C_18  and  N_19 
REMARK       I    between atoms: N_19  and  C_20 
REMARK    8  A    between atoms: C_20  and  C_21 
ROOT
HETATM    1  C   UNL     1      44.831 -10.778   7.496  1.00  0.00     0.274 C 
HETATM    2  N   UNL     1      44.034  -9.764   8.050  1.00  0.00    -0.347 N 
HETATM    3  C   UNL     1      42.583  -9.821   8.233  1.00  0.00     0.127 C 
HETATM    4  C   UNL     1      42.218  -9.532   9.686  1.00  0.00     0.037 C 
HETATM    5  C   UNL     1      42.801  -8.194  10.192  1.00  0.00     0.019 C 
HETATM    6  C   UNL     1      42.106  -6.918   9.568  1.00  0.00     0.162 C 
HETATM    7  C   UNL     1      41.826  -5.919  10.740  1.00  0.00     0.148 C 
HETATM    8  C   UNL     1      41.951  -6.784  11.960  1.00  0.00    -0.026 A 
HETATM    9  C   UNL     1      42.521  -8.023  11.674  1.00  0.00    -0.038 A 
HETATM   10  C   UNL     1      41.608  -6.433  13.262  1.00  0.00     0.010 A 
HETATM   11  C   UNL     1      41.854  -7.342  14.291  1.00  0.00     0.001 A 
HETATM   12  C   UNL     1      42.444  -8.579  14.012  1.00  0.00     0.001 A 
HETATM   13  C   UNL     1      42.780  -8.925  12.701  1.00  0.00     0.009 A 
HETATM   14  C   UNL     1      44.326  -8.181   9.935  1.00  0.00     0.037 C 
HETATM   15  C   UNL     1      44.669  -8.522   8.483  1.00  0.00     0.127 C 
HETATM   16  O   UNL     1      46.059 -10.740   7.593  1.00  0.00    -0.266 OA
ENDROOT
BRANCH   6  17
HETATM   17  O   UNL     1      40.874  -7.296   8.918  1.00  0.00    -0.380 OA
BRANCH  17  18
HETATM   18  C   UNL     1      40.703  -6.674   7.641  1.00  0.00     0.194 C 
BRANCH  18  19
HETATM   19  C   UNL     1      42.027  -6.058   7.198  1.00  0.00     0.193 C 
BRANCH  19  20
HETATM   20  O   UNL     1      42.106  -6.077   5.774  1.00  0.00    -0.394 OA
HETATM   21  C   UNL     1      41.332  -7.130   5.217  1.00  0.00     0.201 C 
ENDBRANCH  19  20
ENDBRANCH  18  19
ENDBRANCH  17  18
ENDBRANCH   6  17
BRANCH   7  22
HETATM   22  N   UNL     1      42.756  -4.804  10.838  1.00  0.00    -0.350 N 
HETATM   23  C   UNL     1      42.425  -3.552  10.382  1.00  0.00     0.221 C 
HETATM   24  O   UNL     1      41.450  -3.339   9.668  1.00  0.00    -0.273 OA
HETATM   25  H   UNL     1      43.494  -4.886  11.525  1.00  0.00     0.163 HD
BRANCH  23  26
HETATM   26  C   UNL     1      43.317  -2.417  10.870  1.00  0.00     0.070 C 
HETATM   27  C   UNL     1      42.921  -1.108  10.190  1.00  0.00     0.019 C 
HETATM   28  C   UNL     1      43.303  -2.282  12.390  1.00  0.00     0.019 C 
ENDBRANCH  23  26
ENDBRANCH   7  22
BRANCH   1  29
HETATM   29  C   UNL     1      44.203 -11.922   6.814  1.00  0.00     0.154 A 
HETATM   30  N   UNL     1      43.862 -13.068   7.427  1.00  0.00    -0.123 NA
HETATM   31  O   UNL     1      43.300 -13.875   6.458  1.00  0.00    -0.217 OA
HETATM   32  C   UNL     1      43.250 -13.205   5.277  1.00  0.00     0.084 A 
HETATM   33  C   UNL     1      43.787 -11.954   5.454  1.00  0.00     0.075 A 
BRANCH  32  34
HETATM   34  C   UNL     1      42.669 -13.922   4.106  1.00  0.00     0.037 C 
HETATM   35  C   UNL     1      42.963 -15.421   4.159  1.00  0.00     0.016 C 
HETATM   36  C   UNL     1      43.175 -13.317   2.797  1.00  0.00     0.016 C 
ENDBRANCH  32  34
ENDBRANCH   1  29
TORSDOF 8
ENDMDL
MODEL 7
REMARK VINA RESULT:      -7.4      3.326      8.287
REMARK  8 active torsions:
REMARK  status: ('A' for Active; 'I' for Inactive)
REMARK    1  A    between atoms: C_2  and  C_3 
REMARK    2  A    between atoms: C_6  and  C_7 
REMARK       I    between atoms: C_7  and  N_8 
REMARK    3  A    between atoms: C_12  and  O_13 
REMARK    4  A    between atoms: O_13  and  C_14 
REMARK    5  A    between atoms: C_14  and  C_15 
REMARK    6  A    between atoms: C_15  and  O_16 
REMARK    7  A    between atoms: C_18  and  N_19 
REMARK       I    between atoms: N_19  and  C_20 
REMARK    8  A    between atoms: C_20  and  C_21 
ROOT
HETATM    1  C   UNL     1      41.140 -10.915   0.548  1.00  0.00     0.274 C 
HETATM    2  N   UNL     1      41.300 -11.265   1.898  1.00  0.00    -0.347 N 
HETATM    3  C   UNL     1      40.300 -11.932   2.732  1.00  0.00     0.127 C 
HETATM    4  C   UNL     1      40.889 -13.189   3.365  1.00  0.00     0.037 C 
HETATM    5  C   UNL     1      42.187 -12.908   4.153  1.00  0.00     0.019 C 
HETATM    6  C   UNL     1      41.958 -12.112   5.499  1.00  0.00     0.162 C 
HETATM    7  C   UNL     1      42.798 -12.824   6.611  1.00  0.00     0.148 C 
HETATM    8  C   UNL     1      43.095 -14.165   6.006  1.00  0.00    -0.026 A 
HETATM    9  C   UNL     1      42.798 -14.208   4.645  1.00  0.00    -0.038 A 
HETATM   10  C   UNL     1      43.653 -15.261   6.656  1.00  0.00     0.010 A 
HETATM   11  C   UNL     1      43.924 -16.414   5.919  1.00  0.00     0.001 A 
HETATM   12  C   UNL     1      43.645 -16.456   4.549  1.00  0.00     0.001 A 
HETATM   13  C   UNL     1      43.080 -15.352   3.906  1.00  0.00     0.009 A 
HETATM   14  C   UNL     1      43.185 -12.170   3.230  1.00  0.00     0.037 C 
HETATM   15  C   UNL     1      42.556 -10.941   2.568  1.00  0.00     0.127 C 
HETATM   16  O   UNL     1      42.107 -10.570  -0.134  1.00  0.00    -0.266 OA
ENDROOT
BRANCH   6  17
HETATM   17  O   UNL     1      40.556 -12.115   5.842  1.00  0.00    -0.380 OA
BRANCH  17  18
HETATM   18  C   UNL     1      40.037 -10.803   6.080  1.00  0.00     0.194 C 
BRANCH  18  19
HETATM   19  C   UNL     1      39.112 -10.839   7.293  1.00  0.00     0.193 C 
BRANCH  19  20
HETATM   20  O   UNL     1      38.964  -9.519   7.815  1.00  0.00    -0.394 OA
HETATM   21  C   UNL     1      39.256  -8.530   6.838  1.00  0.00     0.201 C 
ENDBRANCH  19  20
ENDBRANCH  18  19
ENDBRANCH  17  18
ENDBRANCH   6  17
BRANCH   7  22
HETATM   22  N   UNL     1      44.045 -12.163   6.964  1.00  0.00    -0.350 N 
HETATM   23  C   UNL     1      44.065 -11.051   7.770  1.00  0.00     0.221 C 
HETATM   24  O   UNL     1      43.055 -10.413   8.050  1.00  0.00    -0.273 OA
HETATM   25  H   UNL     1      44.890 -12.712   6.882  1.00  0.00     0.163 HD
BRANCH  23  26
HETATM   26  C   UNL     1      45.425 -10.687   8.355  1.00  0.00     0.070 C 
HETATM   27  C   UNL     1      46.496 -10.745   7.267  1.00  0.00     0.019 C 
HETATM   28  C   UNL     1      45.411  -9.331   9.053  1.00  0.00     0.019 C 
ENDBRANCH  23  26
ENDBRANCH   7  22
BRANCH   1  29
HETATM   29  C   UNL     1      39.811 -10.985  -0.081  1.00  0.00     0.154 A 
HETATM   30  N   UNL     1      38.902  -9.997  -0.031  1.00  0.00    -0.123 NA
HETATM   31  O   UNL     1      37.804 -10.441  -0.741  1.00  0.00    -0.217 OA
HETATM   32  C   UNL     1      38.065 -11.667  -1.267  1.00  0.00     0.084 A 
HETATM   33  C   UNL     1      39.332 -12.046  -0.899  1.00  0.00     0.075 A 
BRANCH  32  34
HETATM   34  C   UNL     1      36.989 -12.310  -2.074  1.00  0.00     0.037 C 
HETATM   35  C   UNL     1      37.498 -13.550  -2.808  1.00  0.00     0.016 C 
HETATM   36  C   UNL     1      36.382 -11.310  -3.058  1.00  0.00     0.016 C 
ENDBRANCH  32  34
ENDBRANCH   1  29
TORSDOF 8
ENDMDL
MODEL 8
REMARK VINA RESULT:      -7.2      2.617      8.400
REMARK  8 active torsions:
REMARK  status: ('A' for Active; 'I' for Inactive)
REMARK    1  A    between atoms: C_2  and  C_3 
REMARK    2  A    between atoms: C_6  and  C_7 
REMARK       I    between atoms: C_7  and  N_8 
REMARK    3  A    between atoms: C_12  and  O_13 
REMARK    4  A    between atoms: O_13  and  C_14 
REMARK    5  A    between atoms: C_14  and  C_15 
REMARK    6  A    between atoms: C_15  and  O_16 
REMARK    7  A    between atoms: C_18  and  N_19 
REMARK       I    between atoms: N_19  and  C_20 
REMARK    8  A    between atoms: C_20  and  C_21 
ROOT
HETATM    1  C   UNL     1      41.014 -15.627   6.124  1.00  0.00     0.274 C 
HETATM    2  N   UNL     1      41.261 -14.253   5.979  1.00  0.00    -0.347 N 
HETATM    3  C   UNL     1      42.495 -13.656   5.466  1.00  0.00     0.127 C 
HETATM    4  C   UNL     1      42.187 -12.712   4.307  1.00  0.00     0.037 C 
HETATM    5  C   UNL     1      41.147 -11.632   4.677  1.00  0.00     0.019 C 
HETATM    6  C   UNL     1      41.694 -10.533   5.673  1.00  0.00     0.162 C 
HETATM    7  C   UNL     1      41.247  -9.138   5.120  1.00  0.00     0.148 C 
HETATM    8  C   UNL     1      40.876  -9.441   3.698  1.00  0.00    -0.026 A 
HETATM    9  C   UNL     1      40.782 -10.810   3.455  1.00  0.00    -0.038 A 
HETATM   10  C   UNL     1      40.592  -8.512   2.701  1.00  0.00     0.010 A 
HETATM   11  C   UNL     1      40.197  -8.972   1.445  1.00  0.00     0.001 A 
HETATM   12  C   UNL     1      40.083 -10.345   1.201  1.00  0.00     0.001 A 
HETATM   13  C   UNL     1      40.375 -11.271   2.207  1.00  0.00     0.009 A 
HETATM   14  C   UNL     1      39.887 -12.323   5.248  1.00  0.00     0.037 C 
HETATM   15  C   UNL     1      40.226 -13.302   6.375  1.00  0.00     0.127 C 
HETATM   16  O   UNL     1      39.875 -16.044   6.342  1.00  0.00    -0.266 OA
ENDROOT
BRANCH   6  17
HETATM   17  O   UNL     1      43.134 -10.610   5.750  1.00  0.00    -0.380 OA
BRANCH  17  18
HETATM   18  C   UNL     1      43.633 -10.426   7.078  1.00  0.00     0.194 C 
BRANCH  18  19
HETATM   19  C   UNL     1      44.952 -11.176   7.230  1.00  0.00     0.193 C 
BRANCH  19  20
HETATM   20  O   UNL     1      45.360 -11.146   8.597  1.00  0.00    -0.394 OA
HETATM   21  C   UNL     1      45.344  -9.827   9.122  1.00  0.00     0.201 C 
ENDBRANCH  19  20
ENDBRANCH  18  19
ENDBRANCH  17  18
ENDBRANCH   6  17
BRANCH   7  22
HETATM   22  N   UNL     1      40.110  -8.538   5.802  1.00  0.00    -0.350 N 
HETATM   23  C   UNL     1      40.103  -7.212   6.155  1.00  0.00     0.221 C 
HETATM   24  O   UNL     1      41.111  -6.513   6.137  1.00  0.00    -0.273 OA
HETATM   25  H   UNL     1      39.223  -9.018   5.715  1.00  0.00     0.163 HD
BRANCH  23  26
HETATM   26  C   UNL     1      38.740  -6.634   6.516  1.00  0.00     0.070 C 
HETATM   27  C   UNL     1      38.526  -6.698   8.027  1.00  0.00     0.019 C 
HETATM   28  C   UNL     1      38.553  -5.216   5.985  1.00  0.00     0.019 C 
ENDBRANCH  23  26
ENDBRANCH   7  22
BRANCH   1  29
HETATM   29  C   UNL     1      42.115 -16.595   5.987  1.00  0.00     0.154 A 
HETATM   30  N   UNL     1      42.851 -17.048   7.015  1.00  0.00    -0.123 NA
HETATM   31  O   UNL     1      43.763 -17.935   6.480  1.00  0.00    -0.217 OA
HETATM   32  C   UNL     1      43.547 -18.064   5.144  1.00  0.00     0.084 A 
HETATM   33  C   UNL     1      42.498 -17.254   4.785  1.00  0.00     0.075 A 
BRANCH  32  34
HETATM   34  C   UNL     1      44.441 -18.989   4.390  1.00  0.00     0.037 C 
HETATM   35  C   UNL     1      44.082 -19.036   2.905  1.00  0.00     0.016 C 
HETATM   36  C   UNL     1      44.405 -20.390   5.000  1.00  0.00     0.016 C 
ENDBRANCH  32  34
ENDBRANCH   1  29
TORSDOF 8
ENDMDL
MODEL 9
REMARK VINA RESULT:      -7.1      3.080      8.806
REMARK  8 active torsions:
REMARK  status: ('A' for Active; 'I' for Inactive)
REMARK    1  A    between atoms: C_2  and  C_3 
REMARK    2  A    between atoms: C_6  and  C_7 
REMARK       I    between atoms: C_7  and  N_8 
REMARK    3  A    between atoms: C_12  and  O_13 
REMARK    4  A    between atoms: O_13  and  C_14 
REMARK    5  A    between atoms: C_14  and  C_15 
REMARK    6  A    between atoms: C_15  and  O_16 
REMARK    7  A    between atoms: C_18  and  N_19 
REMARK       I    between atoms: N_19  and  C_20 
REMARK    8  A    between atoms: C_20  and  C_21 
ROOT
HETATM    1  C   UNL     1      40.554 -14.873   2.834  1.00  0.00     0.274 C 
HETATM    2  N   UNL     1      40.814 -13.607   3.381  1.00  0.00    -0.347 N 
HETATM    3  C   UNL     1      42.123 -12.957   3.447  1.00  0.00     0.127 C 
HETATM    4  C   UNL     1      42.061 -11.571   2.809  1.00  0.00     0.037 C 
HETATM    5  C   UNL     1      40.955 -10.683   3.420  1.00  0.00     0.019 C 
HETATM    6  C   UNL     1      41.267 -10.197   4.892  1.00  0.00     0.162 C 
HETATM    7  C   UNL     1      40.935  -8.668   4.959  1.00  0.00     0.148 C 
HETATM    8  C   UNL     1      40.879  -8.270   3.514  1.00  0.00    -0.026 A 
HETATM    9  C   UNL     1      40.851  -9.372   2.662  1.00  0.00    -0.038 A 
HETATM   10  C   UNL     1      40.806  -6.973   3.015  1.00  0.00     0.010 A 
HETATM   11  C   UNL     1      40.692  -6.787   1.637  1.00  0.00     0.001 A 
HETATM   12  C   UNL     1      40.645  -7.890   0.779  1.00  0.00     0.001 A 
HETATM   13  C   UNL     1      40.725  -9.189   1.288  1.00  0.00     0.009 A 
HETATM   14  C   UNL     1      39.609 -11.441   3.357  1.00  0.00     0.037 C 
HETATM   15  C   UNL     1      39.709 -12.845   3.957  1.00  0.00     0.127 C 
HETATM   16  O   UNL     1      39.399 -15.241   2.612  1.00  0.00    -0.266 OA
ENDROOT
BRANCH   6  17
HETATM   17  O   UNL     1      42.658 -10.428   5.204  1.00  0.00    -0.380 OA
BRANCH  17  18
HETATM   18  C   UNL     1      42.897 -10.589   6.605  1.00  0.00     0.194 C 
BRANCH  18  19
HETATM   19  C   UNL     1      43.615 -11.913   6.845  1.00  0.00     0.193 C 
BRANCH  19  20
HETATM   20  O   UNL     1      44.524 -11.769   7.936  1.00  0.00    -0.394 OA
HETATM   21  C   UNL     1      45.613 -10.920   7.605  1.00  0.00     0.201 C 
ENDBRANCH  19  20
ENDBRANCH  18  19
ENDBRANCH  17  18
ENDBRANCH   6  17
BRANCH   7  22
HETATM   22  N   UNL     1      39.673  -8.338   5.604  1.00  0.00    -0.350 N 
HETATM   23  C   UNL     1      39.631  -7.615   6.771  1.00  0.00     0.221 C 
HETATM   24  O   UNL     1      40.624  -7.405   7.460  1.00  0.00    -0.273 OA
HETATM   25  H   UNL     1      38.845  -8.361   5.023  1.00  0.00     0.163 HD
BRANCH  23  26
HETATM   26  C   UNL     1      38.271  -7.029   7.133  1.00  0.00     0.070 C 
HETATM   27  C   UNL     1      38.443  -5.875   8.118  1.00  0.00     0.019 C 
HETATM   28  C   UNL     1      37.480  -6.599   5.902  1.00  0.00     0.019 C 
ENDBRANCH  23  26
ENDBRANCH   7  22
BRANCH   1  29
HETATM   29  C   UNL     1      41.668 -15.772   2.488  1.00  0.00     0.154 A 
HETATM   30  N   UNL     1      42.459 -15.609   1.414  1.00  0.00    -0.123 NA
HETATM   31  O   UNL     1      43.377 -16.641   1.448  1.00  0.00    -0.217 OA
HETATM   32  C   UNL     1      43.181 -17.392   2.563  1.00  0.00     0.084 A 
HETATM   33  C   UNL     1      42.126 -16.869   3.269  1.00  0.00     0.075 A 
BRANCH  32  34
HETATM   34  C   UNL     1      44.085 -18.558   2.772  1.00  0.00     0.037 C 
HETATM   35  C   UNL     1      43.479 -19.849   2.224  1.00  0.00     0.016 C 
HETATM   36  C   UNL     1      44.436 -18.711   4.253  1.00  0.00     0.016 C 
ENDBRANCH  32  34
ENDBRANCH   1  29
TORSDOF 8
ENDMDL
MODEL 10
REMARK VINA RESULT:      -7.1     18.479     20.868
REMARK  8 active torsions:
REMARK  status: ('A' for Active; 'I' for Inactive)
REMARK    1  A    between atoms: C_2  and  C_3 
REMARK    2  A    between atoms: C_6  and  C_7 
REMARK       I    between atoms: C_7  and  N_8 
REMARK    3  A    between atoms: C_12  and  O_13 
REMARK    4  A    between atoms: O_13  and  C_14 
REMARK    5  A    between atoms: C_14  and  C_15 
REMARK    6  A    between atoms: C_15  and  O_16 
REMARK    7  A    between atoms: C_18  and  N_19 
REMARK       I    between atoms: N_19  and  C_20 
REMARK    8  A    between atoms: C_20  and  C_21 
ROOT
HETATM    1  C   UNL     1      40.991 -31.144   5.070  1.00  0.00     0.274 C 
HETATM    2  N   UNL     1      41.928 -31.190   4.026  1.00  0.00    -0.347 N 
HETATM    3  C   UNL     1      43.145 -32.003   4.007  1.00  0.00     0.127 C 
HETATM    4  C   UNL     1      43.186 -32.869   2.751  1.00  0.00     0.037 C 
HETATM    5  C   UNL     1      43.034 -32.045   1.453  1.00  0.00     0.019 C 
HETATM    6  C   UNL     1      44.296 -31.158   1.108  1.00  0.00     0.162 C 
HETATM    7  C   UNL     1      44.603 -31.354  -0.414  1.00  0.00     0.148 C 
HETATM    8  C   UNL     1      43.840 -32.600  -0.756  1.00  0.00    -0.026 A 
HETATM    9  C   UNL     1      42.947 -32.966   0.249  1.00  0.00    -0.038 A 
HETATM   10  C   UNL     1      43.926 -33.324  -1.941  1.00  0.00     0.010 A 
HETATM   11  C   UNL     1      43.090 -34.427  -2.118  1.00  0.00     0.001 A 
HETATM   12  C   UNL     1      42.178 -34.787  -1.120  1.00  0.00     0.001 A 
HETATM   13  C   UNL     1      42.103 -34.057   0.069  1.00  0.00     0.009 A 
HETATM   14  C   UNL     1      41.755 -31.181   1.553  1.00  0.00     0.037 C 
HETATM   15  C   UNL     1      41.714 -30.360   2.844  1.00  0.00     0.127 C 
HETATM   16  O   UNL     1      39.889 -30.616   4.905  1.00  0.00    -0.266 OA
ENDROOT
BRANCH   6  17
HETATM   17  O   UNL     1      45.423 -31.570   1.911  1.00  0.00    -0.380 OA
BRANCH  17  18
HETATM   18  C   UNL     1      46.461 -30.587   1.963  1.00  0.00     0.194 C 
BRANCH  18  19
HETATM   19  C   UNL     1      45.947 -29.347   2.688  1.00  0.00     0.193 C 
BRANCH  19  20
HETATM   20  O   UNL     1      46.587 -28.188   2.159  1.00  0.00    -0.394 OA
HETATM   21  C   UNL     1      47.130 -28.429   0.868  1.00  0.00     0.201 C 
ENDBRANCH  19  20
ENDBRANCH  18  19
ENDBRANCH  17  18
ENDBRANCH   6  17
BRANCH   7  22
HETATM   22  N   UNL     1      44.170 -30.266  -1.278  1.00  0.00    -0.350 N 
HETATM   23  C   UNL     1      44.982 -29.768  -2.266  1.00  0.00     0.221 C 
HETATM   24  O   UNL     1      46.179 -30.029  -2.340  1.00  0.00    -0.273 OA
HETATM   25  H   UNL     1      43.173 -30.115  -1.353  1.00  0.00     0.163 HD
BRANCH  23  26
HETATM   26  C   UNL     1      44.288 -28.909  -3.317  1.00  0.00     0.070 C 
HETATM   27  C   UNL     1      45.169 -27.717  -3.686  1.00  0.00     0.019 C 
HETATM   28  C   UNL     1      43.890 -29.712  -4.551  1.00  0.00     0.019 C 
ENDBRANCH  23  26
ENDBRANCH   7  22
BRANCH   1  29
HETATM   29  C   UNL     1      41.302 -31.756   6.372  1.00  0.00     0.154 A 
HETATM   30  N   UNL     1      42.064 -31.174   7.313  1.00  0.00    -0.123 NA
HETATM   31  O   UNL     1      42.108 -32.054   8.377  1.00  0.00    -0.217 OA
HETATM   32  C   UNL     1      41.333 -33.137   8.106  1.00  0.00     0.084 A 
HETATM   33  C   UNL     1      40.780 -32.986   6.859  1.00  0.00     0.075 A 
BRANCH  32  34
HETATM   34  C   UNL     1      41.255 -34.201   9.147  1.00  0.00     0.037 C 
HETATM   35  C   UNL     1      40.710 -33.660  10.469  1.00  0.00     0.016 C 
HETATM   36  C   UNL     1      42.621 -34.856   9.353  1.00  0.00     0.016 C 
ENDBRANCH  32  34
ENDBRANCH   1  29
TORSDOF 8
ENDMDL
