MODEL 1
REMARK VINA RESULT:      -9.1      0.000      0.000
REMARK  9 active torsions:
REMARK  status: ('A' for Active; 'I' for Inactive)
REMARK    1  A    between atoms: C_4  and  C_5 
REMARK    2  A    between atoms: C_13  and  C_14 
REMARK    3  A    between atoms: C_14  and  N_15 
REMARK    4  A    between atoms: C_19  and  C_20 
REMARK       I    between atoms: C_20  and  N_21 
REMARK    5  A    between atoms: N_21  and  C_22 
REMARK    6  A    between atoms: C_22  and  C_23 
REMARK    7  A    between atoms: C_23  and  C_24 
REMARK    8  A    between atoms: C_24  and  N_25 
REMARK    9  A    between atoms: N_29  and  C_30 
ROOT
HETATM    1  N   UNL     1      42.888 -10.805   7.463  1.00  0.00    -0.066 N 
HETATM    2  H   UNL     1      42.842 -11.356   8.334  1.00  0.00     0.280 HD
HETATM    3  C   UNL     1      41.691 -11.204   6.636  1.00  0.00     0.236 C 
HETATM    4  C   UNL     1      41.845 -12.635   6.127  1.00  0.00     0.042 C 
HETATM    5  C   UNL     1      43.133 -12.822   5.324  1.00  0.00     0.081 C 
HETATM    6  C   UNL     1      44.333 -12.409   6.177  1.00  0.00     0.042 C 
HETATM    7  C   UNL     1      44.216 -11.020   6.788  1.00  0.00     0.236 C 
ENDROOT
BRANCH   5   8
HETATM    8  C   UNL     1      43.027 -12.022   4.026  1.00  0.00     0.221 C 
HETATM    9  N   UNL     1      41.834 -12.166   3.356  1.00  0.00    -0.361 N 
HETATM   10  H   UNL     1      41.136 -12.806   3.724  1.00  0.00     0.162 HD
HETATM   11  O   UNL     1      43.890 -11.218   3.682  1.00  0.00    -0.273 OA
BRANCH   9  12
HETATM   12  C   UNL     1      41.416 -11.240   2.318  1.00  0.00     0.124 C 
BRANCH  12  13
HETATM   13  C   UNL     1      40.454 -11.840   1.287  1.00  0.00     0.047 C 
BRANCH  13  14
HETATM   14  C   UNL     1      41.230 -12.706   0.296  1.00  0.00     0.236 C 
BRANCH  14  15
HETATM   15  N   UNL     1      41.168 -14.176   0.649  1.00  0.00    -0.068 N 
HETATM   16  H   UNL     1      40.974 -14.720  -0.203  1.00  0.00     0.280 HD
HETATM   17  C   UNL     1      42.542 -14.656   1.169  1.00  0.00     0.254 C 
HETATM   18  C   UNL     1      42.503 -16.144   1.575  1.00  0.00     0.150 C 
HETATM   19  N   UNL     1      41.410 -16.414   2.524  1.00  0.00    -0.378 N 
HETATM   20  C   UNL     1      40.080 -16.016   2.024  1.00  0.00     0.150 C 
HETATM   21  C   UNL     1      40.067 -14.513   1.671  1.00  0.00     0.254 C 
BRANCH  19  22
HETATM   22  C   UNL     1      41.621 -16.341   3.904  1.00  0.00     0.031 A 
HETATM   23  C   UNL     1      42.888 -16.434   4.498  1.00  0.00     0.053 A 
HETATM   24  C   UNL     1      43.052 -16.346   5.887  1.00  0.00     0.036 A 
HETATM   25 CL   UNL     1      44.637 -16.421   6.554  1.00  0.00    -0.084 Cl
HETATM   26  C   UNL     1      41.958 -16.186   6.725  1.00  0.00     0.024 A 
HETATM   27  C   UNL     1      40.686 -16.126   6.168  1.00  0.00     0.004 A 
HETATM   28  C   UNL     1      40.527 -16.206   4.779  1.00  0.00     0.029 A 
ENDBRANCH  19  22
ENDBRANCH  14  15
ENDBRANCH  13  14
ENDBRANCH  12  13
ENDBRANCH   9  12
ENDBRANCH   5   8
BRANCH   1  29
HETATM   29  C   UNL     1      42.795  -9.356   7.934  1.00  0.00     0.296 C 
BRANCH  29  30
HETATM   30  C   UNL     1      43.194  -9.125   9.344  1.00  0.00     0.092 A 
HETATM   31  C   UNL     1      44.459  -9.123   9.889  1.00  0.00     0.078 A 
HETATM   32  C   UNL     1      45.824  -9.328   9.370  1.00  0.00     0.079 C 
HETATM   33  O   UNL     1      44.335  -8.856  11.218  1.00  0.00    -0.294 OA
HETATM   34  C   UNL     1      42.989  -8.719  11.429  1.00  0.00     0.180 A 
HETATM   35  N   UNL     1      42.260  -8.870  10.332  1.00  0.00    -0.224 NA
BRANCH  34  36
HETATM   36  C   UNL     1      42.576  -8.409  12.796  1.00  0.00     0.017 A 
HETATM   37  C   UNL     1      43.214  -7.405  13.547  1.00  0.00     0.017 A 
HETATM   38  C   UNL     1      42.803  -7.114  14.851  1.00  0.00     0.025 A 
HETATM   39  C   UNL     1      41.748  -7.825  15.418  1.00  0.00     0.034 A 
HETATM   40 CL   UNL     1      41.238  -7.466  17.019  1.00  0.00    -0.084 Cl
HETATM   41  C   UNL     1      41.104  -8.823  14.692  1.00  0.00     0.025 A 
HETATM   42  C   UNL     1      41.518  -9.114  13.387  1.00  0.00     0.017 A 
ENDBRANCH  34  36
ENDBRANCH  29  30
ENDBRANCH   1  29
TORSDOF 9
ENDMDL
MODEL 2
REMARK VINA RESULT:      -9.1      2.289      4.069
REMARK  9 active torsions:
REMARK  status: ('A' for Active; 'I' for Inactive)
REMARK    1  A    between atoms: C_4  and  C_5 
REMARK    2  A    between atoms: C_13  and  C_14 
REMARK    3  A    between atoms: C_14  and  N_15 
REMARK    4  A    between atoms: C_19  and  C_20 
REMARK       I    between atoms: C_20  and  N_21 
REMARK    5  A    between atoms: N_21  and  C_22 
REMARK    6  A    between atoms: C_22  and  C_23 
REMARK    7  A    between atoms: C_23  and  C_24 
REMARK    8  A    between atoms: C_24  and  N_25 
REMARK    9  A    between atoms: N_29  and  C_30 
ROOT
HETATM    1  N   UNL     1      43.346  -8.212  10.264  1.00  0.00    -0.066 N 
HETATM    2  H   UNL     1      43.813  -7.608  10.957  1.00  0.00     0.280 HD
HETATM    3  C   UNL     1      43.571  -9.635  10.710  1.00  0.00     0.236 C 
HETATM    4  C   UNL     1      45.039 -10.021  10.545  1.00  0.00     0.042 C 
HETATM    5  C   UNL     1      45.523  -9.830   9.107  1.00  0.00     0.081 C 
HETATM    6  C   UNL     1      45.283  -8.384   8.673  1.00  0.00     0.042 C 
HETATM    7  C   UNL     1      43.855  -7.899   8.883  1.00  0.00     0.236 C 
ENDROOT
BRANCH   5   8
HETATM    8  C   UNL     1      44.814 -10.843   8.208  1.00  0.00     0.221 C 
HETATM    9  N   UNL     1      45.237 -10.847   6.899  1.00  0.00    -0.361 N 
HETATM   10  H   UNL     1      45.939 -10.173   6.605  1.00  0.00     0.162 HD
HETATM   11  O   UNL     1      44.023 -11.670   8.654  1.00  0.00    -0.273 OA
BRANCH   9  12
HETATM   12  C   UNL     1      44.944 -11.948   5.997  1.00  0.00     0.124 C 
BRANCH  12  13
HETATM   13  C   UNL     1      44.178 -11.542   4.733  1.00  0.00     0.047 C 
BRANCH  13  14
HETATM   14  C   UNL     1      42.676 -11.698   4.965  1.00  0.00     0.236 C 
BRANCH  14  15
HETATM   15  N   UNL     1      42.063 -12.747   4.064  1.00  0.00    -0.068 N 
HETATM   16  H   UNL     1      41.292 -12.324   3.529  1.00  0.00     0.280 HD
HETATM   17  C   UNL     1      43.102 -13.228   3.026  1.00  0.00     0.254 C 
HETATM   18  C   UNL     1      42.519 -14.328   2.114  1.00  0.00     0.150 C 
HETATM   19  N   UNL     1      41.949 -15.434   2.902  1.00  0.00    -0.378 N 
HETATM   20  C   UNL     1      40.913 -15.004   3.861  1.00  0.00     0.150 C 
HETATM   21  C   UNL     1      41.484 -13.949   4.833  1.00  0.00     0.254 C 
BRANCH  19  22
HETATM   22  C   UNL     1      42.725 -16.541   3.256  1.00  0.00     0.031 A 
HETATM   23  C   UNL     1      42.802 -17.709   2.483  1.00  0.00     0.053 A 
HETATM   24  C   UNL     1      43.603 -18.792   2.872  1.00  0.00     0.036 A 
HETATM   25 CL   UNL     1      43.693 -20.180   1.859  1.00  0.00    -0.084 Cl
HETATM   26  C   UNL     1      44.330 -18.752   4.054  1.00  0.00     0.024 A 
HETATM   27  C   UNL     1      44.246 -17.621   4.858  1.00  0.00     0.004 A 
HETATM   28  C   UNL     1      43.452 -16.539   4.461  1.00  0.00     0.029 A 
ENDBRANCH  19  22
ENDBRANCH  14  15
ENDBRANCH  13  14
ENDBRANCH  12  13
ENDBRANCH   9  12
ENDBRANCH   5   8
BRANCH   1  29
HETATM   29  C   UNL     1      41.874  -7.815  10.357  1.00  0.00     0.296 C 
BRANCH  29  30
HETATM   30  C   UNL     1      41.249  -8.018  11.686  1.00  0.00     0.092 A 
HETATM   31  C   UNL     1      40.329  -8.970  12.066  1.00  0.00     0.078 A 
HETATM   32  C   UNL     1      39.635 -10.085  11.393  1.00  0.00     0.079 C 
HETATM   33  O   UNL     1      40.051  -8.774  13.383  1.00  0.00    -0.294 OA
HETATM   34  C   UNL     1      40.809  -7.693  13.749  1.00  0.00     0.180 A 
HETATM   35  N   UNL     1      41.548  -7.205  12.763  1.00  0.00    -0.224 NA
BRANCH  34  36
HETATM   36  C   UNL     1      40.707  -7.273  15.145  1.00  0.00     0.017 A 
HETATM   37  C   UNL     1      39.728  -6.356  15.566  1.00  0.00     0.017 A 
HETATM   38  C   UNL     1      39.637  -5.969  16.906  1.00  0.00     0.025 A 
HETATM   39  C   UNL     1      40.525  -6.496  17.840  1.00  0.00     0.034 A 
HETATM   40 CL   UNL     1      40.413  -6.026  19.488  1.00  0.00    -0.084 Cl
HETATM   41  C   UNL     1      41.503  -7.405  17.443  1.00  0.00     0.025 A 
HETATM   42  C   UNL     1      41.593  -7.790  16.100  1.00  0.00     0.017 A 
ENDBRANCH  34  36
ENDBRANCH  29  30
ENDBRANCH   1  29
TORSDOF 9
ENDMDL
MODEL 3
REMARK VINA RESULT:      -9.0      2.176     10.525
REMARK  9 active torsions:
REMARK  status: ('A' for Active; 'I' for Inactive)
REMARK    1  A    between atoms: C_4  and  C_5 
REMARK    2  A    between atoms: C_13  and  C_14 
REMARK    3  A    between atoms: C_14  and  N_15 
REMARK    4  A    between atoms: C_19  and  C_20 
REMARK       I    between atoms: C_20  and  N_21 
REMARK    5  A    between atoms: N_21  and  C_22 
REMARK    6  A    between atoms: C_22  and  C_23 
REMARK    7  A    between atoms: C_23  and  C_24 
REMARK    8  A    between atoms: C_24  and  N_25 
REMARK    9  A    between atoms: N_29  and  C_30 
ROOT
HETATM    1  N   UNL     1      39.419 -12.218   3.836  1.00  0.00    -0.066 N 
HETATM    2  H   UNL     1      38.413 -12.430   3.917  1.00  0.00     0.280 HD
HETATM    3  C   UNL     1      40.039 -12.547   5.171  1.00  0.00     0.236 C 
HETATM    4  C   UNL     1      39.577 -11.552   6.234  1.00  0.00     0.042 C 
HETATM    5  C   UNL     1      39.892 -10.108   5.843  1.00  0.00     0.081 C 
HETATM    6  C   UNL     1      39.259  -9.796   4.486  1.00  0.00     0.042 C 
HETATM    7  C   UNL     1      39.610 -10.793   3.390  1.00  0.00     0.236 C 
ENDROOT
BRANCH   5   8
HETATM    8  C   UNL     1      41.408  -9.914   5.847  1.00  0.00     0.221 C 
HETATM    9  N   UNL     1      42.092 -10.737   6.711  1.00  0.00    -0.361 N 
HETATM   10  H   UNL     1      41.567 -11.373   7.306  1.00  0.00     0.162 HD
HETATM   11  O   UNL     1      41.973  -9.170   5.049  1.00  0.00    -0.273 OA
BRANCH   9  12
HETATM   12  C   UNL     1      43.526 -10.945   6.605  1.00  0.00     0.124 C 
BRANCH  12  13
HETATM   13  C   UNL     1      44.254 -11.016   7.952  1.00  0.00     0.047 C 
BRANCH  13  14
HETATM   14  C   UNL     1      43.814  -9.854   8.842  1.00  0.00     0.236 C 
BRANCH  14  15
HETATM   15  N   UNL     1      42.945 -10.312   9.993  1.00  0.00    -0.068 N 
HETATM   16  H   UNL     1      42.494 -11.202   9.741  1.00  0.00     0.280 HD
HETATM   17  C   UNL     1      43.817 -10.600  11.235  1.00  0.00     0.254 C 
HETATM   18  C   UNL     1      42.955 -11.033  12.440  1.00  0.00     0.150 C 
HETATM   19  N   UNL     1      41.882 -10.061  12.711  1.00  0.00    -0.378 N 
HETATM   20  C   UNL     1      41.001  -9.814  11.553  1.00  0.00     0.150 C 
HETATM   21  C   UNL     1      41.827  -9.315  10.347  1.00  0.00     0.254 C 
BRANCH  19  22
HETATM   22  C   UNL     1      42.078  -9.001  13.600  1.00  0.00     0.031 A 
HETATM   23  C   UNL     1      41.326  -8.825  14.771  1.00  0.00     0.053 A 
HETATM   24  C   UNL     1      41.565  -7.751  15.639  1.00  0.00     0.036 A 
HETATM   25 CL   UNL     1      40.639  -7.615  17.084  1.00  0.00    -0.084 Cl
HETATM   26  C   UNL     1      42.543  -6.809  15.355  1.00  0.00     0.024 A 
HETATM   27  C   UNL     1      43.281  -6.937  14.184  1.00  0.00     0.004 A 
HETATM   28  C   UNL     1      43.046  -8.016  13.324  1.00  0.00     0.029 A 
ENDBRANCH  19  22
ENDBRANCH  14  15
ENDBRANCH  13  14
ENDBRANCH  12  13
ENDBRANCH   9  12
ENDBRANCH   5   8
BRANCH   1  29
HETATM   29  C   UNL     1      39.910 -13.156   2.736  1.00  0.00     0.296 C 
BRANCH  29  30
HETATM   30  C   UNL     1      41.138 -13.921   3.061  1.00  0.00     0.092 A 
HETATM   31  C   UNL     1      42.435 -13.466   3.151  1.00  0.00     0.078 A 
HETATM   32  C   UNL     1      43.103 -12.161   2.982  1.00  0.00     0.079 C 
HETATM   33  O   UNL     1      43.222 -14.525   3.484  1.00  0.00    -0.294 OA
HETATM   34  C   UNL     1      42.366 -15.591   3.569  1.00  0.00     0.180 A 
HETATM   35  N   UNL     1      41.102 -15.278   3.326  1.00  0.00    -0.224 NA
BRANCH  34  36
HETATM   36  C   UNL     1      42.964 -16.874   3.933  1.00  0.00     0.017 A 
HETATM   37  C   UNL     1      43.260 -17.194   5.270  1.00  0.00     0.017 A 
HETATM   38  C   UNL     1      43.824 -18.429   5.604  1.00  0.00     0.025 A 
HETATM   39  C   UNL     1      44.099 -19.357   4.603  1.00  0.00     0.034 A 
HETATM   40 CL   UNL     1      44.788 -20.876   5.011  1.00  0.00    -0.084 Cl
HETATM   41  C   UNL     1      43.815 -19.058   3.272  1.00  0.00     0.025 A 
HETATM   42  C   UNL     1      43.250 -17.821   2.940  1.00  0.00     0.017 A 
ENDBRANCH  34  36
ENDBRANCH  29  30
ENDBRANCH   1  29
TORSDOF 9
ENDMDL
MODEL 4
REMARK VINA RESULT:      -8.8      2.364      4.373
REMARK  9 active torsions:
REMARK  status: ('A' for Active; 'I' for Inactive)
REMARK    1  A    between atoms: C_4  and  C_5 
REMARK    2  A    between atoms: C_13  and  C_14 
REMARK    3  A    between atoms: C_14  and  N_15 
REMARK    4  A    between atoms: C_19  and  C_20 
REMARK       I    between atoms: C_20  and  N_21 
REMARK    5  A    between atoms: N_21  and  C_22 
REMARK    6  A    between atoms: C_22  and  C_23 
REMARK    7  A    between atoms: C_23  and  C_24 
REMARK    8  A    between atoms: C_24  and  N_25 
REMARK    9  A    between atoms: N_29  and  C_30 
ROOT
HETATM    1  N   UNL     1      42.822 -13.418   6.868  1.00  0.00    -0.066 N 
HETATM    2  H   UNL     1      42.332 -12.995   7.672  1.00  0.00     0.280 HD
HETATM    3  C   UNL     1      41.851 -13.401   5.714  1.00  0.00     0.236 C 
HETATM    4  C   UNL     1      40.711 -14.387   5.960  1.00  0.00     0.042 C 
HETATM    5  C   UNL     1      41.224 -15.807   6.203  1.00  0.00     0.081 C 
HETATM    6  C   UNL     1      42.209 -15.802   7.373  1.00  0.00     0.042 C 
HETATM    7  C   UNL     1      43.333 -14.784   7.237  1.00  0.00     0.236 C 
ENDROOT
BRANCH   5   8
HETATM    8  C   UNL     1      41.844 -16.337   4.910  1.00  0.00     0.221 C 
HETATM    9  N   UNL     1      41.013 -16.297   3.814  1.00  0.00    -0.361 N 
HETATM   10  H   UNL     1      40.058 -15.972   3.931  1.00  0.00     0.162 HD
HETATM   11  O   UNL     1      43.029 -16.652   4.836  1.00  0.00    -0.273 OA
BRANCH   9  12
HETATM   12  C   UNL     1      41.520 -16.423   2.458  1.00  0.00     0.124 C 
BRANCH  12  13
HETATM   13  C   UNL     1      41.126 -15.269   1.529  1.00  0.00     0.047 C 
BRANCH  13  14
HETATM   14  C   UNL     1      42.091 -14.099   1.717  1.00  0.00     0.236 C 
BRANCH  14  15
HETATM   15  N   UNL     1      41.374 -12.768   1.767  1.00  0.00    -0.068 N 
HETATM   16  H   UNL     1      41.133 -12.479   0.809  1.00  0.00     0.280 HD
HETATM   17  C   UNL     1      40.038 -12.912   2.529  1.00  0.00     0.254 C 
HETATM   18  C   UNL     1      39.299 -11.561   2.631  1.00  0.00     0.150 C 
HETATM   19  N   UNL     1      40.167 -10.514   3.197  1.00  0.00    -0.378 N 
HETATM   20  C   UNL     1      41.424 -10.320   2.450  1.00  0.00     0.150 C 
HETATM   21  C   UNL     1      42.221 -11.642   2.387  1.00  0.00     0.254 C 
BRANCH  19  22
HETATM   22  C   UNL     1      40.199 -10.272   4.573  1.00  0.00     0.031 A 
HETATM   23  C   UNL     1      41.199  -9.515   5.201  1.00  0.00     0.053 A 
HETATM   24  C   UNL     1      41.184  -9.289   6.585  1.00  0.00     0.036 A 
HETATM   25 CL   UNL     1      42.414  -8.313   7.291  1.00  0.00    -0.084 Cl
HETATM   26  C   UNL     1      40.188  -9.831   7.385  1.00  0.00     0.024 A 
HETATM   27  C   UNL     1      39.204 -10.615   6.795  1.00  0.00     0.004 A 
HETATM   28  C   UNL     1      39.216 -10.830   5.412  1.00  0.00     0.029 A 
ENDBRANCH  19  22
ENDBRANCH  14  15
ENDBRANCH  13  14
ENDBRANCH  12  13
ENDBRANCH   9  12
ENDBRANCH   5   8
BRANCH   1  29
HETATM   29  C   UNL     1      44.008 -12.488   6.625  1.00  0.00     0.296 C 
BRANCH  29  30
HETATM   30  C   UNL     1      44.324 -11.563   7.740  1.00  0.00     0.092 A 
HETATM   31  C   UNL     1      45.469 -10.827   7.947  1.00  0.00     0.078 A 
HETATM   32  C   UNL     1      46.747 -10.653   7.231  1.00  0.00     0.079 C 
HETATM   33  O   UNL     1      45.302 -10.117   9.096  1.00  0.00    -0.294 OA
HETATM   34  C   UNL     1      44.057 -10.465   9.550  1.00  0.00     0.180 A 
HETATM   35  N   UNL     1      43.428 -11.330   8.767  1.00  0.00    -0.224 NA
BRANCH  34  36
HETATM   36  C   UNL     1      43.615  -9.821  10.786  1.00  0.00     0.017 A 
HETATM   37  C   UNL     1      43.562  -8.422  10.907  1.00  0.00     0.017 A 
HETATM   38  C   UNL     1      43.130  -7.820  12.093  1.00  0.00     0.025 A 
HETATM   39  C   UNL     1      42.746  -8.614  13.170  1.00  0.00     0.034 A 
HETATM   40 CL   UNL     1      42.210  -7.877  14.627  1.00  0.00    -0.084 Cl
HETATM   41  C   UNL     1      42.792 -10.002  13.071  1.00  0.00     0.025 A 
HETATM   42  C   UNL     1      43.226 -10.602  11.883  1.00  0.00     0.017 A 
ENDBRANCH  34  36
ENDBRANCH  29  30
ENDBRANCH   1  29
TORSDOF 9
ENDMDL
MODEL 5
REMARK VINA RESULT:      -8.7      2.259     10.603
REMARK  9 active torsions:
REMARK  status: ('A' for Active; 'I' for Inactive)
REMARK    1  A    between atoms: C_4  and  C_5 
REMARK    2  A    between atoms: C_13  and  C_14 
REMARK    3  A    between atoms: C_14  and  N_15 
REMARK    4  A    between atoms: C_19  and  C_20 
REMARK       I    between atoms: C_20  and  N_21 
REMARK    5  A    between atoms: N_21  and  C_22 
REMARK    6  A    between atoms: C_22  and  C_23 
REMARK    7  A    between atoms: C_23  and  C_24 
REMARK    8  A    between atoms: C_24  and  N_25 
REMARK    9  A    between atoms: N_29  and  C_30 
ROOT
HETATM    1  N   UNL     1      40.172 -11.797   2.997  1.00  0.00    -0.066 N 
HETATM    2  H   UNL     1      39.803 -11.163   2.271  1.00  0.00     0.280 HD
HETATM    3  C   UNL     1      39.838 -11.170   4.327  1.00  0.00     0.236 C 
HETATM    4  C   UNL     1      40.666  -9.905   4.544  1.00  0.00     0.042 C 
HETATM    5  C   UNL     1      42.167 -10.179   4.446  1.00  0.00     0.081 C 
HETATM    6  C   UNL     1      42.484 -10.818   3.094  1.00  0.00     0.042 C 
HETATM    7  C   UNL     1      41.639 -12.042   2.769  1.00  0.00     0.236 C 
ENDROOT
BRANCH   5   8
HETATM    8  C   UNL     1      42.588 -11.054   5.627  1.00  0.00     0.221 C 
HETATM    9  N   UNL     1      43.908 -11.442   5.615  1.00  0.00    -0.361 N 
HETATM   10  H   UNL     1      44.495 -11.171   4.831  1.00  0.00     0.162 HD
HETATM   11  O   UNL     1      41.836 -11.283   6.571  1.00  0.00    -0.273 OA
BRANCH   9  12
HETATM   12  C   UNL     1      44.568 -11.966   6.798  1.00  0.00     0.124 C 
BRANCH  12  13
HETATM   13  C   UNL     1      45.616 -11.025   7.405  1.00  0.00     0.047 C 
BRANCH  13  14
HETATM   14  C   UNL     1      44.939  -9.748   7.901  1.00  0.00     0.236 C 
BRANCH  14  15
HETATM   15  N   UNL     1      43.810 -10.036   8.867  1.00  0.00    -0.068 N 
HETATM   16  H   UNL     1      43.370 -10.931   8.613  1.00  0.00     0.280 HD
HETATM   17  C   UNL     1      44.367 -10.214  10.297  1.00  0.00     0.254 C 
HETATM   18  C   UNL     1      43.235 -10.472  11.314  1.00  0.00     0.150 C 
HETATM   19  N   UNL     1      42.193  -9.434  11.234  1.00  0.00    -0.378 N 
HETATM   20  C   UNL     1      41.607  -9.286   9.888  1.00  0.00     0.150 C 
HETATM   21  C   UNL     1      42.708  -8.961   8.855  1.00  0.00     0.254 C 
BRANCH  19  22
HETATM   22  C   UNL     1      42.256  -8.287  12.031  1.00  0.00     0.031 A 
HETATM   23  C   UNL     1      41.485  -7.140  11.796  1.00  0.00     0.053 A 
HETATM   24  C   UNL     1      41.574  -6.016  12.629  1.00  0.00     0.036 A 
HETATM   25 CL   UNL     1      40.568  -4.655  12.317  1.00  0.00    -0.084 Cl
HETATM   26  C   UNL     1      42.450  -5.994  13.705  1.00  0.00     0.024 A 
HETATM   27  C   UNL     1      43.253  -7.103  13.942  1.00  0.00     0.004 A 
HETATM   28  C   UNL     1      43.155  -8.227  13.113  1.00  0.00     0.029 A 
ENDBRANCH  19  22
ENDBRANCH  14  15
ENDBRANCH  13  14
ENDBRANCH  12  13
ENDBRANCH   9  12
ENDBRANCH   5   8
BRANCH   1  29
HETATM   29  C   UNL     1      39.407 -13.100   2.776  1.00  0.00     0.296 C 
BRANCH  29  30
HETATM   30  C   UNL     1      40.248 -14.280   2.459  1.00  0.00     0.092 A 
HETATM   31  C   UNL     1      40.565 -14.801   1.224  1.00  0.00     0.078 A 
HETATM   32  C   UNL     1      40.244 -14.456  -0.174  1.00  0.00     0.079 C 
HETATM   33  O   UNL     1      41.370 -15.879   1.426  1.00  0.00    -0.294 OA
HETATM   34  C   UNL     1      41.498 -15.978   2.786  1.00  0.00     0.180 A 
HETATM   35  N   UNL     1      40.843 -15.036   3.451  1.00  0.00    -0.224 NA
BRANCH  34  36
HETATM   36  C   UNL     1      42.339 -17.065   3.281  1.00  0.00     0.017 A 
HETATM   37  C   UNL     1      42.773 -18.102   2.436  1.00  0.00     0.017 A 
HETATM   38  C   UNL     1      43.584 -19.131   2.921  1.00  0.00     0.025 A 
HETATM   39  C   UNL     1      43.971 -19.135   4.258  1.00  0.00     0.034 A 
HETATM   40 CL   UNL     1      44.972 -20.397   4.856  1.00  0.00    -0.084 Cl
HETATM   41  C   UNL     1      43.552 -18.118   5.112  1.00  0.00     0.025 A 
HETATM   42  C   UNL     1      42.739 -17.088   4.625  1.00  0.00     0.017 A 
ENDBRANCH  34  36
ENDBRANCH  29  30
ENDBRANCH   1  29
TORSDOF 9
ENDMDL
MODEL 6
REMARK VINA RESULT:      -8.7      5.484      9.453
REMARK  9 active torsions:
REMARK  status: ('A' for Active; 'I' for Inactive)
REMARK    1  A    between atoms: C_4  and  C_5 
REMARK    2  A    between atoms: C_13  and  C_14 
REMARK    3  A    between atoms: C_14  and  N_15 
REMARK    4  A    between atoms: C_19  and  C_20 
REMARK       I    between atoms: C_20  and  N_21 
REMARK    5  A    between atoms: N_21  and  C_22 
REMARK    6  A    between atoms: C_22  and  C_23 
REMARK    7  A    between atoms: C_23  and  C_24 
REMARK    8  A    between atoms: C_24  and  N_25 
REMARK    9  A    between atoms: N_29  and  C_30 
ROOT
HETATM    1  N   UNL     1      40.833 -13.077  -0.727  1.00  0.00    -0.066 N 
HETATM    2  H   UNL     1      41.241 -13.994  -0.970  1.00  0.00     0.280 HD
HETATM    3  C   UNL     1      39.340 -13.275  -0.649  1.00  0.00     0.236 C 
HETATM    4  C   UNL     1      38.762 -13.533  -2.039  1.00  0.00     0.042 C 
HETATM    5  C   UNL     1      39.100 -12.408  -3.017  1.00  0.00     0.081 C 
HETATM    6  C   UNL     1      40.616 -12.220  -3.078  1.00  0.00     0.042 C 
HETATM    7  C   UNL     1      41.277 -12.037  -1.719  1.00  0.00     0.236 C 
ENDROOT
BRANCH   5   8
HETATM    8  C   UNL     1      38.364 -11.140  -2.585  1.00  0.00     0.221 C 
HETATM    9  N   UNL     1      37.288 -11.353  -1.755  1.00  0.00    -0.361 N 
HETATM   10  H   UNL     1      37.027 -12.306  -1.521  1.00  0.00     0.162 HD
HETATM   11  O   UNL     1      38.782 -10.017  -2.858  1.00  0.00    -0.273 OA
BRANCH   9  12
HETATM   12  C   UNL     1      36.693 -10.282  -0.974  1.00  0.00     0.124 C 
BRANCH  12  13
HETATM   13  C   UNL     1      37.207 -10.192   0.467  1.00  0.00     0.047 C 
BRANCH  13  14
HETATM   14  C   UNL     1      38.345  -9.176   0.550  1.00  0.00     0.236 C 
BRANCH  14  15
HETATM   15  N   UNL     1      38.803  -8.943   1.973  1.00  0.00    -0.068 N 
HETATM   16  H   UNL     1      38.314  -8.121   2.353  1.00  0.00     0.280 HD
HETATM   17  C   UNL     1      38.401 -10.140   2.863  1.00  0.00     0.254 C 
HETATM   18  C   UNL     1      38.887  -9.950   4.316  1.00  0.00     0.150 C 
HETATM   19  N   UNL     1      40.330  -9.662   4.366  1.00  0.00    -0.378 N 
HETATM   20  C   UNL     1      40.728  -8.486   3.568  1.00  0.00     0.150 C 
HETATM   21  C   UNL     1      40.314  -8.675   2.092  1.00  0.00     0.254 C 
BRANCH  19  22
HETATM   22  C   UNL     1      41.266 -10.692   4.494  1.00  0.00     0.031 A 
HETATM   23  C   UNL     1      41.105 -11.779   5.366  1.00  0.00     0.053 A 
HETATM   24  C   UNL     1      42.067 -12.795   5.452  1.00  0.00     0.036 A 
HETATM   25 CL   UNL     1      41.791 -14.127   6.508  1.00  0.00    -0.084 Cl
HETATM   26  C   UNL     1      43.226 -12.746   4.692  1.00  0.00     0.024 A 
HETATM   27  C   UNL     1      43.430 -11.664   3.844  1.00  0.00     0.004 A 
HETATM   28  C   UNL     1      42.463 -10.655   3.754  1.00  0.00     0.029 A 
ENDBRANCH  19  22
ENDBRANCH  14  15
ENDBRANCH  13  14
ENDBRANCH  12  13
ENDBRANCH   9  12
ENDBRANCH   5   8
BRANCH   1  29
HETATM   29  C   UNL     1      41.434 -12.754   0.640  1.00  0.00     0.296 C 
BRANCH  29  30
HETATM   30  C   UNL     1      41.412 -13.869   1.618  1.00  0.00     0.092 A 
HETATM   31  C   UNL     1      40.454 -14.163   2.562  1.00  0.00     0.078 A 
HETATM   32  C   UNL     1      39.168 -13.567   2.973  1.00  0.00     0.079 C 
HETATM   33  O   UNL     1      40.856 -15.282   3.224  1.00  0.00    -0.294 OA
HETATM   34  C   UNL     1      42.059 -15.615   2.660  1.00  0.00     0.180 A 
HETATM   35  N   UNL     1      42.435 -14.796   1.687  1.00  0.00    -0.224 NA
BRANCH  34  36
HETATM   36  C   UNL     1      42.713 -16.810   3.188  1.00  0.00     0.017 A 
HETATM   37  C   UNL     1      42.965 -17.930   2.375  1.00  0.00     0.017 A 
HETATM   38  C   UNL     1      43.599 -19.064   2.892  1.00  0.00     0.025 A 
HETATM   39  C   UNL     1      43.988 -19.088   4.229  1.00  0.00     0.034 A 
HETATM   40 CL   UNL     1      44.772 -20.479   4.866  1.00  0.00    -0.084 Cl
HETATM   41  C   UNL     1      43.747 -17.990   5.051  1.00  0.00     0.025 A 
HETATM   42  C   UNL     1      43.111 -16.857   4.531  1.00  0.00     0.017 A 
ENDBRANCH  34  36
ENDBRANCH  29  30
ENDBRANCH   1  29
TORSDOF 9
ENDMDL
MODEL 7
REMARK VINA RESULT:      -8.7      2.683     12.422
REMARK  9 active torsions:
REMARK  status: ('A' for Active; 'I' for Inactive)
REMARK    1  A    between atoms: C_4  and  C_5 
REMARK    2  A    between atoms: C_13  and  C_14 
REMARK    3  A    between atoms: C_14  and  N_15 
REMARK    4  A    between atoms: C_19  and  C_20 
REMARK       I    between atoms: C_20  and  N_21 
REMARK    5  A    between atoms: N_21  and  C_22 
REMARK    6  A    between atoms: C_22  and  C_23 
REMARK    7  A    between atoms: C_23  and  C_24 
REMARK    8  A    between atoms: C_24  and  N_25 
REMARK    9  A    between atoms: N_29  and  C_30 
ROOT
HETATM    1  N   UNL     1      43.357 -10.644   7.000  1.00  0.00    -0.066 N 
HETATM    2  H   UNL     1      43.678 -10.225   6.113  1.00  0.00     0.280 HD
HETATM    3  C   UNL     1      42.882  -9.507   7.868  1.00  0.00     0.236 C 
HETATM    4  C   UNL     1      44.062  -8.649   8.319  1.00  0.00     0.042 C 
HETATM    5  C   UNL     1      45.121  -9.473   9.053  1.00  0.00     0.081 C 
HETATM    6  C   UNL     1      45.586 -10.622   8.159  1.00  0.00     0.042 C 
HETATM    7  C   UNL     1      44.456 -11.477   7.603  1.00  0.00     0.236 C 
ENDROOT
BRANCH   5   8
HETATM    8  C   UNL     1      44.539  -9.956  10.381  1.00  0.00     0.221 C 
HETATM    9  N   UNL     1      44.004  -8.964  11.171  1.00  0.00    -0.361 N 
HETATM   10  H   UNL     1      44.064  -7.999  10.858  1.00  0.00     0.162 HD
HETATM   11  O   UNL     1      44.444 -11.149  10.658  1.00  0.00    -0.273 OA
BRANCH   9  12
HETATM   12  C   UNL     1      43.111  -9.257  12.279  1.00  0.00     0.124 C 
BRANCH  12  13
HETATM   13  C   UNL     1      42.710  -8.031  13.107  1.00  0.00     0.047 C 
BRANCH  13  14
HETATM   14  C   UNL     1      42.153  -6.945  12.188  1.00  0.00     0.236 C 
BRANCH  14  15
HETATM   15  N   UNL     1      41.078  -6.120  12.863  1.00  0.00    -0.068 N 
HETATM   16  H   UNL     1      40.514  -5.649  12.143  1.00  0.00     0.280 HD
HETATM   17  C   UNL     1      40.112  -7.041  13.641  1.00  0.00     0.254 C 
HETATM   18  C   UNL     1      39.025  -6.226  14.373  1.00  0.00     0.150 C 
HETATM   19  N   UNL     1      39.617  -5.177  15.219  1.00  0.00    -0.378 N 
HETATM   20  C   UNL     1      40.499  -4.250  14.484  1.00  0.00     0.150 C 
HETATM   21  C   UNL     1      41.640  -5.030  13.793  1.00  0.00     0.254 C 
BRANCH  19  22
HETATM   22  C   UNL     1      39.927  -5.423  16.560  1.00  0.00     0.031 A 
HETATM   23  C   UNL     1      39.873  -6.697  17.144  1.00  0.00     0.053 A 
HETATM   24  C   UNL     1      40.202  -6.898  18.492  1.00  0.00     0.036 A 
HETATM   25 CL   UNL     1      40.161  -8.492  19.140  1.00  0.00    -0.084 Cl
HETATM   26  C   UNL     1      40.572  -5.833  19.301  1.00  0.00     0.024 A 
HETATM   27  C   UNL     1      40.601  -4.554  18.759  1.00  0.00     0.004 A 
HETATM   28  C   UNL     1      40.279  -4.358  17.411  1.00  0.00     0.029 A 
ENDBRANCH  19  22
ENDBRANCH  14  15
ENDBRANCH  13  14
ENDBRANCH  12  13
ENDBRANCH   9  12
ENDBRANCH   5   8
BRANCH   1  29
HETATM   29  C   UNL     1      42.207 -11.559   6.583  1.00  0.00     0.296 C 
BRANCH  29  30
HETATM   30  C   UNL     1      42.500 -12.460   5.442  1.00  0.00     0.092 A 
HETATM   31  C   UNL     1      42.701 -12.132   4.119  1.00  0.00     0.078 A 
HETATM   32  C   UNL     1      42.713 -10.880   3.339  1.00  0.00     0.079 C 
HETATM   33  O   UNL     1      42.946 -13.286   3.441  1.00  0.00    -0.294 OA
HETATM   34  C   UNL     1      42.869 -14.276   4.385  1.00  0.00     0.180 A 
HETATM   35  N   UNL     1      42.605 -13.829   5.604  1.00  0.00    -0.224 NA
BRANCH  34  36
HETATM   36  C   UNL     1      43.111 -15.639   3.915  1.00  0.00     0.017 A 
HETATM   37  C   UNL     1      43.613 -16.633   4.773  1.00  0.00     0.017 A 
HETATM   38  C   UNL     1      43.832 -17.935   4.312  1.00  0.00     0.025 A 
HETATM   39  C   UNL     1      43.551 -18.255   2.987  1.00  0.00     0.034 A 
HETATM   40 CL   UNL     1      43.816 -19.855   2.419  1.00  0.00    -0.084 Cl
HETATM   41  C   UNL     1      43.055 -17.284   2.121  1.00  0.00     0.025 A 
HETATM   42  C   UNL     1      42.837 -15.981   2.584  1.00  0.00     0.017 A 
ENDBRANCH  34  36
ENDBRANCH  29  30
ENDBRANCH   1  29
TORSDOF 9
ENDMDL
MODEL 8
REMARK VINA RESULT:      -8.6      5.516      9.291
REMARK  9 active torsions:
REMARK  status: ('A' for Active; 'I' for Inactive)
REMARK    1  A    between atoms: C_4  and  C_5 
REMARK    2  A    between atoms: C_13  and  C_14 
REMARK    3  A    between atoms: C_14  and  N_15 
REMARK    4  A    between atoms: C_19  and  C_20 
REMARK       I    between atoms: C_20  and  N_21 
REMARK    5  A    between atoms: N_21  and  C_22 
REMARK    6  A    between atoms: C_22  and  C_23 
REMARK    7  A    between atoms: C_23  and  C_24 
REMARK    8  A    between atoms: C_24  and  N_25 
REMARK    9  A    between atoms: N_29  and  C_30 
ROOT
HETATM    1  N   UNL     1      38.816 -13.054   0.193  1.00  0.00    -0.066 N 
HETATM    2  H   UNL     1      38.000 -13.684   0.139  1.00  0.00     0.280 HD
HETATM    3  C   UNL     1      40.039 -13.910  -0.019  1.00  0.00     0.236 C 
HETATM    4  C   UNL     1      40.258 -14.834   1.176  1.00  0.00     0.042 C 
HETATM    5  C   UNL     1      40.375 -14.056   2.488  1.00  0.00     0.081 C 
HETATM    6  C   UNL     1      39.129 -13.191   2.682  1.00  0.00     0.042 C 
HETATM    7  C   UNL     1      38.797 -12.298   1.494  1.00  0.00     0.236 C 
ENDROOT
BRANCH   5   8
HETATM    8  C   UNL     1      41.665 -13.236   2.463  1.00  0.00     0.221 C 
HETATM    9  N   UNL     1      41.678 -12.157   3.316  1.00  0.00    -0.361 N 
HETATM   10  H   UNL     1      40.846 -11.948   3.860  1.00  0.00     0.162 HD
HETATM   11  O   UNL     1      42.653 -13.593   1.826  1.00  0.00    -0.273 OA
BRANCH   9  12
HETATM   12  C   UNL     1      42.910 -11.483   3.688  1.00  0.00     0.124 C 
BRANCH  12  13
HETATM   13  C   UNL     1      43.264 -11.589   5.175  1.00  0.00     0.047 C 
BRANCH  13  14
HETATM   14  C   UNL     1      41.993 -11.805   5.996  1.00  0.00     0.236 C 
BRANCH  14  15
HETATM   15  N   UNL     1      41.998 -13.134   6.720  1.00  0.00    -0.068 N 
HETATM   16  H   UNL     1      41.671 -12.992   7.686  1.00  0.00     0.280 HD
HETATM   17  C   UNL     1      40.993 -14.103   6.057  1.00  0.00     0.254 C 
HETATM   18  C   UNL     1      41.001 -15.482   6.750  1.00  0.00     0.150 C 
HETATM   19  N   UNL     1      42.362 -16.038   6.825  1.00  0.00    -0.378 N 
HETATM   20  C   UNL     1      43.326 -15.153   7.506  1.00  0.00     0.150 C 
HETATM   21  C   UNL     1      43.392 -13.783   6.795  1.00  0.00     0.254 C 
BRANCH  19  22
HETATM   22  C   UNL     1      42.860 -16.865   5.813  1.00  0.00     0.031 A 
HETATM   23  C   UNL     1      42.782 -16.548   4.449  1.00  0.00     0.053 A 
HETATM   24  C   UNL     1      43.304 -17.404   3.469  1.00  0.00     0.036 A 
HETATM   25 CL   UNL     1      43.220 -16.939   1.814  1.00  0.00    -0.084 Cl
HETATM   26  C   UNL     1      43.897 -18.609   3.818  1.00  0.00     0.024 A 
HETATM   27  C   UNL     1      43.957 -18.966   5.160  1.00  0.00     0.004 A 
HETATM   28  C   UNL     1      43.442 -18.105   6.136  1.00  0.00     0.029 A 
ENDBRANCH  19  22
ENDBRANCH  14  15
ENDBRANCH  13  14
ENDBRANCH  12  13
ENDBRANCH   9  12
ENDBRANCH   5   8
BRANCH   1  29
HETATM   29  C   UNL     1      38.604 -12.073  -0.958  1.00  0.00     0.296 C 
BRANCH  29  30
HETATM   30  C   UNL     1      39.764 -11.203  -1.268  1.00  0.00     0.092 A 
HETATM   31  C   UNL     1      40.798 -11.432  -2.149  1.00  0.00     0.078 A 
HETATM   32  C   UNL     1      41.167 -12.523  -3.072  1.00  0.00     0.079 C 
HETATM   33  O   UNL     1      41.625 -10.353  -2.105  1.00  0.00    -0.294 OA
HETATM   34  C   UNL     1      41.062  -9.512  -1.182  1.00  0.00     0.180 A 
HETATM   35  N   UNL     1      39.941  -9.978  -0.652  1.00  0.00    -0.224 NA
BRANCH  34  36
HETATM   36  C   UNL     1      41.757  -8.248  -0.949  1.00  0.00     0.017 A 
HETATM   37  C   UNL     1      41.241  -7.275  -0.074  1.00  0.00     0.017 A 
HETATM   38  C   UNL     1      41.921  -6.074   0.145  1.00  0.00     0.025 A 
HETATM   39  C   UNL     1      43.126  -5.832  -0.509  1.00  0.00     0.034 A 
HETATM   40 CL   UNL     1      43.966  -4.358  -0.238  1.00  0.00    -0.084 Cl
HETATM   41  C   UNL     1      43.654  -6.781  -1.381  1.00  0.00     0.025 A 
HETATM   42  C   UNL     1      42.971  -7.984  -1.600  1.00  0.00     0.017 A 
ENDBRANCH  34  36
ENDBRANCH  29  30
ENDBRANCH   1  29
TORSDOF 9
ENDMDL
MODEL 9
REMARK VINA RESULT:      -8.5      5.573     10.588
REMARK  9 active torsions:
REMARK  status: ('A' for Active; 'I' for Inactive)
REMARK    1  A    between atoms: C_4  and  C_5 
REMARK    2  A    between atoms: C_13  and  C_14 
REMARK    3  A    between atoms: C_14  and  N_15 
REMARK    4  A    between atoms: C_19  and  C_20 
REMARK       I    between atoms: C_20  and  N_21 
REMARK    5  A    between atoms: N_21  and  C_22 
REMARK    6  A    between atoms: C_22  and  C_23 
REMARK    7  A    between atoms: C_23  and  C_24 
REMARK    8  A    between atoms: C_24  and  N_25 
REMARK    9  A    between atoms: N_29  and  C_30 
ROOT
HETATM    1  N   UNL     1      39.070 -12.912   0.815  1.00  0.00    -0.066 N 
HETATM    2  H   UNL     1      38.367 -13.607   0.520  1.00  0.00     0.280 HD
HETATM    3  C   UNL     1      40.350 -13.261   0.098  1.00  0.00     0.236 C 
HETATM    4  C   UNL     1      40.929 -14.565   0.643  1.00  0.00     0.042 C 
HETATM    5  C   UNL     1      41.165 -14.500   2.152  1.00  0.00     0.081 C 
HETATM    6  C   UNL     1      39.858 -14.142   2.860  1.00  0.00     0.042 C 
HETATM    7  C   UNL     1      39.177 -12.893   2.316  1.00  0.00     0.236 C 
ENDROOT
BRANCH   5   8
HETATM    8  C   UNL     1      42.285 -13.500   2.436  1.00  0.00     0.221 C 
HETATM    9  N   UNL     1      41.909 -12.414   3.193  1.00  0.00    -0.361 N 
HETATM   10  H   UNL     1      40.937 -12.321   3.473  1.00  0.00     0.162 HD
HETATM   11  O   UNL     1      43.451 -13.718   2.118  1.00  0.00    -0.273 OA
BRANCH   9  12
HETATM   12  C   UNL     1      42.883 -11.558   3.848  1.00  0.00     0.124 C 
BRANCH  12  13
HETATM   13  C   UNL     1      43.171 -11.931   5.307  1.00  0.00     0.047 C 
BRANCH  13  14
HETATM   14  C   UNL     1      41.857 -12.157   6.053  1.00  0.00     0.236 C 
BRANCH  14  15
HETATM   15  N   UNL     1      41.823 -13.493   6.762  1.00  0.00    -0.068 N 
HETATM   16  H   UNL     1      41.424 -13.366   7.702  1.00  0.00     0.280 HD
HETATM   17  C   UNL     1      40.882 -14.466   6.018  1.00  0.00     0.254 C 
HETATM   18  C   UNL     1      40.854 -15.853   6.695  1.00  0.00     0.150 C 
HETATM   19  N   UNL     1      42.213 -16.394   6.866  1.00  0.00    -0.378 N 
HETATM   20  C   UNL     1      43.113 -15.505   7.625  1.00  0.00     0.150 C 
HETATM   21  C   UNL     1      43.215 -14.128   6.935  1.00  0.00     0.254 C 
BRANCH  19  22
HETATM   22  C   UNL     1      42.794 -17.204   5.886  1.00  0.00     0.031 A 
HETATM   23  C   UNL     1      42.792 -16.887   4.520  1.00  0.00     0.053 A 
HETATM   24  C   UNL     1      43.397 -17.725   3.574  1.00  0.00     0.036 A 
HETATM   25 CL   UNL     1      43.403 -17.258   1.917  1.00  0.00    -0.084 Cl
HETATM   26  C   UNL     1      43.999 -18.915   3.957  1.00  0.00     0.024 A 
HETATM   27  C   UNL     1      43.986 -19.274   5.300  1.00  0.00     0.004 A 
HETATM   28  C   UNL     1      43.389 -18.429   6.243  1.00  0.00     0.029 A 
ENDBRANCH  19  22
ENDBRANCH  14  15
ENDBRANCH  13  14
ENDBRANCH  12  13
ENDBRANCH   9  12
ENDBRANCH   5   8
BRANCH   1  29
HETATM   29  C   UNL     1      38.498 -11.579   0.338  1.00  0.00     0.296 C 
BRANCH  29  30
HETATM   30  C   UNL     1      38.934 -11.154  -1.015  1.00  0.00     0.092 A 
HETATM   31  C   UNL     1      38.660 -11.742  -2.230  1.00  0.00     0.078 A 
HETATM   32  C   UNL     1      37.898 -12.925  -2.674  1.00  0.00     0.079 C 
HETATM   33  O   UNL     1      39.263 -10.997  -3.195  1.00  0.00    -0.294 OA
HETATM   34  C   UNL     1      39.894  -9.985  -2.520  1.00  0.00     0.180 A 
HETATM   35  N   UNL     1      39.724 -10.035  -1.207  1.00  0.00    -0.224 NA
BRANCH  34  36
HETATM   36  C   UNL     1      40.619  -9.015  -3.338  1.00  0.00     0.017 A 
HETATM   37  C   UNL     1      40.172  -8.655  -4.621  1.00  0.00     0.017 A 
HETATM   38  C   UNL     1      40.871  -7.720  -5.389  1.00  0.00     0.025 A 
HETATM   39  C   UNL     1      42.027  -7.133  -4.880  1.00  0.00     0.034 A 
HETATM   40 CL   UNL     1      42.886  -5.980  -5.819  1.00  0.00    -0.084 Cl
HETATM   41  C   UNL     1      42.487  -7.476  -3.611  1.00  0.00     0.025 A 
HETATM   42  C   UNL     1      41.786  -8.414  -2.844  1.00  0.00     0.017 A 
ENDBRANCH  34  36
ENDBRANCH  29  30
ENDBRANCH   1  29
TORSDOF 9
ENDMDL
MODEL 10
REMARK VINA RESULT:      -8.5      2.613      4.700
REMARK  9 active torsions:
REMARK  status: ('A' for Active; 'I' for Inactive)
REMARK    1  A    between atoms: C_4  and  C_5 
REMARK    2  A    between atoms: C_13  and  C_14 
REMARK    3  A    between atoms: C_14  and  N_15 
REMARK    4  A    between atoms: C_19  and  C_20 
REMARK       I    between atoms: C_20  and  N_21 
REMARK    5  A    between atoms: N_21  and  C_22 
REMARK    6  A    between atoms: C_22  and  C_23 
REMARK    7  A    between atoms: C_23  and  C_24 
REMARK    8  A    between atoms: C_24  and  N_25 
REMARK    9  A    between atoms: N_29  and  C_30 
ROOT
HETATM    1  N   UNL     1      43.116  -8.753  11.604  1.00  0.00    -0.066 N 
HETATM    2  H   UNL     1      43.754  -8.199  12.196  1.00  0.00     0.280 HD
HETATM    3  C   UNL     1      43.716 -10.133  11.496  1.00  0.00     0.236 C 
HETATM    4  C   UNL     1      44.992 -10.097  10.659  1.00  0.00     0.042 C 
HETATM    5  C   UNL     1      44.748  -9.512   9.267  1.00  0.00     0.081 C 
HETATM    6  C   UNL     1      44.137  -8.116   9.399  1.00  0.00     0.042 C 
HETATM    7  C   UNL     1      42.902  -8.057  10.287  1.00  0.00     0.236 C 
ENDROOT
BRANCH   5   8
HETATM    8  C   UNL     1      43.863 -10.473   8.475  1.00  0.00     0.221 C 
HETATM    9  N   UNL     1      42.887  -9.866   7.718  1.00  0.00    -0.361 N 
HETATM   10  H   UNL     1      42.786  -8.856   7.761  1.00  0.00     0.162 HD
HETATM   11  O   UNL     1      44.091 -11.679   8.424  1.00  0.00    -0.273 OA
BRANCH   9  12
HETATM   12  C   UNL     1      42.193 -10.566   6.651  1.00  0.00     0.124 C 
BRANCH  12  13
HETATM   13  C   UNL     1      43.091 -10.981   5.480  1.00  0.00     0.047 C 
BRANCH  13  14
HETATM   14  C   UNL     1      42.414 -12.088   4.674  1.00  0.00     0.236 C 
BRANCH  14  15
HETATM   15  N   UNL     1      42.205 -13.345   5.490  1.00  0.00    -0.068 N 
HETATM   16  H   UNL     1      41.741 -13.098   6.375  1.00  0.00     0.280 HD
HETATM   17  C   UNL     1      41.248 -14.306   4.750  1.00  0.00     0.254 C 
HETATM   18  C   UNL     1      41.043 -15.616   5.540  1.00  0.00     0.150 C 
HETATM   19  N   UNL     1      42.330 -16.245   5.881  1.00  0.00    -0.378 N 
HETATM   20  C   UNL     1      43.237 -15.363   6.639  1.00  0.00     0.150 C 
HETATM   21  C   UNL     1      43.516 -14.069   5.844  1.00  0.00     0.254 C 
BRANCH  19  22
HETATM   22  C   UNL     1      42.918 -17.188   5.033  1.00  0.00     0.031 A 
HETATM   23  C   UNL     1      43.456 -18.402   5.482  1.00  0.00     0.053 A 
HETATM   24  C   UNL     1      44.028 -19.323   4.593  1.00  0.00     0.036 A 
HETATM   25 CL   UNL     1      44.630 -20.817   5.199  1.00  0.00    -0.084 Cl
HETATM   26  C   UNL     1      44.101 -19.049   3.235  1.00  0.00     0.024 A 
HETATM   27  C   UNL     1      43.608 -17.838   2.764  1.00  0.00     0.004 A 
HETATM   28  C   UNL     1      43.029 -16.926   3.654  1.00  0.00     0.029 A 
ENDBRANCH  19  22
ENDBRANCH  14  15
ENDBRANCH  13  14
ENDBRANCH  12  13
ENDBRANCH   9  12
ENDBRANCH   5   8
BRANCH   1  29
HETATM   29  C   UNL     1      41.802  -8.765  12.383  1.00  0.00     0.296 C 
BRANCH  29  30
HETATM   30  C   UNL     1      41.796  -7.949  13.621  1.00  0.00     0.092 A 
HETATM   31  C   UNL     1      42.017  -6.597  13.760  1.00  0.00     0.078 A 
HETATM   32  C   UNL     1      42.325  -5.485  12.840  1.00  0.00     0.079 C 
HETATM   33  O   UNL     1      41.901  -6.293  15.081  1.00  0.00    -0.294 OA
HETATM   34  C   UNL     1      41.625  -7.485  15.697  1.00  0.00     0.180 A 
HETATM   35  N   UNL     1      41.550  -8.510  14.861  1.00  0.00    -0.224 NA
BRANCH  34  36
HETATM   36  C   UNL     1      41.436  -7.437  17.145  1.00  0.00     0.017 A 
HETATM   37  C   UNL     1      42.412  -6.890  17.997  1.00  0.00     0.017 A 
HETATM   38  C   UNL     1      42.214  -6.843  19.380  1.00  0.00     0.025 A 
HETATM   39  C   UNL     1      41.035  -7.345  19.926  1.00  0.00     0.034 A 
HETATM   40 CL   UNL     1      40.787  -7.285  21.625  1.00  0.00    -0.084 Cl
HETATM   41  C   UNL     1      40.057  -7.893  19.101  1.00  0.00     0.025 A 
HETATM   42  C   UNL     1      40.257  -7.939  17.716  1.00  0.00     0.017 A 
ENDBRANCH  34  36
ENDBRANCH  29  30
ENDBRANCH   1  29
TORSDOF 9
ENDMDL
