MODEL 1
REMARK VINA RESULT:      -7.7      0.000      0.000
REMARK  5 active torsions:
REMARK  status: ('A' for Active; 'I' for Inactive)
REMARK    1  A    between atoms: C_2  and  O_3 
REMARK    2  A    between atoms: C_4  and  C_5 
REMARK    3  A    between atoms: C_5  and  O_6 
REMARK    4  A    between atoms: C_9  and  C_10 
REMARK    5  A    between atoms: C_22  and  O_23 
ROOT
HETATM    1  C   UNL     1      41.551 -13.058   1.675  1.00  0.00     0.047 C 
HETATM    2  C   UNL     1      42.062 -12.229   2.866  1.00  0.00     0.073 C 
HETATM    3  C   UNL     1      43.261 -12.938   3.581  1.00  0.00     0.133 C 
HETATM    4  C   UNL     1      42.925 -14.107   4.556  1.00  0.00     0.074 C 
HETATM    5  C   UNL     1      41.559 -13.980   5.134  1.00  0.00     0.030 A 
HETATM    6  C   UNL     1      40.661 -12.994   4.784  1.00  0.00     0.042 A 
HETATM    7  N   UNL     1      39.547 -13.179   5.552  1.00  0.00    -0.279 N 
HETATM    8  H   UNL     1      38.690 -12.633   5.569  1.00  0.00     0.189 HD
HETATM    9  N   UNL     1      39.667 -14.221   6.403  1.00  0.00    -0.149 NA
HETATM   10  C   UNL     1      40.889 -14.668   6.147  1.00  0.00     0.190 A 
HETATM   11  C   UNL     1      40.879 -11.893   3.816  1.00  0.00     0.097 C 
ENDROOT
BRANCH   4  12
HETATM   12  C   UNL     1      43.073 -15.483   3.912  1.00  0.00    -0.047 A 
HETATM   13  C   UNL     1      43.521 -16.635   4.580  1.00  0.00     0.027 A 
HETATM   14  C   UNL     1      43.603 -17.861   3.915  1.00  0.00     0.011 A 
HETATM   15 BR   UNL     1      44.203 -19.392   4.847  1.00  0.00    -0.051 Br
HETATM   16  C   UNL     1      43.245 -17.967   2.574  1.00  0.00     0.019 A 
HETATM   17  C   UNL     1      42.800 -16.839   1.893  1.00  0.00     0.002 A 
HETATM   18  C   UNL     1      42.709 -15.612   2.557  1.00  0.00     0.008 A 
ENDBRANCH   4  12
BRANCH   3  19
HETATM   19  C   UNL     1      44.113 -11.914   4.308  1.00  0.00     0.266 C 
HETATM   20  O   UNL     1      44.935 -11.211   3.730  1.00  0.00    -0.265 OA
BRANCH  19  21
HETATM   21  O   UNL     1      43.852 -11.863   5.640  1.00  0.00    -0.326 OA
HETATM   22  C   UNL     1      45.005 -11.674   6.462  1.00  0.00     0.213 C 
ENDBRANCH  19  21
ENDBRANCH   3  19
BRANCH   2  23
HETATM   23  O   UNL     1      42.499 -10.986   2.285  1.00  0.00    -0.389 OA
HETATM   24  H   UNL     1      42.451 -10.288   2.964  1.00  0.00     0.210 HD
ENDBRANCH   2  23
BRANCH  10  25
HETATM   25  O   UNL     1      41.289 -15.691   6.893  1.00  0.00    -0.343 OA
HETATM   26  H   UNL     1      41.514 -16.387   6.254  1.00  0.00     0.219 HD
ENDBRANCH  10  25
TORSDOF 5
ENDMDL
MODEL 2
REMARK VINA RESULT:      -7.7      2.058      2.804
REMARK  5 active torsions:
REMARK  status: ('A' for Active; 'I' for Inactive)
REMARK    1  A    between atoms: C_2  and  O_3 
REMARK    2  A    between atoms: C_4  and  C_5 
REMARK    3  A    between atoms: C_5  and  O_6 
REMARK    4  A    between atoms: C_9  and  C_10 
REMARK    5  A    between atoms: C_22  and  O_23 
ROOT
HETATM    1  C   UNL     1      39.899 -16.080   3.546  1.00  0.00     0.047 C 
HETATM    2  C   UNL     1      40.690 -14.761   3.531  1.00  0.00     0.073 C 
HETATM    3  C   UNL     1      42.099 -14.948   2.875  1.00  0.00     0.133 C 
HETATM    4  C   UNL     1      43.218 -15.593   3.748  1.00  0.00     0.074 C 
HETATM    5  C   UNL     1      42.992 -15.370   5.203  1.00  0.00     0.030 A 
HETATM    6  C   UNL     1      41.881 -14.742   5.724  1.00  0.00     0.042 A 
HETATM    7  N   UNL     1      42.054 -14.685   7.078  1.00  0.00    -0.279 N 
HETATM    8  H   UNL     1      41.440 -14.283   7.780  1.00  0.00     0.189 HD
HETATM    9  N   UNL     1      43.227 -15.224   7.477  1.00  0.00    -0.149 NA
HETATM   10  C   UNL     1      43.777 -15.606   6.332  1.00  0.00     0.190 A 
HETATM   11  C   UNL     1      40.745 -14.167   4.967  1.00  0.00     0.097 C 
ENDROOT
BRANCH   4  12
HETATM   12  C   UNL     1      43.389 -17.088   3.490  1.00  0.00    -0.047 A 
HETATM   13  C   UNL     1      43.704 -18.039   4.475  1.00  0.00     0.027 A 
HETATM   14  C   UNL     1      43.818 -19.393   4.151  1.00  0.00     0.011 A 
HETATM   15 BR   UNL     1      44.235 -20.646   5.505  1.00  0.00    -0.051 Br
HETATM   16  C   UNL     1      43.626 -19.830   2.844  1.00  0.00     0.019 A 
HETATM   17  C   UNL     1      43.315 -18.905   1.853  1.00  0.00     0.002 A 
HETATM   18  C   UNL     1      43.192 -17.550   2.173  1.00  0.00     0.008 A 
ENDBRANCH   4  12
BRANCH   3  19
HETATM   19  C   UNL     1      42.599 -13.624   2.327  1.00  0.00     0.266 C 
HETATM   20  O   UNL     1      42.078 -13.070   1.364  1.00  0.00    -0.265 OA
BRANCH  19  21
HETATM   21  O   UNL     1      43.657 -13.133   3.021  1.00  0.00    -0.326 OA
HETATM   22  C   UNL     1      43.481 -11.801   3.504  1.00  0.00     0.213 C 
ENDBRANCH  19  21
ENDBRANCH   3  19
BRANCH   2  23
HETATM   23  O   UNL     1      39.890 -13.864   2.737  1.00  0.00    -0.389 OA
HETATM   24  H   UNL     1      40.483 -13.307   2.200  1.00  0.00     0.210 HD
ENDBRANCH   2  23
BRANCH  10  25
HETATM   25  O   UNL     1      44.987 -16.144   6.433  1.00  0.00    -0.343 OA
HETATM   26  H   UNL     1      45.364 -15.748   7.236  1.00  0.00     0.219 HD
ENDBRANCH  10  25
TORSDOF 5
ENDMDL
MODEL 3
REMARK VINA RESULT:      -7.5      1.139      1.642
REMARK  5 active torsions:
REMARK  status: ('A' for Active; 'I' for Inactive)
REMARK    1  A    between atoms: C_2  and  O_3 
REMARK    2  A    between atoms: C_4  and  C_5 
REMARK    3  A    between atoms: C_5  and  O_6 
REMARK    4  A    between atoms: C_9  and  C_10 
REMARK    5  A    between atoms: C_22  and  O_23 
ROOT
HETATM    1  C   UNL     1      42.994 -12.322   3.102  1.00  0.00     0.047 C 
HETATM    2  C   UNL     1      43.138 -11.943   4.586  1.00  0.00     0.073 C 
HETATM    3  C   UNL     1      43.878 -13.062   5.391  1.00  0.00     0.133 C 
HETATM    4  C   UNL     1      43.051 -14.317   5.805  1.00  0.00     0.074 C 
HETATM    5  C   UNL     1      41.599 -14.014   5.931  1.00  0.00     0.030 A 
HETATM    6  C   UNL     1      41.037 -12.790   5.634  1.00  0.00     0.042 A 
HETATM    7  N   UNL     1      39.704 -12.885   5.916  1.00  0.00    -0.279 N 
HETATM    8  H   UNL     1      38.984 -12.174   5.827  1.00  0.00     0.189 HD
HETATM    9  N   UNL     1      39.358 -14.097   6.401  1.00  0.00    -0.149 NA
HETATM   10  C   UNL     1      40.516 -14.746   6.420  1.00  0.00     0.190 A 
HETATM   11  C   UNL     1      41.745 -11.574   5.169  1.00  0.00     0.097 C 
ENDROOT
BRANCH   4  12
HETATM   12  C   UNL     1      43.237 -15.496   4.853  1.00  0.00    -0.047 A 
HETATM   13  C   UNL     1      43.604 -16.793   5.249  1.00  0.00     0.027 A 
HETATM   14  C   UNL     1      43.729 -17.819   4.308  1.00  0.00     0.011 A 
HETATM   15 BR   UNL     1      44.216 -19.555   4.878  1.00  0.00    -0.051 Br
HETATM   16  C   UNL     1      43.496 -17.578   2.958  1.00  0.00     0.019 A 
HETATM   17  C   UNL     1      43.134 -16.300   2.544  1.00  0.00     0.002 A 
HETATM   18  C   UNL     1      43.000 -15.272   3.482  1.00  0.00     0.008 A 
ENDBRANCH   4  12
BRANCH   3  19
HETATM   19  C   UNL     1      44.533 -12.470   6.626  1.00  0.00     0.266 C 
HETATM   20  O   UNL     1      44.062 -12.604   7.750  1.00  0.00    -0.265 OA
BRANCH  19  21
HETATM   21  O   UNL     1      45.682 -11.804   6.343  1.00  0.00    -0.326 OA
HETATM   22  C   UNL     1      46.048 -10.819   7.311  1.00  0.00     0.213 C 
ENDBRANCH  19  21
ENDBRANCH   3  19
BRANCH   2  23
HETATM   23  O   UNL     1      43.923 -10.736   4.581  1.00  0.00    -0.389 OA
HETATM   24  H   UNL     1      44.862 -10.973   4.474  1.00  0.00     0.210 HD
ENDBRANCH   2  23
BRANCH  10  25
HETATM   25  O   UNL     1      40.469 -15.980   6.905  1.00  0.00    -0.343 OA
HETATM   26  H   UNL     1      41.328 -16.104   7.342  1.00  0.00     0.219 HD
ENDBRANCH  10  25
TORSDOF 5
ENDMDL
MODEL 4
REMARK VINA RESULT:      -7.4      2.400      4.135
REMARK  5 active torsions:
REMARK  status: ('A' for Active; 'I' for Inactive)
REMARK    1  A    between atoms: C_2  and  O_3 
REMARK    2  A    between atoms: C_4  and  C_5 
REMARK    3  A    between atoms: C_5  and  O_6 
REMARK    4  A    between atoms: C_9  and  C_10 
REMARK    5  A    between atoms: C_22  and  O_23 
ROOT
HETATM    1  C   UNL     1      40.485 -14.365   6.292  1.00  0.00     0.047 C 
HETATM    2  C   UNL     1      40.105 -13.015   5.661  1.00  0.00     0.073 C 
HETATM    3  C   UNL     1      40.263 -13.048   4.105  1.00  0.00     0.133 C 
HETATM    4  C   UNL     1      41.703 -12.899   3.525  1.00  0.00     0.074 C 
HETATM    5  C   UNL     1      42.601 -12.148   4.444  1.00  0.00     0.030 A 
HETATM    6  C   UNL     1      42.232 -11.709   5.698  1.00  0.00     0.042 A 
HETATM    7  N   UNL     1      43.298 -11.027   6.212  1.00  0.00    -0.279 N 
HETATM    8  H   UNL     1      43.379 -10.560   7.110  1.00  0.00     0.189 HD
HETATM    9  N   UNL     1      44.344 -10.976   5.359  1.00  0.00    -0.149 NA
HETATM   10  C   UNL     1      43.892 -11.635   4.301  1.00  0.00     0.190 A 
HETATM   11  C   UNL     1      40.909 -11.873   6.345  1.00  0.00     0.097 C 
ENDROOT
BRANCH   4  12
HETATM   12  C   UNL     1      42.347 -14.238   3.176  1.00  0.00    -0.047 A 
HETATM   13  C   UNL     1      42.861 -15.147   4.116  1.00  0.00     0.027 A 
HETATM   14  C   UNL     1      43.413 -16.364   3.706  1.00  0.00     0.011 A 
HETATM   15 BR   UNL     1      44.089 -17.567   4.999  1.00  0.00    -0.051 Br
HETATM   16  C   UNL     1      43.470 -16.700   2.357  1.00  0.00     0.019 A 
HETATM   17  C   UNL     1      42.968 -15.814   1.410  1.00  0.00     0.002 A 
HETATM   18  C   UNL     1      42.407 -14.599   1.815  1.00  0.00     0.008 A 
ENDBRANCH   4  12
BRANCH   3  19
HETATM   19  C   UNL     1      39.361 -12.008   3.466  1.00  0.00     0.266 C 
HETATM   20  O   UNL     1      39.338 -10.838   3.837  1.00  0.00    -0.265 OA
BRANCH  19  21
HETATM   21  O   UNL     1      38.613 -12.512   2.452  1.00  0.00    -0.326 OA
HETATM   22  C   UNL     1      38.076 -11.528   1.567  1.00  0.00     0.213 C 
ENDBRANCH  19  21
ENDBRANCH   3  19
BRANCH   2  23
HETATM   23  O   UNL     1      38.722 -12.823   6.014  1.00  0.00    -0.389 OA
HETATM   24  H   UNL     1      38.168 -13.039   5.241  1.00  0.00     0.210 HD
ENDBRANCH   2  23
BRANCH  10  25
HETATM   25  O   UNL     1      44.726 -11.700   3.271  1.00  0.00    -0.343 OA
HETATM   26  H   UNL     1      45.465 -12.244   3.589  1.00  0.00     0.219 HD
ENDBRANCH  10  25
TORSDOF 5
ENDMDL
MODEL 5
REMARK VINA RESULT:      -7.1      3.236      6.038
REMARK  5 active torsions:
REMARK  status: ('A' for Active; 'I' for Inactive)
REMARK    1  A    between atoms: C_2  and  O_3 
REMARK    2  A    between atoms: C_4  and  C_5 
REMARK    3  A    between atoms: C_5  and  O_6 
REMARK    4  A    between atoms: C_9  and  C_10 
REMARK    5  A    between atoms: C_22  and  O_23 
ROOT
HETATM    1  C   UNL     1      39.839 -12.062   6.586  1.00  0.00     0.047 C 
HETATM    2  C   UNL     1      40.356 -13.346   5.916  1.00  0.00     0.073 C 
HETATM    3  C   UNL     1      41.809 -13.689   6.385  1.00  0.00     0.133 C 
HETATM    4  C   UNL     1      42.981 -12.892   5.733  1.00  0.00     0.074 C 
HETATM    5  C   UNL     1      42.633 -12.396   4.373  1.00  0.00     0.030 A 
HETATM    6  C   UNL     1      41.392 -12.546   3.791  1.00  0.00     0.042 A 
HETATM    7  N   UNL     1      41.473 -12.008   2.538  1.00  0.00    -0.279 N 
HETATM    8  H   UNL     1      40.753 -11.952   1.824  1.00  0.00     0.189 HD
HETATM    9  N   UNL     1      42.703 -11.529   2.254  1.00  0.00    -0.149 NA
HETATM   10  C   UNL     1      43.383 -11.794   3.363  1.00  0.00     0.190 A 
HETATM   11  C   UNL     1      40.211 -13.226   4.373  1.00  0.00     0.097 C 
ENDROOT
BRANCH   4  12
HETATM   12  C   UNL     1      43.455 -11.721   6.590  1.00  0.00    -0.047 A 
HETATM   13  C   UNL     1      42.736 -10.530   6.784  1.00  0.00     0.027 A 
HETATM   14  C   UNL     1      43.238  -9.518   7.607  1.00  0.00     0.011 A 
HETATM   15 BR   UNL     1      42.239  -7.931   7.852  1.00  0.00    -0.051 Br
HETATM   16  C   UNL     1      44.464  -9.666   8.248  1.00  0.00     0.019 A 
HETATM   17  C   UNL     1      45.193 -10.837   8.068  1.00  0.00     0.002 A 
HETATM   18  C   UNL     1      44.691 -11.856   7.253  1.00  0.00     0.008 A 
ENDBRANCH   4  12
BRANCH   3  19
HETATM   19  C   UNL     1      42.071 -15.175   6.227  1.00  0.00     0.266 C 
HETATM   20  O   UNL     1      41.584 -16.014   6.978  1.00  0.00    -0.265 OA
BRANCH  19  21
HETATM   21  O   UNL     1      42.880 -15.458   5.173  1.00  0.00    -0.326 OA
HETATM   22  C   UNL     1      42.301 -16.331   4.202  1.00  0.00     0.213 C 
ENDBRANCH  19  21
ENDBRANCH   3  19
BRANCH   2  23
HETATM   23  O   UNL     1      39.443 -14.375   6.343  1.00  0.00    -0.389 OA
HETATM   24  H   UNL     1      39.880 -15.241   6.248  1.00  0.00     0.210 HD
ENDBRANCH   2  23
BRANCH  10  25
HETATM   25  O   UNL     1      44.666 -11.455   3.338  1.00  0.00    -0.343 OA
HETATM   26  H   UNL     1      44.809 -10.978   4.172  1.00  0.00     0.219 HD
ENDBRANCH  10  25
TORSDOF 5
ENDMDL
MODEL 6
REMARK VINA RESULT:      -7.1      3.012      4.056
REMARK  5 active torsions:
REMARK  status: ('A' for Active; 'I' for Inactive)
REMARK    1  A    between atoms: C_2  and  O_3 
REMARK    2  A    between atoms: C_4  and  C_5 
REMARK    3  A    between atoms: C_5  and  O_6 
REMARK    4  A    between atoms: C_9  and  C_10 
REMARK    5  A    between atoms: C_22  and  O_23 
ROOT
HETATM    1  C   UNL     1      40.161 -13.551   5.598  1.00  0.00     0.047 C 
HETATM    2  C   UNL     1      41.660 -13.315   5.848  1.00  0.00     0.073 C 
HETATM    3  C   UNL     1      42.417 -12.995   4.516  1.00  0.00     0.133 C 
HETATM    4  C   UNL     1      42.774 -14.194   3.586  1.00  0.00     0.074 C 
HETATM    5  C   UNL     1      42.912 -15.468   4.345  1.00  0.00     0.030 A 
HETATM    6  C   UNL     1      42.668 -15.592   5.696  1.00  0.00     0.042 A 
HETATM    7  N   UNL     1      42.944 -16.888   6.033  1.00  0.00    -0.279 N 
HETATM    8  H   UNL     1      42.885 -17.332   6.944  1.00  0.00     0.189 HD
HETATM    9  N   UNL     1      43.375 -17.619   4.983  1.00  0.00    -0.149 NA
HETATM   10  C   UNL     1      43.367 -16.739   3.990  1.00  0.00     0.190 A 
HETATM   11  C   UNL     1      42.257 -14.518   6.630  1.00  0.00     0.097 C 
ENDROOT
BRANCH   4  12
HETATM   12  C   UNL     1      41.771 -14.391   2.452  1.00  0.00    -0.047 A 
HETATM   13  C   UNL     1      41.661 -13.553   1.329  1.00  0.00     0.027 A 
HETATM   14  C   UNL     1      40.727 -13.823   0.325  1.00  0.00     0.011 A 
HETATM   15 BR   UNL     1      40.612 -12.679  -1.176  1.00  0.00    -0.051 Br
HETATM   16  C   UNL     1      39.884 -14.926   0.417  1.00  0.00     0.019 A 
HETATM   17  C   UNL     1      39.975 -15.767   1.521  1.00  0.00     0.002 A 
HETATM   18  C   UNL     1      40.913 -15.506   2.524  1.00  0.00     0.008 A 
ENDBRANCH   4  12
BRANCH   3  19
HETATM   19  C   UNL     1      43.677 -12.201   4.808  1.00  0.00     0.266 C 
HETATM   20  O   UNL     1      44.089 -11.319   4.062  1.00  0.00    -0.265 OA
BRANCH  19  21
HETATM   21  O   UNL     1      44.269 -12.567   5.974  1.00  0.00    -0.326 OA
HETATM   22  C   UNL     1      45.215 -11.623   6.478  1.00  0.00     0.213 C 
ENDBRANCH  19  21
ENDBRANCH   3  19
BRANCH   2  23
HETATM   23  O   UNL     1      41.709 -12.177   6.729  1.00  0.00    -0.389 OA
HETATM   24  H   UNL     1      41.351 -11.401   6.260  1.00  0.00     0.210 HD
ENDBRANCH   2  23
BRANCH  10  25
HETATM   25  O   UNL     1      43.797 -17.196   2.821  1.00  0.00    -0.343 OA
HETATM   26  H   UNL     1      44.138 -18.085   3.016  1.00  0.00     0.219 HD
ENDBRANCH  10  25
TORSDOF 5
ENDMDL
MODEL 7
REMARK VINA RESULT:      -7.1      2.711      3.944
REMARK  5 active torsions:
REMARK  status: ('A' for Active; 'I' for Inactive)
REMARK    1  A    between atoms: C_2  and  O_3 
REMARK    2  A    between atoms: C_4  and  C_5 
REMARK    3  A    between atoms: C_5  and  O_6 
REMARK    4  A    between atoms: C_9  and  C_10 
REMARK    5  A    between atoms: C_22  and  O_23 
ROOT
HETATM    1  C   UNL     1      43.480 -12.039   3.747  1.00  0.00     0.047 C 
HETATM    2  C   UNL     1      42.128 -11.410   3.373  1.00  0.00     0.073 C 
HETATM    3  C   UNL     1      40.960 -12.030   4.210  1.00  0.00     0.133 C 
HETATM    4  C   UNL     1      40.419 -13.424   3.767  1.00  0.00     0.074 C 
HETATM    5  C   UNL     1      40.635 -13.673   2.315  1.00  0.00     0.030 A 
HETATM    6  C   UNL     1      41.310 -12.811   1.477  1.00  0.00     0.042 A 
HETATM    7  N   UNL     1      41.262 -13.355   0.224  1.00  0.00    -0.279 N 
HETATM    8  H   UNL     1      41.646 -12.989  -0.642  1.00  0.00     0.189 HD
HETATM    9  N   UNL     1      40.576 -14.518   0.187  1.00  0.00    -0.149 NA
HETATM   10  C   UNL     1      40.194 -14.673   1.448  1.00  0.00     0.190 A 
HETATM   11  C   UNL     1      41.912 -11.506   1.836  1.00  0.00     0.097 C 
ENDROOT
BRANCH   4  12
HETATM   12  C   UNL     1      41.016 -14.578   4.569  1.00  0.00    -0.047 A 
HETATM   13  C   UNL     1      41.988 -15.470   4.084  1.00  0.00     0.027 A 
HETATM   14  C   UNL     1      42.495 -16.485   4.899  1.00  0.00     0.011 A 
HETATM   15 BR   UNL     1      43.808 -17.663   4.216  1.00  0.00    -0.051 Br
HETATM   16  C   UNL     1      42.047 -16.638   6.207  1.00  0.00     0.019 A 
HETATM   17  C   UNL     1      41.084 -15.767   6.706  1.00  0.00     0.002 A 
HETATM   18  C   UNL     1      40.579 -14.745   5.898  1.00  0.00     0.008 A 
ENDBRANCH   4  12
BRANCH   3  19
HETATM   19  C   UNL     1      39.802 -11.053   4.294  1.00  0.00     0.266 C 
HETATM   20  O   UNL     1      38.870 -11.064   3.496  1.00  0.00    -0.265 OA
BRANCH  19  21
HETATM   21  O   UNL     1      39.912 -10.196   5.342  1.00  0.00    -0.326 OA
HETATM   22  C   UNL     1      39.616 -10.776   6.614  1.00  0.00     0.213 C 
ENDBRANCH  19  21
ENDBRANCH   3  19
BRANCH   2  23
HETATM   23  O   UNL     1      42.274 -10.013   3.689  1.00  0.00    -0.389 OA
HETATM   24  H   UNL     1      42.003  -9.486   2.915  1.00  0.00     0.210 HD
ENDBRANCH   2  23
BRANCH  10  25
HETATM   25  O   UNL     1      39.448 -15.744   1.690  1.00  0.00    -0.343 OA
HETATM   26  H   UNL     1      38.548 -15.395   1.802  1.00  0.00     0.219 HD
ENDBRANCH  10  25
TORSDOF 5
ENDMDL
MODEL 8
REMARK VINA RESULT:      -7.1      2.522      4.334
REMARK  5 active torsions:
REMARK  status: ('A' for Active; 'I' for Inactive)
REMARK    1  A    between atoms: C_2  and  O_3 
REMARK    2  A    between atoms: C_4  and  C_5 
REMARK    3  A    between atoms: C_5  and  O_6 
REMARK    4  A    between atoms: C_9  and  C_10 
REMARK    5  A    between atoms: C_22  and  O_23 
ROOT
HETATM    1  C   UNL     1      39.041 -13.544   3.161  1.00  0.00     0.047 C 
HETATM    2  C   UNL     1      39.434 -12.480   2.122  1.00  0.00     0.073 C 
HETATM    3  C   UNL     1      40.596 -12.983   1.203  1.00  0.00     0.133 C 
HETATM    4  C   UNL     1      42.043 -12.933   1.782  1.00  0.00     0.074 C 
HETATM    5  C   UNL     1      42.193 -11.881   2.825  1.00  0.00     0.030 A 
HETATM    6  C   UNL     1      41.155 -11.100   3.288  1.00  0.00     0.042 A 
HETATM    7  N   UNL     1      41.687 -10.228   4.196  1.00  0.00    -0.279 N 
HETATM    8  H   UNL     1      41.218  -9.502   4.729  1.00  0.00     0.189 HD
HETATM    9  N   UNL     1      43.021 -10.379   4.344  1.00  0.00    -0.149 NA
HETATM   10  C   UNL     1      43.300 -11.360   3.495  1.00  0.00     0.190 A 
HETATM   11  C   UNL     1      39.743 -11.136   2.840  1.00  0.00     0.097 C 
ENDROOT
BRANCH   4  12
HETATM   12  C   UNL     1      42.506 -14.273   2.350  1.00  0.00    -0.047 A 
HETATM   13  C   UNL     1      42.481 -14.614   3.712  1.00  0.00     0.027 A 
HETATM   14  C   UNL     1      42.904 -15.876   4.140  1.00  0.00     0.011 A 
HETATM   15 BR   UNL     1      42.850 -16.305   5.981  1.00  0.00    -0.051 Br
HETATM   16  C   UNL     1      43.361 -16.820   3.226  1.00  0.00     0.019 A 
HETATM   17  C   UNL     1      43.395 -16.502   1.873  1.00  0.00     0.002 A 
HETATM   18  C   UNL     1      42.966 -15.244   1.439  1.00  0.00     0.008 A 
ENDBRANCH   4  12
BRANCH   3  19
HETATM   19  C   UNL     1      40.567 -12.248  -0.124  1.00  0.00     0.266 C 
HETATM   20  O   UNL     1      41.201 -11.217  -0.321  1.00  0.00    -0.265 OA
BRANCH  19  21
HETATM   21  O   UNL     1      39.786 -12.864  -1.049  1.00  0.00    -0.326 OA
HETATM   22  C   UNL     1      39.845 -14.291  -1.018  1.00  0.00     0.213 C 
ENDBRANCH  19  21
ENDBRANCH   3  19
BRANCH   2  23
HETATM   23  O   UNL     1      38.241 -12.274   1.342  1.00  0.00    -0.389 OA
HETATM   24  H   UNL     1      37.551 -11.896   1.918  1.00  0.00     0.210 HD
ENDBRANCH   2  23
BRANCH  10  25
HETATM   25  O   UNL     1      44.583 -11.689   3.407  1.00  0.00    -0.343 OA
HETATM   26  H   UNL     1      44.831 -11.952   4.309  1.00  0.00     0.219 HD
ENDBRANCH  10  25
TORSDOF 5
ENDMDL
MODEL 9
REMARK VINA RESULT:      -6.9      8.299     10.462
REMARK  5 active torsions:
REMARK  status: ('A' for Active; 'I' for Inactive)
REMARK    1  A    between atoms: C_2  and  O_3 
REMARK    2  A    between atoms: C_4  and  C_5 
REMARK    3  A    between atoms: C_5  and  O_6 
REMARK    4  A    between atoms: C_9  and  C_10 
REMARK    5  A    between atoms: C_22  and  O_23 
ROOT
HETATM    1  C   UNL     1      42.286  -6.307   9.913  1.00  0.00     0.047 C 
HETATM    2  C   UNL     1      41.438  -7.496   9.428  1.00  0.00     0.073 C 
HETATM    3  C   UNL     1      40.607  -8.118  10.599  1.00  0.00     0.133 C 
HETATM    4  C   UNL     1      41.353  -9.069  11.584  1.00  0.00     0.074 C 
HETATM    5  C   UNL     1      42.528  -9.726  10.946  1.00  0.00     0.030 A 
HETATM    6  C   UNL     1      42.958  -9.461   9.663  1.00  0.00     0.042 A 
HETATM    7  N   UNL     1      44.023 -10.283   9.422  1.00  0.00    -0.279 N 
HETATM    8  H   UNL     1      44.582 -10.366   8.579  1.00  0.00     0.189 HD
HETATM    9  N   UNL     1      44.306 -11.089  10.468  1.00  0.00    -0.149 NA
HETATM   10  C   UNL     1      43.382 -10.750  11.358  1.00  0.00     0.190 A 
HETATM   11  C   UNL     1      42.347  -8.521   8.694  1.00  0.00     0.097 C 
ENDROOT
BRANCH   4  12
HETATM   12  C   UNL     1      41.802  -8.370  12.864  1.00  0.00    -0.047 A 
HETATM   13  C   UNL     1      41.078  -8.365  14.068  1.00  0.00     0.027 A 
HETATM   14  C   UNL     1      41.578  -7.716  15.200  1.00  0.00     0.011 A 
HETATM   15 BR   UNL     1      40.580  -7.736  16.806  1.00  0.00    -0.051 Br
HETATM   16  C   UNL     1      42.804  -7.059  15.159  1.00  0.00     0.019 A 
HETATM   17  C   UNL     1      43.536  -7.050  13.977  1.00  0.00     0.002 A 
HETATM   18  C   UNL     1      43.044  -7.704  12.844  1.00  0.00     0.008 A 
ENDBRANCH   4  12
BRANCH   3  19
HETATM   19  C   UNL     1      39.386  -8.832  10.050  1.00  0.00     0.266 C 
HETATM   20  O   UNL     1      39.417 -10.000   9.675  1.00  0.00    -0.265 OA
BRANCH  19  21
HETATM   21  O   UNL     1      38.279  -8.046  10.037  1.00  0.00    -0.326 OA
HETATM   22  C   UNL     1      38.208  -7.107  11.111  1.00  0.00     0.213 C 
ENDBRANCH  19  21
ENDBRANCH   3  19
BRANCH   2  23
HETATM   23  O   UNL     1      40.555  -6.935   8.439  1.00  0.00    -0.389 OA
HETATM   24  H   UNL     1      41.085  -6.644   7.674  1.00  0.00     0.210 HD
ENDBRANCH   2  23
BRANCH  10  25
HETATM   25  O   UNL     1      43.406 -11.436  12.493  1.00  0.00    -0.343 OA
HETATM   26  H   UNL     1      43.098 -10.807  13.166  1.00  0.00     0.219 HD
ENDBRANCH  10  25
TORSDOF 5
ENDMDL
MODEL 10
REMARK VINA RESULT:      -6.8      7.550      9.491
REMARK  5 active torsions:
REMARK  status: ('A' for Active; 'I' for Inactive)
REMARK    1  A    between atoms: C_2  and  O_3 
REMARK    2  A    between atoms: C_4  and  C_5 
REMARK    3  A    between atoms: C_5  and  O_6 
REMARK    4  A    between atoms: C_9  and  C_10 
REMARK    5  A    between atoms: C_22  and  O_23 
ROOT
HETATM    1  C   UNL     1      43.107  -6.259   9.677  1.00  0.00     0.047 C 
HETATM    2  C   UNL     1      42.979  -7.392   8.645  1.00  0.00     0.073 C 
HETATM    3  C   UNL     1      41.779  -8.338   8.982  1.00  0.00     0.133 C 
HETATM    4  C   UNL     1      41.994  -9.401  10.103  1.00  0.00     0.074 C 
HETATM    5  C   UNL     1      43.427  -9.778  10.248  1.00  0.00     0.030 A 
HETATM    6  C   UNL     1      44.455  -9.196   9.538  1.00  0.00     0.042 A 
HETATM    7  N   UNL     1      45.606  -9.832   9.908  1.00  0.00    -0.279 N 
HETATM    8  H   UNL     1      46.553  -9.671   9.581  1.00  0.00     0.189 HD
HETATM    9  N   UNL     1      45.392 -10.814  10.810  1.00  0.00    -0.149 NA
HETATM   10  C   UNL     1      44.076 -10.774  10.979  1.00  0.00     0.190 A 
HETATM   11  C   UNL     1      44.338  -8.134   8.511  1.00  0.00     0.097 C 
ENDROOT
BRANCH   4  12
HETATM   12  C   UNL     1      41.451  -8.957  11.459  1.00  0.00    -0.047 A 
HETATM   13  C   UNL     1      42.202  -8.289  12.441  1.00  0.00     0.027 A 
HETATM   14  C   UNL     1      41.614  -7.899  13.647  1.00  0.00     0.011 A 
HETATM   15 BR   UNL     1      42.652  -6.995  14.943  1.00  0.00    -0.051 Br
HETATM   16  C   UNL     1      40.273  -8.166  13.903  1.00  0.00     0.019 A 
HETATM   17  C   UNL     1      39.512  -8.827  12.945  1.00  0.00     0.002 A 
HETATM   18  C   UNL     1      40.093  -9.213  11.734  1.00  0.00     0.008 A 
ENDBRANCH   4  12
BRANCH   3  19
HETATM   19  C   UNL     1      41.294  -9.035   7.724  1.00  0.00     0.266 C 
HETATM   20  O   UNL     1      42.063  -9.516   6.898  1.00  0.00    -0.265 OA
BRANCH  19  21
HETATM   21  O   UNL     1      39.939  -9.073   7.634  1.00  0.00    -0.326 OA
HETATM   22  C   UNL     1      39.303  -7.800   7.748  1.00  0.00     0.213 C 
ENDBRANCH  19  21
ENDBRANCH   3  19
BRANCH   2  23
HETATM   23  O   UNL     1      42.742  -6.722   7.393  1.00  0.00    -0.389 OA
HETATM   24  H   UNL     1      43.588  -6.363   7.064  1.00  0.00     0.210 HD
ENDBRANCH   2  23
BRANCH  10  25
HETATM   25  O   UNL     1      43.580 -11.687  11.805  1.00  0.00    -0.343 OA
HETATM   26  H   UNL     1      44.329 -12.276  11.997  1.00  0.00     0.219 HD
ENDBRANCH  10  25
TORSDOF 5
ENDMDL
