MODEL 1
REMARK VINA RESULT:      -9.6      0.000      0.000
REMARK  4 active torsions:
REMARK  status: ('A' for Active; 'I' for Inactive)
REMARK    1  A    between atoms: C_2  and  C_3 
REMARK       I    between atoms: C_3  and  N_4 
REMARK    2  A    between atoms: N_4  and  N_5 
REMARK    3  A    between atoms: N_5  and  C_6 
REMARK    4  A    between atoms: N_7  and  C_8 
ROOT
HETATM    1  C   UNL     1      42.571 -13.217   5.916  1.00  0.00     0.729 C 
HETATM    2  N   UNL     1      41.761 -12.451   5.079  1.00  0.00    -0.108 N 
HETATM    3  C   UNL     1      41.170 -13.053   3.975  1.00  0.00     0.276 C 
HETATM    4  O   UNL     1      40.154 -12.644   3.414  1.00  0.00    -0.266 OA
HETATM    5  C   UNL     1      41.841 -14.283   3.458  1.00  0.00     0.050 C 
HETATM    6  C   UNL     1      42.668 -14.893   4.327  1.00  0.00     0.099 C 
HETATM    7  C   UNL     1      43.227 -16.225   3.975  1.00  0.00     0.000 A 
HETATM    8  C   UNL     1      43.194 -16.676   2.649  1.00  0.00    -0.044 A 
HETATM    9  C   UNL     1      43.721 -17.932   2.311  1.00  0.00     0.008 A 
HETATM   10  C   UNL     1      44.262 -18.756   3.297  1.00  0.00     0.001 A 
HETATM   11  C   UNL     1      44.291 -18.324   4.619  1.00  0.00     0.001 A 
HETATM   12  C   UNL     1      43.779 -17.068   4.954  1.00  0.00     0.014 A 
HETATM   13  C   UNL     1      42.665 -15.764   1.578  1.00  0.00     0.054 C 
HETATM   14  C   UNL     1      41.507 -14.825   2.052  1.00  0.00    -0.002 C 
HETATM   15  C   UNL     1      40.164 -15.606   2.133  1.00  0.00     0.015 C 
HETATM   16  C   UNL     1      39.628 -16.079   0.781  1.00  0.00     0.001 C 
HETATM   17  C   UNL     1      39.554 -14.947  -0.238  1.00  0.00     0.000 C 
HETATM   18  C   UNL     1      40.887 -14.223  -0.385  1.00  0.00     0.001 C 
HETATM   19  C   UNL     1      41.392 -13.708   0.966  1.00  0.00     0.015 C 
HETATM   20  N   UNL     1      42.990 -14.403   5.563  1.00  0.00    -0.061 NA
ENDROOT
BRANCH   1  21
HETATM   21  N   UNL     1      42.898 -12.777   7.191  1.00  0.00    -0.127 N 
HETATM   22  H   UNL     1      42.225 -12.222   7.716  1.00  0.00     0.206 HD
BRANCH  21  23
HETATM   23  N   UNL     1      44.227 -12.333   7.358  1.00  0.00    -0.256 N 
HETATM   24  C   UNL     1      44.374 -11.017   7.748  1.00  0.00     0.236 C 
HETATM   25  O   UNL     1      43.428 -10.339   8.152  1.00  0.00    -0.272 OA
HETATM   26  H   UNL     1      44.872 -12.759   6.694  1.00  0.00     0.190 HD
BRANCH  24  27
HETATM   27  C   UNL     1      45.798 -10.498   7.751  1.00  0.00     0.100 C 
HETATM   28  C   UNL     1      45.944  -9.086   8.289  1.00  0.00     0.014 C 
ENDBRANCH  24  27
ENDBRANCH  21  23
ENDBRANCH   1  21
BRANCH   2  29
HETATM   29  C   UNL     1      41.404 -11.105   5.422  1.00  0.00     0.060 A 
HETATM   30  C   UNL     1      40.358 -10.818   6.309  1.00  0.00     0.030 A 
HETATM   31  C   UNL     1      40.035  -9.496   6.631  1.00  0.00     0.002 A 
HETATM   32  C   UNL     1      40.747  -8.443   6.061  1.00  0.00     0.000 A 
HETATM   33  C   UNL     1      41.775  -8.709   5.162  1.00  0.00     0.002 A 
HETATM   34  C   UNL     1      42.096 -10.030   4.838  1.00  0.00     0.030 A 
ENDBRANCH   2  29
TORSDOF 4
ENDMDL
MODEL 2
REMARK VINA RESULT:      -8.7      1.883      7.828
REMARK  4 active torsions:
REMARK  status: ('A' for Active; 'I' for Inactive)
REMARK    1  A    between atoms: C_2  and  C_3 
REMARK       I    between atoms: C_3  and  N_4 
REMARK    2  A    between atoms: N_4  and  N_5 
REMARK    3  A    between atoms: N_5  and  C_6 
REMARK    4  A    between atoms: N_7  and  C_8 
ROOT
HETATM    1  C   UNL     1      41.198 -14.954   4.798  1.00  0.00     0.729 C 
HETATM    2  N   UNL     1      42.432 -15.245   5.378  1.00  0.00    -0.108 N 
HETATM    3  C   UNL     1      43.062 -14.273   6.146  1.00  0.00     0.276 C 
HETATM    4  O   UNL     1      43.899 -14.502   7.018  1.00  0.00    -0.266 OA
HETATM    5  C   UNL     1      42.672 -12.859   5.867  1.00  0.00     0.050 C 
HETATM    6  C   UNL     1      41.500 -12.703   5.224  1.00  0.00     0.099 C 
HETATM    7  C   UNL     1      40.936 -11.335   5.077  1.00  0.00     0.000 A 
HETATM    8  C   UNL     1      41.749 -10.211   5.272  1.00  0.00    -0.044 A 
HETATM    9  C   UNL     1      41.221  -8.918   5.134  1.00  0.00     0.008 A 
HETATM   10  C   UNL     1      39.874  -8.738   4.824  1.00  0.00     0.001 A 
HETATM   11  C   UNL     1      39.054  -9.845   4.638  1.00  0.00     0.001 A 
HETATM   12  C   UNL     1      39.582 -11.133   4.762  1.00  0.00     0.014 A 
HETATM   13  C   UNL     1      43.213 -10.406   5.549  1.00  0.00     0.054 C 
HETATM   14  C   UNL     1      43.542 -11.691   6.379  1.00  0.00    -0.002 C 
HETATM   15  C   UNL     1      43.227 -11.469   7.886  1.00  0.00     0.015 C 
HETATM   16  C   UNL     1      44.124 -10.435   8.571  1.00  0.00     0.001 C 
HETATM   17  C   UNL     1      45.605 -10.718   8.347  1.00  0.00     0.000 C 
HETATM   18  C   UNL     1      45.942 -10.861   6.867  1.00  0.00     0.001 C 
HETATM   19  C   UNL     1      45.075 -11.932   6.200  1.00  0.00     0.015 C 
HETATM   20  N   UNL     1      40.738 -13.733   4.742  1.00  0.00    -0.061 NA
ENDROOT
BRANCH   1  21
HETATM   21  N   UNL     1      40.376 -15.968   4.325  1.00  0.00    -0.127 N 
HETATM   22  H   UNL     1      40.676 -16.937   4.410  1.00  0.00     0.206 HD
BRANCH  21  23
HETATM   23  N   UNL     1      39.723 -15.700   3.102  1.00  0.00    -0.256 N 
HETATM   24  C   UNL     1      40.435 -16.016   1.962  1.00  0.00     0.236 C 
HETATM   25  O   UNL     1      41.461 -16.696   1.992  1.00  0.00    -0.272 OA
HETATM   26  H   UNL     1      39.137 -14.867   3.142  1.00  0.00     0.190 HD
BRANCH  24  27
HETATM   27  C   UNL     1      39.806 -15.562   0.660  1.00  0.00     0.100 C 
HETATM   28  C   UNL     1      40.180 -14.151   0.248  1.00  0.00     0.014 C 
ENDBRANCH  24  27
ENDBRANCH  21  23
ENDBRANCH   1  21
BRANCH   2  29
HETATM   29  C   UNL     1      42.981 -16.568   5.328  1.00  0.00     0.060 A 
HETATM   30  C   UNL     1      42.822 -17.478   6.381  1.00  0.00     0.030 A 
HETATM   31  C   UNL     1      43.364 -18.764   6.304  1.00  0.00     0.002 A 
HETATM   32  C   UNL     1      44.081 -19.155   5.175  1.00  0.00     0.000 A 
HETATM   33  C   UNL     1      44.266 -18.258   4.128  1.00  0.00     0.002 A 
HETATM   34  C   UNL     1      43.728 -16.971   4.207  1.00  0.00     0.030 A 
ENDBRANCH   2  29
TORSDOF 4
ENDMDL
MODEL 3
REMARK VINA RESULT:      -8.7     16.826     19.016
REMARK  4 active torsions:
REMARK  status: ('A' for Active; 'I' for Inactive)
REMARK    1  A    between atoms: C_2  and  C_3 
REMARK       I    between atoms: C_3  and  N_4 
REMARK    2  A    between atoms: N_4  and  N_5 
REMARK    3  A    between atoms: N_5  and  C_6 
REMARK    4  A    between atoms: N_7  and  C_8 
ROOT
HETATM    1  C   UNL     1      46.104 -29.500   0.472  1.00  0.00     0.729 C 
HETATM    2  N   UNL     1      46.503 -29.769  -0.837  1.00  0.00    -0.108 N 
HETATM    3  C   UNL     1      47.652 -30.522  -1.051  1.00  0.00     0.276 C 
HETATM    4  O   UNL     1      47.889 -31.163  -2.074  1.00  0.00    -0.266 OA
HETATM    5  C   UNL     1      48.648 -30.532   0.061  1.00  0.00     0.050 C 
HETATM    6  C   UNL     1      48.168 -30.171   1.265  1.00  0.00     0.099 C 
HETATM    7  C   UNL     1      49.031 -30.338   2.464  1.00  0.00     0.000 A 
HETATM    8  C   UNL     1      50.413 -30.520   2.319  1.00  0.00    -0.044 A 
HETATM    9  C   UNL     1      51.232 -30.677   3.448  1.00  0.00     0.008 A 
HETATM   10  C   UNL     1      50.676 -30.678   4.726  1.00  0.00     0.001 A 
HETATM   11  C   UNL     1      49.305 -30.508   4.883  1.00  0.00     0.001 A 
HETATM   12  C   UNL     1      48.490 -30.337   3.761  1.00  0.00     0.014 A 
HETATM   13  C   UNL     1      51.019 -30.461   0.945  1.00  0.00     0.054 C 
HETATM   14  C   UNL     1      50.093 -31.016  -0.187  1.00  0.00    -0.002 C 
HETATM   15  C   UNL     1      50.096 -32.571  -0.189  1.00  0.00     0.015 C 
HETATM   16  C   UNL     1      51.439 -33.198  -0.569  1.00  0.00     0.001 C 
HETATM   17  C   UNL     1      51.985 -32.638  -1.878  1.00  0.00     0.000 C 
HETATM   18  C   UNL     1      52.061 -31.115  -1.861  1.00  0.00     0.001 C 
HETATM   19  C   UNL     1      50.702 -30.495  -1.528  1.00  0.00     0.015 C 
HETATM   20  N   UNL     1      46.897 -29.714   1.487  1.00  0.00    -0.061 NA
ENDROOT
BRANCH   1  21
HETATM   21  N   UNL     1      44.815 -29.066   0.749  1.00  0.00    -0.127 N 
HETATM   22  H   UNL     1      44.659 -28.094   1.008  1.00  0.00     0.206 HD
BRANCH  21  23
HETATM   23  N   UNL     1      44.015 -29.968   1.484  1.00  0.00    -0.256 N 
HETATM   24  C   UNL     1      42.669 -29.662   1.543  1.00  0.00     0.236 C 
HETATM   25  O   UNL     1      42.155 -28.807   0.821  1.00  0.00    -0.272 OA
HETATM   26  H   UNL     1      44.500 -30.360   2.289  1.00  0.00     0.190 HD
BRANCH  24  27
HETATM   27  C   UNL     1      41.850 -30.528   2.477  1.00  0.00     0.100 C 
HETATM   28  C   UNL     1      40.797 -31.371   1.782  1.00  0.00     0.014 C 
ENDBRANCH  24  27
ENDBRANCH  21  23
ENDBRANCH   1  21
BRANCH   2  29
HETATM   29  C   UNL     1      45.671 -29.420  -1.952  1.00  0.00     0.060 A 
HETATM   30  C   UNL     1      45.841 -28.222  -2.658  1.00  0.00     0.030 A 
HETATM   31  C   UNL     1      45.019 -27.910  -3.745  1.00  0.00     0.002 A 
HETATM   32  C   UNL     1      44.010 -28.788  -4.134  1.00  0.00     0.000 A 
HETATM   33  C   UNL     1      43.814 -29.973  -3.432  1.00  0.00     0.002 A 
HETATM   34  C   UNL     1      44.633 -30.283  -2.343  1.00  0.00     0.030 A 
ENDBRANCH   2  29
TORSDOF 4
ENDMDL
MODEL 4
REMARK VINA RESULT:      -8.5      3.438      7.033
REMARK  4 active torsions:
REMARK  status: ('A' for Active; 'I' for Inactive)
REMARK    1  A    between atoms: C_2  and  C_3 
REMARK       I    between atoms: C_3  and  N_4 
REMARK    2  A    between atoms: N_4  and  N_5 
REMARK    3  A    between atoms: N_5  and  C_6 
REMARK    4  A    between atoms: N_7  and  C_8 
ROOT
HETATM    1  C   UNL     1      40.980 -13.542   0.259  1.00  0.00     0.729 C 
HETATM    2  N   UNL     1      40.843 -12.242   0.744  1.00  0.00    -0.108 N 
HETATM    3  C   UNL     1      41.542 -11.870   1.886  1.00  0.00     0.276 C 
HETATM    4  O   UNL     1      41.841 -10.714   2.180  1.00  0.00    -0.266 OA
HETATM    5  C   UNL     1      41.945 -12.980   2.800  1.00  0.00     0.050 C 
HETATM    6  C   UNL     1      41.959 -14.205   2.244  1.00  0.00     0.099 C 
HETATM    7  C   UNL     1      42.532 -15.340   3.016  1.00  0.00     0.000 A 
HETATM    8  C   UNL     1      42.723 -15.228   4.399  1.00  0.00    -0.044 A 
HETATM    9  C   UNL     1      43.263 -16.296   5.132  1.00  0.00     0.008 A 
HETATM   10  C   UNL     1      43.639 -17.472   4.486  1.00  0.00     0.001 A 
HETATM   11  C   UNL     1      43.464 -17.592   3.112  1.00  0.00     0.001 A 
HETATM   12  C   UNL     1      42.914 -16.535   2.384  1.00  0.00     0.014 A 
HETATM   13  C   UNL     1      42.264 -13.982   5.103  1.00  0.00     0.054 C 
HETATM   14  C   UNL     1      42.393 -12.679   4.247  1.00  0.00    -0.002 C 
HETATM   15  C   UNL     1      43.868 -12.186   4.212  1.00  0.00     0.015 C 
HETATM   16  C   UNL     1      44.404 -11.709   5.563  1.00  0.00     0.001 C 
HETATM   17  C   UNL     1      43.488 -10.679   6.215  1.00  0.00     0.000 C 
HETATM   18  C   UNL     1      42.053 -11.180   6.327  1.00  0.00     0.001 C 
HETATM   19  C   UNL     1      41.506 -11.610   4.962  1.00  0.00     0.015 C 
HETATM   20  N   UNL     1      41.537 -14.483   0.973  1.00  0.00    -0.061 NA
ENDROOT
BRANCH   1  21
HETATM   21  N   UNL     1      40.596 -13.864  -1.035  1.00  0.00    -0.127 N 
HETATM   22  H   UNL     1      41.084 -13.440  -1.822  1.00  0.00     0.206 HD
BRANCH  21  23
HETATM   23  N   UNL     1      39.205 -13.977  -1.246  1.00  0.00    -0.256 N 
HETATM   24  C   UNL     1      38.742 -13.497  -2.456  1.00  0.00     0.236 C 
HETATM   25  O   UNL     1      39.499 -13.207  -3.383  1.00  0.00    -0.272 OA
HETATM   26  H   UNL     1      38.665 -13.855  -0.391  1.00  0.00     0.190 HD
BRANCH  24  27
HETATM   27  C   UNL     1      37.235 -13.457  -2.602  1.00  0.00     0.100 C 
HETATM   28  C   UNL     1      36.677 -12.081  -2.914  1.00  0.00     0.014 C 
ENDBRANCH  24  27
ENDBRANCH  21  23
ENDBRANCH   1  21
BRANCH   2  29
HETATM   29  C   UNL     1      40.125 -11.246   0.003  1.00  0.00     0.060 A 
HETATM   30  C   UNL     1      40.695 -10.580  -1.089  1.00  0.00     0.030 A 
HETATM   31  C   UNL     1      39.970  -9.616  -1.797  1.00  0.00     0.002 A 
HETATM   32  C   UNL     1      38.668  -9.299  -1.416  1.00  0.00     0.000 A 
HETATM   33  C   UNL     1      38.093  -9.937  -0.321  1.00  0.00     0.002 A 
HETATM   34  C   UNL     1      38.819 -10.897   0.388  1.00  0.00     0.030 A 
ENDBRANCH   2  29
TORSDOF 4
ENDMDL
MODEL 5
REMARK VINA RESULT:      -8.5      2.321      6.142
REMARK  4 active torsions:
REMARK  status: ('A' for Active; 'I' for Inactive)
REMARK    1  A    between atoms: C_2  and  C_3 
REMARK       I    between atoms: C_3  and  N_4 
REMARK    2  A    between atoms: N_4  and  N_5 
REMARK    3  A    between atoms: N_5  and  C_6 
REMARK    4  A    between atoms: N_7  and  C_8 
ROOT
HETATM    1  C   UNL     1      40.234 -12.537   3.431  1.00  0.00     0.729 C 
HETATM    2  N   UNL     1      40.479 -11.274   3.968  1.00  0.00    -0.108 N 
HETATM    3  C   UNL     1      41.677 -11.045   4.634  1.00  0.00     0.276 C 
HETATM    4  O   UNL     1      42.195  -9.939   4.786  1.00  0.00    -0.266 OA
HETATM    5  C   UNL     1      42.360 -12.250   5.193  1.00  0.00     0.050 C 
HETATM    6  C   UNL     1      41.979 -13.425   4.657  1.00  0.00     0.099 C 
HETATM    7  C   UNL     1      42.738 -14.654   5.007  1.00  0.00     0.000 A 
HETATM    8  C   UNL     1      43.585 -14.668   6.124  1.00  0.00    -0.044 A 
HETATM    9  C   UNL     1      44.303 -15.827   6.458  1.00  0.00     0.008 A 
HETATM   10  C   UNL     1      44.199 -16.970   5.669  1.00  0.00     0.001 A 
HETATM   11  C   UNL     1      43.370 -16.967   4.553  1.00  0.00     0.001 A 
HETATM   12  C   UNL     1      42.645 -15.818   4.226  1.00  0.00     0.014 A 
HETATM   13  C   UNL     1      43.652 -13.454   7.007  1.00  0.00     0.054 C 
HETATM   14  C   UNL     1      43.479 -12.098   6.245  1.00  0.00    -0.002 C 
HETATM   15  C   UNL     1      44.794 -11.708   5.511  1.00  0.00     0.015 C 
HETATM   16  C   UNL     1      45.962 -11.378   6.443  1.00  0.00     0.001 C 
HETATM   17  C   UNL     1      45.583 -10.343   7.496  1.00  0.00     0.000 C 
HETATM   18  C   UNL     1      44.340 -10.752   8.278  1.00  0.00     0.001 C 
HETATM   19  C   UNL     1      43.161 -11.031   7.341  1.00  0.00     0.015 C 
HETATM   20  N   UNL     1      40.969 -13.569   3.746  1.00  0.00    -0.061 NA
ENDROOT
BRANCH   1  21
HETATM   21  N   UNL     1      39.241 -12.727   2.479  1.00  0.00    -0.127 N 
HETATM   22  H   UNL     1      38.264 -12.668   2.757  1.00  0.00     0.206 HD
BRANCH  21  23
HETATM   23  N   UNL     1      39.487 -13.752   1.541  1.00  0.00    -0.256 N 
HETATM   24  C   UNL     1      39.771 -13.332   0.256  1.00  0.00     0.236 C 
HETATM   25  O   UNL     1      40.026 -12.157  -0.013  1.00  0.00    -0.272 OA
HETATM   26  H   UNL     1      38.924 -14.584   1.709  1.00  0.00     0.190 HD
BRANCH  24  27
HETATM   27  C   UNL     1      39.855 -14.433  -0.781  1.00  0.00     0.100 C 
HETATM   28  C   UNL     1      39.895 -13.936  -2.214  1.00  0.00     0.014 C 
ENDBRANCH  24  27
ENDBRANCH  21  23
ENDBRANCH   1  21
BRANCH   2  29
HETATM   29  C   UNL     1      39.595 -10.174   3.710  1.00  0.00     0.060 A 
HETATM   30  C   UNL     1      38.671  -9.727   4.662  1.00  0.00     0.030 A 
HETATM   31  C   UNL     1      37.824  -8.648   4.386  1.00  0.00     0.002 A 
HETATM   32  C   UNL     1      37.885  -8.010   3.149  1.00  0.00     0.000 A 
HETATM   33  C   UNL     1      38.783  -8.455   2.184  1.00  0.00     0.002 A 
HETATM   34  C   UNL     1      39.626  -9.534   2.459  1.00  0.00     0.030 A 
ENDBRANCH   2  29
TORSDOF 4
ENDMDL
MODEL 6
REMARK VINA RESULT:      -8.5      3.218      6.411
REMARK  4 active torsions:
REMARK  status: ('A' for Active; 'I' for Inactive)
REMARK    1  A    between atoms: C_2  and  C_3 
REMARK       I    between atoms: C_3  and  N_4 
REMARK    2  A    between atoms: N_4  and  N_5 
REMARK    3  A    between atoms: N_5  and  C_6 
REMARK    4  A    between atoms: N_7  and  C_8 
ROOT
HETATM    1  C   UNL     1      41.771 -14.102   1.999  1.00  0.00     0.729 C 
HETATM    2  N   UNL     1      41.598 -12.939   2.748  1.00  0.00    -0.108 N 
HETATM    3  C   UNL     1      40.498 -12.129   2.492  1.00  0.00     0.276 C 
HETATM    4  O   UNL     1      40.005 -11.341   3.298  1.00  0.00    -0.266 OA
HETATM    5  C   UNL     1      39.896 -12.248   1.131  1.00  0.00     0.050 C 
HETATM    6  C   UNL     1      40.203 -13.377   0.465  1.00  0.00     0.099 C 
HETATM    7  C   UNL     1      39.497 -13.675  -0.810  1.00  0.00     0.000 A 
HETATM    8  C   UNL     1      38.805 -12.661  -1.487  1.00  0.00    -0.044 A 
HETATM    9  C   UNL     1      38.138 -12.938  -2.691  1.00  0.00     0.008 A 
HETATM   10  C   UNL     1      38.137 -14.230  -3.213  1.00  0.00     0.001 A 
HETATM   11  C   UNL     1      38.812 -15.246  -2.546  1.00  0.00     0.001 A 
HETATM   12  C   UNL     1      39.487 -14.969  -1.355  1.00  0.00     0.014 A 
HETATM   13  C   UNL     1      38.855 -11.258  -0.953  1.00  0.00     0.054 C 
HETATM   14  C   UNL     1      38.925 -11.169   0.607  1.00  0.00    -0.002 C 
HETATM   15  C   UNL     1      37.525 -11.420   1.237  1.00  0.00     0.015 C 
HETATM   16  C   UNL     1      36.490 -10.337   0.923  1.00  0.00     0.001 C 
HETATM   17  C   UNL     1      37.003  -8.939   1.246  1.00  0.00     0.000 C 
HETATM   18  C   UNL     1      38.339  -8.650   0.571  1.00  0.00     0.001 C 
HETATM   19  C   UNL     1      39.384  -9.710   0.930  1.00  0.00     0.015 C 
HETATM   20  N   UNL     1      41.084 -14.324   0.911  1.00  0.00    -0.061 NA
ENDROOT
BRANCH   1  21
HETATM   21  N   UNL     1      42.629 -15.105   2.427  1.00  0.00    -0.127 N 
HETATM   22  H   UNL     1      43.634 -14.940   2.422  1.00  0.00     0.206 HD
BRANCH  21  23
HETATM   23  N   UNL     1      42.284 -16.413   2.025  1.00  0.00    -0.256 N 
HETATM   24  C   UNL     1      42.935 -17.435   2.689  1.00  0.00     0.236 C 
HETATM   25  O   UNL     1      43.591 -17.243   3.713  1.00  0.00    -0.272 OA
HETATM   26  H   UNL     1      42.081 -16.480   1.029  1.00  0.00     0.190 HD
BRANCH  24  27
HETATM   27  C   UNL     1      42.696 -18.823   2.133  1.00  0.00     0.100 C 
HETATM   28  C   UNL     1      43.789 -19.823   2.464  1.00  0.00     0.014 C 
ENDBRANCH  24  27
ENDBRANCH  21  23
ENDBRANCH   1  21
BRANCH   2  29
HETATM   29  C   UNL     1      42.439 -12.650   3.873  1.00  0.00     0.060 A 
HETATM   30  C   UNL     1      42.200 -13.200   5.139  1.00  0.00     0.030 A 
HETATM   31  C   UNL     1      43.040 -12.905   6.217  1.00  0.00     0.002 A 
HETATM   32  C   UNL     1      44.124 -12.047   6.046  1.00  0.00     0.000 A 
HETATM   33  C   UNL     1      44.365 -11.476   4.800  1.00  0.00     0.002 A 
HETATM   34  C   UNL     1      43.523 -11.768   3.724  1.00  0.00     0.030 A 
ENDBRANCH   2  29
TORSDOF 4
ENDMDL
MODEL 7
REMARK VINA RESULT:      -8.4      3.424      7.500
REMARK  4 active torsions:
REMARK  status: ('A' for Active; 'I' for Inactive)
REMARK    1  A    between atoms: C_2  and  C_3 
REMARK       I    between atoms: C_3  and  N_4 
REMARK    2  A    between atoms: N_4  and  N_5 
REMARK    3  A    between atoms: N_5  and  C_6 
REMARK    4  A    between atoms: N_7  and  C_8 
ROOT
HETATM    1  C   UNL     1      40.699 -13.295   0.629  1.00  0.00     0.729 C 
HETATM    2  N   UNL     1      40.425 -11.929   0.659  1.00  0.00    -0.108 N 
HETATM    3  C   UNL     1      40.527 -11.246   1.865  1.00  0.00     0.276 C 
HETATM    4  O   UNL     1      40.719 -10.036   1.972  1.00  0.00    -0.266 OA
HETATM    5  C   UNL     1      40.389 -12.072   3.102  1.00  0.00     0.050 C 
HETATM    6  C   UNL     1      40.591 -13.392   2.935  1.00  0.00     0.099 C 
HETATM    7  C   UNL     1      40.669 -14.266   4.136  1.00  0.00     0.000 A 
HETATM    8  C   UNL     1      40.193 -13.809   5.373  1.00  0.00    -0.044 A 
HETATM    9  C   UNL     1      40.264 -14.631   6.509  1.00  0.00     0.008 A 
HETATM   10  C   UNL     1      40.830 -15.901   6.424  1.00  0.00     0.001 A 
HETATM   11  C   UNL     1      41.315 -16.362   5.205  1.00  0.00     0.001 A 
HETATM   12  C   UNL     1      41.233 -15.551   4.070  1.00  0.00     0.014 A 
HETATM   13  C   UNL     1      39.531 -12.463   5.451  1.00  0.00     0.054 C 
HETATM   14  C   UNL     1      40.122 -11.401   4.466  1.00  0.00    -0.002 C 
HETATM   15  C   UNL     1      41.466 -10.835   5.007  1.00  0.00     0.015 C 
HETATM   16  C   UNL     1      41.331 -10.010   6.288  1.00  0.00     0.001 C 
HETATM   17  C   UNL     1      40.277  -8.916   6.161  1.00  0.00     0.000 C 
HETATM   18  C   UNL     1      38.931  -9.469   5.706  1.00  0.00     0.001 C 
HETATM   19  C   UNL     1      39.066 -10.251   4.397  1.00  0.00     0.015 C 
HETATM   20  N   UNL     1      40.800 -13.997   1.726  1.00  0.00    -0.061 NA
ENDROOT
BRANCH   1  21
HETATM   21  N   UNL     1      40.950 -13.946  -0.571  1.00  0.00    -0.127 N 
HETATM   22  H   UNL     1      41.650 -13.570  -1.208  1.00  0.00     0.206 HD
BRANCH  21  23
HETATM   23  N   UNL     1      39.813 -14.450  -1.239  1.00  0.00    -0.256 N 
HETATM   24  C   UNL     1      39.725 -14.146  -2.583  1.00  0.00     0.236 C 
HETATM   25  O   UNL     1      40.671 -13.676  -3.216  1.00  0.00    -0.272 OA
HETATM   26  H   UNL     1      38.983 -14.466  -0.648  1.00  0.00     0.190 HD
BRANCH  24  27
HETATM   27  C   UNL     1      38.421 -14.533  -3.250  1.00  0.00     0.100 C 
HETATM   28  C   UNL     1      37.273 -13.581  -2.972  1.00  0.00     0.014 C 
ENDBRANCH  24  27
ENDBRANCH  21  23
ENDBRANCH   1  21
BRANCH   2  29
HETATM   29  C   UNL     1      40.198 -11.192  -0.550  1.00  0.00     0.060 A 
HETATM   30  C   UNL     1      41.254 -10.723  -1.343  1.00  0.00     0.030 A 
HETATM   31  C   UNL     1      41.004 -10.011  -2.520  1.00  0.00     0.002 A 
HETATM   32  C   UNL     1      39.694  -9.750  -2.915  1.00  0.00     0.000 A 
HETATM   33  C   UNL     1      38.633 -10.190  -2.129  1.00  0.00     0.002 A 
HETATM   34  C   UNL     1      38.884 -10.898  -0.951  1.00  0.00     0.030 A 
ENDBRANCH   2  29
TORSDOF 4
ENDMDL
MODEL 8
REMARK VINA RESULT:      -8.2      3.178      6.125
REMARK  4 active torsions:
REMARK  status: ('A' for Active; 'I' for Inactive)
REMARK    1  A    between atoms: C_2  and  C_3 
REMARK       I    between atoms: C_3  and  N_4 
REMARK    2  A    between atoms: N_4  and  N_5 
REMARK    3  A    between atoms: N_5  and  C_6 
REMARK    4  A    between atoms: N_7  and  C_8 
ROOT
HETATM    1  C   UNL     1      41.403 -13.584   2.508  1.00  0.00     0.729 C 
HETATM    2  N   UNL     1      41.794 -12.278   2.799  1.00  0.00    -0.108 N 
HETATM    3  C   UNL     1      41.346 -11.242   1.988  1.00  0.00     0.276 C 
HETATM    4  O   UNL     1      41.261 -10.065   2.336  1.00  0.00    -0.266 OA
HETATM    5  C   UNL     1      40.945 -11.620   0.600  1.00  0.00     0.050 C 
HETATM    6  C   UNL     1      40.674 -12.926   0.417  1.00  0.00     0.099 C 
HETATM    7  C   UNL     1      40.081 -13.363  -0.875  1.00  0.00     0.000 A 
HETATM    8  C   UNL     1      40.133 -12.524  -1.996  1.00  0.00    -0.044 A 
HETATM    9  C   UNL     1      39.574 -12.933  -3.217  1.00  0.00     0.008 A 
HETATM   10  C   UNL     1      38.941 -14.170  -3.321  1.00  0.00     0.001 A 
HETATM   11  C   UNL     1      38.874 -15.008  -2.213  1.00  0.00     0.001 A 
HETATM   12  C   UNL     1      39.441 -14.608  -1.001  1.00  0.00     0.014 A 
HETATM   13  C   UNL     1      40.866 -11.216  -1.898  1.00  0.00     0.054 C 
HETATM   14  C   UNL     1      40.782 -10.539  -0.490  1.00  0.00    -0.002 C 
HETATM   15  C   UNL     1      39.403  -9.847  -0.293  1.00  0.00     0.015 C 
HETATM   16  C   UNL     1      39.163  -8.649  -1.213  1.00  0.00     0.001 C 
HETATM   17  C   UNL     1      40.305  -7.641  -1.158  1.00  0.00     0.000 C 
HETATM   18  C   UNL     1      41.657  -8.293  -1.427  1.00  0.00     0.001 C 
HETATM   19  C   UNL     1      41.912  -9.460  -0.469  1.00  0.00     0.015 C 
HETATM   20  N   UNL     1      40.843 -13.893   1.370  1.00  0.00    -0.061 NA
ENDROOT
BRANCH   1  21
HETATM   21  N   UNL     1      41.525 -14.592   3.455  1.00  0.00    -0.127 N 
HETATM   22  H   UNL     1      42.061 -14.420   4.303  1.00  0.00     0.206 HD
BRANCH  21  23
HETATM   23  N   UNL     1      41.716 -15.891   2.937  1.00  0.00    -0.256 N 
HETATM   24  C   UNL     1      42.915 -16.494   3.262  1.00  0.00     0.236 C 
HETATM   25  O   UNL     1      43.667 -16.044   4.127  1.00  0.00    -0.272 OA
HETATM   26  H   UNL     1      41.298 -16.015   2.016  1.00  0.00     0.190 HD
BRANCH  24  27
HETATM   27  C   UNL     1      43.189 -17.808   2.559  1.00  0.00     0.100 C 
HETATM   28  C   UNL     1      44.067 -18.763   3.347  1.00  0.00     0.014 C 
ENDBRANCH  24  27
ENDBRANCH  21  23
ENDBRANCH   1  21
BRANCH   2  29
HETATM   29  C   UNL     1      42.514 -11.970   4.001  1.00  0.00     0.060 A 
HETATM   30  C   UNL     1      41.867 -11.809   5.233  1.00  0.00     0.030 A 
HETATM   31  C   UNL     1      42.595 -11.514   6.390  1.00  0.00     0.002 A 
HETATM   32  C   UNL     1      43.978 -11.365   6.328  1.00  0.00     0.000 A 
HETATM   33  C   UNL     1      44.635 -11.501   5.109  1.00  0.00     0.002 A 
HETATM   34  C   UNL     1      43.907 -11.793   3.952  1.00  0.00     0.030 A 
ENDBRANCH   2  29
TORSDOF 4
ENDMDL
MODEL 9
REMARK VINA RESULT:      -8.1      1.878      4.976
REMARK  4 active torsions:
REMARK  status: ('A' for Active; 'I' for Inactive)
REMARK    1  A    between atoms: C_2  and  C_3 
REMARK       I    between atoms: C_3  and  N_4 
REMARK    2  A    between atoms: N_4  and  N_5 
REMARK    3  A    between atoms: N_5  and  C_6 
REMARK    4  A    between atoms: N_7  and  C_8 
ROOT
HETATM    1  C   UNL     1      42.667 -11.326   4.540  1.00  0.00     0.729 C 
HETATM    2  N   UNL     1      43.267 -11.913   5.653  1.00  0.00    -0.108 N 
HETATM    3  C   UNL     1      43.472 -13.287   5.663  1.00  0.00     0.276 C 
HETATM    4  O   UNL     1      44.317 -13.865   6.345  1.00  0.00    -0.266 OA
HETATM    5  C   UNL     1      42.584 -14.091   4.771  1.00  0.00     0.050 C 
HETATM    6  C   UNL     1      41.989 -13.400   3.781  1.00  0.00     0.099 C 
HETATM    7  C   UNL     1      41.247 -14.144   2.729  1.00  0.00     0.000 A 
HETATM    8  C   UNL     1      40.867 -15.476   2.941  1.00  0.00    -0.044 A 
HETATM    9  C   UNL     1      40.166 -16.182   1.951  1.00  0.00     0.008 A 
HETATM   10  C   UNL     1      39.861 -15.573   0.736  1.00  0.00     0.001 A 
HETATM   11  C   UNL     1      40.242 -14.255   0.508  1.00  0.00     0.001 A 
HETATM   12  C   UNL     1      40.928 -13.546   1.498  1.00  0.00     0.014 A 
HETATM   13  C   UNL     1      41.145 -16.113   4.274  1.00  0.00     0.054 C 
HETATM   14  C   UNL     1      42.462 -15.618   4.957  1.00  0.00    -0.002 C 
HETATM   15  C   UNL     1      43.705 -16.293   4.310  1.00  0.00     0.015 C 
HETATM   16  C   UNL     1      43.797 -17.802   4.545  1.00  0.00     0.001 C 
HETATM   17  C   UNL     1      43.672 -18.163   6.021  1.00  0.00     0.000 C 
HETATM   18  C   UNL     1      42.415 -17.573   6.650  1.00  0.00     0.001 C 
HETATM   19  C   UNL     1      42.355 -16.055   6.453  1.00  0.00     0.015 C 
HETATM   20  N   UNL     1      42.071 -12.043   3.626  1.00  0.00    -0.061 NA
ENDROOT
BRANCH   1  21
HETATM   21  N   UNL     1      42.751  -9.957   4.324  1.00  0.00    -0.127 N 
HETATM   22  H   UNL     1      43.137  -9.358   5.051  1.00  0.00     0.206 HD
BRANCH  21  23
HETATM   23  N   UNL     1      41.647  -9.378   3.661  1.00  0.00    -0.256 N 
HETATM   24  C   UNL     1      40.770  -8.675   4.463  1.00  0.00     0.236 C 
HETATM   25  O   UNL     1      41.039  -8.368   5.626  1.00  0.00    -0.272 OA
HETATM   26  H   UNL     1      41.310  -9.946   2.886  1.00  0.00     0.190 HD
BRANCH  24  27
HETATM   27  C   UNL     1      39.499  -8.211   3.781  1.00  0.00     0.100 C 
HETATM   28  C   UNL     1      38.302  -9.114   4.014  1.00  0.00     0.014 C 
ENDBRANCH  24  27
ENDBRANCH  21  23
ENDBRANCH   1  21
BRANCH   2  29
HETATM   29  C   UNL     1      43.815 -11.111   6.709  1.00  0.00     0.060 A 
HETATM   30  C   UNL     1      45.193 -10.896   6.838  1.00  0.00     0.030 A 
HETATM   31  C   UNL     1      45.700 -10.106   7.874  1.00  0.00     0.002 A 
HETATM   32  C   UNL     1      44.835  -9.529   8.802  1.00  0.00     0.000 A 
HETATM   33  C   UNL     1      43.465  -9.749   8.701  1.00  0.00     0.002 A 
HETATM   34  C   UNL     1      42.960 -10.542   7.667  1.00  0.00     0.030 A 
ENDBRANCH   2  29
TORSDOF 4
ENDMDL
MODEL 10
REMARK VINA RESULT:      -8.1      2.624      5.466
REMARK  4 active torsions:
REMARK  status: ('A' for Active; 'I' for Inactive)
REMARK    1  A    between atoms: C_2  and  C_3 
REMARK       I    between atoms: C_3  and  N_4 
REMARK    2  A    between atoms: N_4  and  N_5 
REMARK    3  A    between atoms: N_5  and  C_6 
REMARK    4  A    between atoms: N_7  and  C_8 
ROOT
HETATM    1  C   UNL     1      42.304  -9.652   6.512  1.00  0.00     0.729 C 
HETATM    2  N   UNL     1      43.110 -10.620   7.108  1.00  0.00    -0.108 N 
HETATM    3  C   UNL     1      43.231 -11.865   6.502  1.00  0.00     0.276 C 
HETATM    4  O   UNL     1      44.177 -12.635   6.664  1.00  0.00    -0.266 OA
HETATM    5  C   UNL     1      42.115 -12.265   5.594  1.00  0.00     0.050 C 
HETATM    6  C   UNL     1      41.347 -11.253   5.148  1.00  0.00     0.099 C 
HETATM    7  C   UNL     1      40.339 -11.527   4.091  1.00  0.00     0.000 A 
HETATM    8  C   UNL     1      39.941 -12.843   3.818  1.00  0.00    -0.044 A 
HETATM    9  C   UNL     1      38.989 -13.106   2.820  1.00  0.00     0.008 A 
HETATM   10  C   UNL     1      38.446 -12.062   2.074  1.00  0.00     0.001 A 
HETATM   11  C   UNL     1      38.840 -10.753   2.328  1.00  0.00     0.001 A 
HETATM   12  C   UNL     1      39.777 -10.488   3.330  1.00  0.00     0.014 A 
HETATM   13  C   UNL     1      40.484 -13.961   4.662  1.00  0.00     0.054 C 
HETATM   14  C   UNL     1      41.951 -13.736   5.157  1.00  0.00    -0.002 C 
HETATM   15  C   UNL     1      42.968 -14.026   4.016  1.00  0.00     0.015 C 
HETATM   16  C   UNL     1      43.023 -15.491   3.579  1.00  0.00     0.001 C 
HETATM   17  C   UNL     1      43.224 -16.437   4.758  1.00  0.00     0.000 C 
HETATM   18  C   UNL     1      42.184 -16.216   5.851  1.00  0.00     0.001 C 
HETATM   19  C   UNL     1      42.169 -14.758   6.318  1.00  0.00     0.015 C 
HETATM   20  N   UNL     1      41.470  -9.952   5.553  1.00  0.00    -0.061 NA
ENDROOT
BRANCH   1  21
HETATM   21  N   UNL     1      42.414  -8.315   6.867  1.00  0.00    -0.127 N 
HETATM   22  H   UNL     1      43.315  -7.848   6.785  1.00  0.00     0.206 HD
BRANCH  21  23
HETATM   23  N   UNL     1      41.699  -7.931   8.022  1.00  0.00    -0.256 N 
HETATM   24  C   UNL     1      42.408  -7.187   8.945  1.00  0.00     0.236 C 
HETATM   25  O   UNL     1      43.505  -6.689   8.688  1.00  0.00    -0.272 OA
HETATM   26  H   UNL     1      41.025  -8.634   8.321  1.00  0.00     0.190 HD
BRANCH  24  27
HETATM   27  C   UNL     1      41.694  -6.934  10.257  1.00  0.00     0.100 C 
HETATM   28  C   UNL     1      42.530  -7.233  11.488  1.00  0.00     0.014 C 
ENDBRANCH  24  27
ENDBRANCH  21  23
ENDBRANCH   1  21
BRANCH   2  29
HETATM   29  C   UNL     1      43.935 -10.305   8.239  1.00  0.00     0.060 A 
HETATM   30  C   UNL     1      45.176  -9.671   8.098  1.00  0.00     0.030 A 
HETATM   31  C   UNL     1      45.957  -9.370   9.218  1.00  0.00     0.002 A 
HETATM   32  C   UNL     1      45.511  -9.710  10.494  1.00  0.00     0.000 A 
HETATM   33  C   UNL     1      44.290 -10.358  10.651  1.00  0.00     0.002 A 
HETATM   34  C   UNL     1      43.512 -10.661   9.531  1.00  0.00     0.030 A 
ENDBRANCH   2  29
TORSDOF 4
ENDMDL
