MODEL 1
REMARK VINA RESULT:      -9.2      0.000      0.000
REMARK  6 active torsions:
REMARK  status: ('A' for Active; 'I' for Inactive)
REMARK    1  A    between atoms: O_2  and  C_3 
REMARK    2  A    between atoms: C_6  and  C_7 
REMARK    3  A    between atoms: C_12  and  C_13 
REMARK       I    between atoms: C_13  and  N_14 
REMARK    4  A    between atoms: N_14  and  C_15 
REMARK    5  A    between atoms: C_17  and  O_18 
REMARK    6  A    between atoms: C_24  and  C_25 
ROOT
HETATM    1  C   UNL     1      43.592 -10.604   6.955  1.00  0.00     0.118 C 
HETATM    2  N   UNL     1      44.212 -11.930   6.926  1.00  0.00    -0.366 N 
HETATM    3  C   UNL     1      43.624 -12.994   6.343  1.00  0.00     0.123 C 
HETATM    4  N   UNL     1      42.513 -12.846   5.563  1.00  0.00    -0.240 N 
HETATM    5  N   UNL     1      41.926 -14.004   5.218  1.00  0.00    -0.165 NA
HETATM    6  C   UNL     1      42.800 -14.937   5.667  1.00  0.00     0.148 C 
HETATM    7  C   UNL     1      43.894 -14.336   6.352  1.00  0.00     0.089 C 
HETATM    8  C   UNL     1      41.920 -11.557   5.269  1.00  0.00     0.221 C 
HETATM    9  C   UNL     1      42.123 -10.638   6.478  1.00  0.00     0.066 C 
HETATM   10  H   UNL     1      45.054 -12.032   7.491  1.00  0.00     0.161 HD
ENDROOT
BRANCH   6  11
HETATM   11  C   UNL     1      42.552 -16.381   5.493  1.00  0.00     0.276 C 
HETATM   12  N   UNL     1      43.595 -16.997   4.829  1.00  0.00    -0.322 N 
HETATM   13  H   UNL     1      44.341 -16.355   4.572  1.00  0.00     0.169 HD
HETATM   14  O   UNL     1      41.510 -16.905   5.869  1.00  0.00    -0.266 OA
BRANCH  12  15
HETATM   15  C   UNL     1      43.705 -18.336   4.424  1.00  0.00     0.037 A 
HETATM   16  C   UNL     1      43.588 -18.757   3.097  1.00  0.00     0.066 A 
HETATM   17  C   UNL     1      43.714 -20.111   2.789  1.00  0.00     0.067 A 
HETATM   18  C   UNL     1      43.965 -21.053   3.778  1.00  0.00     0.036 A 
HETATM   19  C   UNL     1      44.083 -20.642   5.102  1.00  0.00     0.005 A 
HETATM   20  C   UNL     1      43.946 -19.289   5.424  1.00  0.00     0.029 A 
BRANCH  17  21
HETATM   21  O   UNL     1      43.592 -20.558   1.504  1.00  0.00    -0.361 OA
HETATM   22  H   UNL     1      43.776 -19.815   0.904  1.00  0.00     0.217 HD
ENDBRANCH  17  21
ENDBRANCH  12  15
ENDBRANCH   6  11
BRANCH   8  23
HETATM   23  C   UNL     1      42.508 -10.991   3.998  1.00  0.00     0.409 C 
HETATM   24  F   UNL     1      41.870 -11.437   2.893  1.00  0.00    -0.169 F 
HETATM   25  F   UNL     1      42.377  -9.638   3.998  1.00  0.00    -0.169 F 
HETATM   26  F   UNL     1      43.824 -11.248   3.847  1.00  0.00    -0.169 F 
ENDBRANCH   8  23
BRANCH   1  27
HETATM   27  C   UNL     1      43.647 -10.047   8.369  1.00  0.00    -0.035 A 
HETATM   28  C   UNL     1      42.535  -9.401   8.923  1.00  0.00     0.012 A 
HETATM   29  C   UNL     1      42.559  -8.968  10.252  1.00  0.00     0.037 A 
HETATM   30  C   UNL     1      43.682  -9.185  11.054  1.00  0.00     0.068 A 
HETATM   31  C   UNL     1      44.807  -9.795  10.502  1.00  0.00     0.037 A 
HETATM   32  C   UNL     1      44.787 -10.224   9.173  1.00  0.00     0.012 A 
BRANCH  30  33
HETATM   33  O   UNL     1      43.568  -8.751  12.345  1.00  0.00    -0.356 OA
HETATM   34  C   UNL     1      42.441  -9.234  13.069  1.00  0.00     0.210 C 
ENDBRANCH  30  33
ENDBRANCH   1  27
TORSDOF 6
ENDMDL
MODEL 2
REMARK VINA RESULT:      -9.1      0.865      1.391
REMARK  6 active torsions:
REMARK  status: ('A' for Active; 'I' for Inactive)
REMARK    1  A    between atoms: O_2  and  C_3 
REMARK    2  A    between atoms: C_6  and  C_7 
REMARK    3  A    between atoms: C_12  and  C_13 
REMARK       I    between atoms: C_13  and  N_14 
REMARK    4  A    between atoms: N_14  and  C_15 
REMARK    5  A    between atoms: C_17  and  O_18 
REMARK    6  A    between atoms: C_24  and  C_25 
ROOT
HETATM    1  C   UNL     1      43.463 -10.275   7.156  1.00  0.00     0.118 C 
HETATM    2  N   UNL     1      44.141 -11.568   7.058  1.00  0.00    -0.366 N 
HETATM    3  C   UNL     1      43.572 -12.645   6.481  1.00  0.00     0.123 C 
HETATM    4  N   UNL     1      42.413 -12.531   5.767  1.00  0.00    -0.240 N 
HETATM    5  N   UNL     1      41.862 -13.708   5.424  1.00  0.00    -0.165 NA
HETATM    6  C   UNL     1      42.801 -14.609   5.801  1.00  0.00     0.148 C 
HETATM    7  C   UNL     1      43.903 -13.972   6.440  1.00  0.00     0.089 C 
HETATM    8  C   UNL     1      41.745 -11.265   5.539  1.00  0.00     0.221 C 
HETATM    9  C   UNL     1      41.974 -10.367   6.759  1.00  0.00     0.066 C 
HETATM   10  H   UNL     1      45.018 -11.643   7.574  1.00  0.00     0.161 HD
ENDROOT
BRANCH   6  11
HETATM   11  C   UNL     1      42.611 -16.058   5.602  1.00  0.00     0.276 C 
HETATM   12  N   UNL     1      43.525 -16.570   4.703  1.00  0.00    -0.322 N 
HETATM   13  H   UNL     1      44.160 -15.867   4.331  1.00  0.00     0.169 HD
HETATM   14  O   UNL     1      41.707 -16.670   6.158  1.00  0.00    -0.266 OA
BRANCH  12  15
HETATM   15  C   UNL     1      43.629 -17.880   4.210  1.00  0.00     0.037 A 
HETATM   16  C   UNL     1      44.064 -18.964   4.976  1.00  0.00     0.066 A 
HETATM   17  C   UNL     1      44.131 -20.233   4.401  1.00  0.00     0.067 A 
HETATM   18  C   UNL     1      43.764 -20.443   3.078  1.00  0.00     0.036 A 
HETATM   19  C   UNL     1      43.330 -19.368   2.309  1.00  0.00     0.005 A 
HETATM   20  C   UNL     1      43.269 -18.090   2.872  1.00  0.00     0.029 A 
BRANCH  17  21
HETATM   21  O   UNL     1      44.564 -21.312   5.118  1.00  0.00    -0.361 OA
HETATM   22  H   UNL     1      44.524 -22.096   4.544  1.00  0.00     0.217 HD
ENDBRANCH  17  21
ENDBRANCH  12  15
ENDBRANCH   6  11
BRANCH   8  23
HETATM   23  C   UNL     1      42.235 -10.642   4.253  1.00  0.00     0.409 C 
HETATM   24  F   UNL     1      43.516 -10.974   3.977  1.00  0.00    -0.169 F 
HETATM   25  F   UNL     1      41.487 -11.095   3.214  1.00  0.00    -0.169 F 
HETATM   26  F   UNL     1      42.145  -9.296   4.233  1.00  0.00    -0.169 F 
ENDBRANCH   8  23
BRANCH   1  27
HETATM   27  C   UNL     1      43.572  -9.748   8.579  1.00  0.00    -0.035 A 
HETATM   28  C   UNL     1      42.837  -8.627   8.981  1.00  0.00     0.012 A 
HETATM   29  C   UNL     1      42.871  -8.199  10.311  1.00  0.00     0.037 A 
HETATM   30  C   UNL     1      43.623  -8.889  11.264  1.00  0.00     0.068 A 
HETATM   31  C   UNL     1      44.386  -9.985  10.868  1.00  0.00     0.037 A 
HETATM   32  C   UNL     1      44.358 -10.412   9.538  1.00  0.00     0.012 A 
BRANCH  30  33
HETATM   33  O   UNL     1      43.544  -8.395  12.537  1.00  0.00    -0.356 OA
HETATM   34  C   UNL     1      42.422  -8.823  13.303  1.00  0.00     0.210 C 
ENDBRANCH  30  33
ENDBRANCH   1  27
TORSDOF 6
ENDMDL
MODEL 3
REMARK VINA RESULT:      -9.1      1.916      9.253
REMARK  6 active torsions:
REMARK  status: ('A' for Active; 'I' for Inactive)
REMARK    1  A    between atoms: O_2  and  C_3 
REMARK    2  A    between atoms: C_6  and  C_7 
REMARK    3  A    between atoms: C_12  and  C_13 
REMARK       I    between atoms: C_13  and  N_14 
REMARK    4  A    between atoms: N_14  and  C_15 
REMARK    5  A    between atoms: C_17  and  O_18 
REMARK    6  A    between atoms: C_24  and  C_25 
ROOT
HETATM    1  C   UNL     1      42.460 -15.048   3.368  1.00  0.00     0.118 C 
HETATM    2  N   UNL     1      42.254 -14.601   4.746  1.00  0.00    -0.366 N 
HETATM    3  C   UNL     1      42.734 -13.430   5.210  1.00  0.00     0.123 C 
HETATM    4  N   UNL     1      43.258 -12.498   4.361  1.00  0.00    -0.240 N 
HETATM    5  N   UNL     1      43.874 -11.476   4.981  1.00  0.00    -0.165 NA
HETATM    6  C   UNL     1      43.587 -11.691   6.287  1.00  0.00     0.148 C 
HETATM    7  C   UNL     1      42.845 -12.893   6.464  1.00  0.00     0.089 C 
HETATM    8  C   UNL     1      43.295 -12.670   2.923  1.00  0.00     0.221 C 
HETATM    9  C   UNL     1      43.476 -14.160   2.615  1.00  0.00     0.066 C 
HETATM   10  H   UNL     1      41.841 -15.292   5.373  1.00  0.00     0.161 HD
ENDROOT
BRANCH   6  11
HETATM   11  C   UNL     1      44.070 -10.786   7.346  1.00  0.00     0.276 C 
HETATM   12  N   UNL     1      43.095 -10.550   8.295  1.00  0.00    -0.322 N 
HETATM   13  H   UNL     1      42.220 -11.029   8.099  1.00  0.00     0.169 HD
HETATM   14  O   UNL     1      45.194 -10.297   7.312  1.00  0.00    -0.266 OA
BRANCH  12  15
HETATM   15  C   UNL     1      43.149  -9.705   9.415  1.00  0.00     0.037 A 
HETATM   16  C   UNL     1      42.931  -8.327   9.356  1.00  0.00     0.066 A 
HETATM   17  C   UNL     1      43.002  -7.566  10.523  1.00  0.00     0.067 A 
HETATM   18  C   UNL     1      43.278  -8.156  11.750  1.00  0.00     0.036 A 
HETATM   19  C   UNL     1      43.497  -9.528  11.816  1.00  0.00     0.005 A 
HETATM   20  C   UNL     1      43.439 -10.298  10.651  1.00  0.00     0.029 A 
BRANCH  17  21
HETATM   21  O   UNL     1      42.807  -6.215  10.499  1.00  0.00    -0.361 OA
HETATM   22  H   UNL     1      42.975  -5.898   9.595  1.00  0.00     0.217 HD
ENDBRANCH  17  21
ENDBRANCH  12  15
ENDBRANCH   6  11
BRANCH   8  23
HETATM   23  C   UNL     1      42.050 -12.089   2.296  1.00  0.00     0.409 C 
HETATM   24  F   UNL     1      41.017 -12.031   3.165  1.00  0.00    -0.169 F 
HETATM   25  F   UNL     1      42.293 -10.813   1.899  1.00  0.00    -0.169 F 
HETATM   26  F   UNL     1      41.630 -12.757   1.201  1.00  0.00    -0.169 F 
ENDBRANCH   8  23
BRANCH   1  27
HETATM   27  C   UNL     1      42.953 -16.486   3.366  1.00  0.00    -0.035 A 
HETATM   28  C   UNL     1      43.565 -17.030   4.502  1.00  0.00     0.012 A 
HETATM   29  C   UNL     1      43.937 -18.378   4.528  1.00  0.00     0.037 A 
HETATM   30  C   UNL     1      43.690 -19.207   3.432  1.00  0.00     0.068 A 
HETATM   31  C   UNL     1      43.113 -18.669   2.283  1.00  0.00     0.037 A 
HETATM   32  C   UNL     1      42.745 -17.321   2.253  1.00  0.00     0.012 A 
BRANCH  30  33
HETATM   33  O   UNL     1      44.064 -20.513   3.594  1.00  0.00    -0.356 OA
HETATM   34  C   UNL     1      44.248 -20.947   4.937  1.00  0.00     0.210 C 
ENDBRANCH  30  33
ENDBRANCH   1  27
TORSDOF 6
ENDMDL
MODEL 4
REMARK VINA RESULT:      -9.0      4.669      9.523
REMARK  6 active torsions:
REMARK  status: ('A' for Active; 'I' for Inactive)
REMARK    1  A    between atoms: O_2  and  C_3 
REMARK    2  A    between atoms: C_6  and  C_7 
REMARK    3  A    between atoms: C_12  and  C_13 
REMARK       I    between atoms: C_13  and  N_14 
REMARK    4  A    between atoms: N_14  and  C_15 
REMARK    5  A    between atoms: C_17  and  O_18 
REMARK    6  A    between atoms: C_24  and  C_25 
ROOT
HETATM    1  C   UNL     1      41.185 -14.944   0.893  1.00  0.00     0.118 C 
HETATM    2  N   UNL     1      42.093 -13.957   1.477  1.00  0.00    -0.366 N 
HETATM    3  C   UNL     1      42.445 -13.973   2.778  1.00  0.00     0.123 C 
HETATM    4  N   UNL     1      42.140 -15.039   3.577  1.00  0.00    -0.240 N 
HETATM    5  N   UNL     1      42.374 -14.830   4.884  1.00  0.00    -0.165 NA
HETATM    6  C   UNL     1      43.007 -13.632   4.895  1.00  0.00     0.148 C 
HETATM    7  C   UNL     1      43.097 -13.080   3.585  1.00  0.00     0.089 C 
HETATM    8  C   UNL     1      41.471 -16.228   3.088  1.00  0.00     0.221 C 
HETATM    9  C   UNL     1      40.507 -15.820   1.970  1.00  0.00     0.066 C 
HETATM   10  H   UNL     1      42.338 -13.174   0.871  1.00  0.00     0.161 HD
ENDROOT
BRANCH   6  11
HETATM   11  C   UNL     1      43.461 -13.006   6.151  1.00  0.00     0.276 C 
HETATM   12  N   UNL     1      43.838 -11.692   5.954  1.00  0.00    -0.322 N 
HETATM   13  H   UNL     1      43.746 -11.388   4.988  1.00  0.00     0.169 HD
HETATM   14  O   UNL     1      43.519 -13.637   7.200  1.00  0.00    -0.266 OA
BRANCH  12  15
HETATM   15  C   UNL     1      44.378 -10.788   6.883  1.00  0.00     0.037 A 
HETATM   16  C   UNL     1      43.607  -9.922   7.660  1.00  0.00     0.066 A 
HETATM   17  C   UNL     1      44.233  -9.059   8.560  1.00  0.00     0.067 A 
HETATM   18  C   UNL     1      45.614  -9.051   8.706  1.00  0.00     0.036 A 
HETATM   19  C   UNL     1      46.389  -9.912   7.935  1.00  0.00     0.005 A 
HETATM   20  C   UNL     1      45.773 -10.772   7.022  1.00  0.00     0.029 A 
BRANCH  17  21
HETATM   21  O   UNL     1      43.509  -8.190   9.325  1.00  0.00    -0.361 OA
HETATM   22  H   UNL     1      43.791  -7.285   9.109  1.00  0.00     0.217 HD
ENDBRANCH  17  21
ENDBRANCH  12  15
ENDBRANCH   6  11
BRANCH   8  23
HETATM   23  C   UNL     1      42.489 -17.250   2.639  1.00  0.00     0.409 C 
HETATM   24  F   UNL     1      43.469 -16.704   1.887  1.00  0.00    -0.169 F 
HETATM   25  F   UNL     1      43.095 -17.796   3.726  1.00  0.00    -0.169 F 
HETATM   26  F   UNL     1      41.957 -18.276   1.942  1.00  0.00    -0.169 F 
ENDBRANCH   8  23
BRANCH   1  27
HETATM   27  C   UNL     1      40.116 -14.234   0.077  1.00  0.00    -0.035 A 
HETATM   28  C   UNL     1      39.637 -12.978   0.471  1.00  0.00     0.012 A 
HETATM   29  C   UNL     1      38.720 -12.289  -0.328  1.00  0.00     0.037 A 
HETATM   30  C   UNL     1      38.277 -12.831  -1.536  1.00  0.00     0.068 A 
HETATM   31  C   UNL     1      38.720 -14.095  -1.921  1.00  0.00     0.037 A 
HETATM   32  C   UNL     1      39.633 -14.788  -1.122  1.00  0.00     0.012 A 
BRANCH  30  33
HETATM   33  O   UNL     1      37.412 -12.044  -2.245  1.00  0.00    -0.356 OA
HETATM   34  C   UNL     1      37.988 -10.925  -2.911  1.00  0.00     0.210 C 
ENDBRANCH  30  33
ENDBRANCH   1  27
TORSDOF 6
ENDMDL
MODEL 5
REMARK VINA RESULT:      -8.4      4.702      9.688
REMARK  6 active torsions:
REMARK  status: ('A' for Active; 'I' for Inactive)
REMARK    1  A    between atoms: O_2  and  C_3 
REMARK    2  A    between atoms: C_6  and  C_7 
REMARK    3  A    between atoms: C_12  and  C_13 
REMARK       I    between atoms: C_13  and  N_14 
REMARK    4  A    between atoms: N_14  and  C_15 
REMARK    5  A    between atoms: C_17  and  O_18 
REMARK    6  A    between atoms: C_24  and  C_25 
ROOT
HETATM    1  C   UNL     1      41.053 -14.573   1.067  1.00  0.00     0.118 C 
HETATM    2  N   UNL     1      42.166 -13.649   1.290  1.00  0.00    -0.366 N 
HETATM    3  C   UNL     1      42.611 -13.331   2.521  1.00  0.00     0.123 C 
HETATM    4  N   UNL     1      42.185 -14.016   3.624  1.00  0.00    -0.240 N 
HETATM    5  N   UNL     1      42.555 -13.462   4.791  1.00  0.00    -0.165 NA
HETATM    6  C   UNL     1      43.390 -12.466   4.408  1.00  0.00     0.148 C 
HETATM    7  C   UNL     1      43.473 -12.376   2.989  1.00  0.00     0.089 C 
HETATM    8  C   UNL     1      41.279 -15.144   3.552  1.00  0.00     0.221 C 
HETATM    9  C   UNL     1      40.317 -14.924   2.380  1.00  0.00     0.066 C 
HETATM   10  H   UNL     1      42.497 -13.156   0.461  1.00  0.00     0.161 HD
ENDROOT
BRANCH   6  11
HETATM   11  C   UNL     1      44.046 -11.583   5.390  1.00  0.00     0.276 C 
HETATM   12  N   UNL     1      43.189 -11.246   6.420  1.00  0.00    -0.322 N 
HETATM   13  H   UNL     1      42.263 -11.655   6.321  1.00  0.00     0.169 HD
HETATM   14  O   UNL     1      45.197 -11.191   5.236  1.00  0.00    -0.266 OA
BRANCH  12  15
HETATM   15  C   UNL     1      43.420 -10.385   7.504  1.00  0.00     0.037 A 
HETATM   16  C   UNL     1      44.276 -10.686   8.565  1.00  0.00     0.066 A 
HETATM   17  C   UNL     1      44.445  -9.765   9.599  1.00  0.00     0.067 A 
HETATM   18  C   UNL     1      43.782  -8.544   9.589  1.00  0.00     0.036 A 
HETATM   19  C   UNL     1      42.928  -8.237   8.534  1.00  0.00     0.005 A 
HETATM   20  C   UNL     1      42.742  -9.158   7.500  1.00  0.00     0.029 A 
BRANCH  17  21
HETATM   21  O   UNL     1      45.264 -10.033  10.657  1.00  0.00    -0.361 OA
HETATM   22  H   UNL     1      45.369  -9.218  11.177  1.00  0.00     0.217 HD
ENDBRANCH  17  21
ENDBRANCH  12  15
ENDBRANCH   6  11
BRANCH   8  23
HETATM   23  C   UNL     1      42.059 -16.432   3.434  1.00  0.00     0.409 C 
HETATM   24  F   UNL     1      43.352 -16.221   3.105  1.00  0.00    -0.169 F 
HETATM   25  F   UNL     1      42.066 -17.071   4.633  1.00  0.00    -0.169 F 
HETATM   26  F   UNL     1      41.543 -17.301   2.540  1.00  0.00    -0.169 F 
ENDBRANCH   8  23
BRANCH   1  27
HETATM   27  C   UNL     1      40.066 -13.958   0.088  1.00  0.00    -0.035 A 
HETATM   28  C   UNL     1      39.670 -14.658  -1.058  1.00  0.00     0.012 A 
HETATM   29  C   UNL     1      38.697 -14.128  -1.910  1.00  0.00     0.037 A 
HETATM   30  C   UNL     1      38.093 -12.900  -1.627  1.00  0.00     0.068 A 
HETATM   31  C   UNL     1      38.505 -12.178  -0.509  1.00  0.00     0.037 A 
HETATM   32  C   UNL     1      39.481 -12.705   0.342  1.00  0.00     0.012 A 
BRANCH  30  33
HETATM   33  O   UNL     1      37.130 -12.507  -2.514  1.00  0.00    -0.356 OA
HETATM   34  C   UNL     1      37.066 -11.112  -2.789  1.00  0.00     0.210 C 
ENDBRANCH  30  33
ENDBRANCH   1  27
TORSDOF 6
ENDMDL
MODEL 6
REMARK VINA RESULT:      -8.3      3.165      4.178
REMARK  6 active torsions:
REMARK  status: ('A' for Active; 'I' for Inactive)
REMARK    1  A    between atoms: O_2  and  C_3 
REMARK    2  A    between atoms: C_6  and  C_7 
REMARK    3  A    between atoms: C_12  and  C_13 
REMARK       I    between atoms: C_13  and  N_14 
REMARK    4  A    between atoms: N_14  and  C_15 
REMARK    5  A    between atoms: C_17  and  O_18 
REMARK    6  A    between atoms: C_24  and  C_25 
ROOT
HETATM    1  C   UNL     1      41.743 -10.356   6.370  1.00  0.00     0.118 C 
HETATM    2  N   UNL     1      41.247 -11.705   6.651  1.00  0.00    -0.366 N 
HETATM    3  C   UNL     1      41.681 -12.792   5.985  1.00  0.00     0.123 C 
HETATM    4  N   UNL     1      42.763 -12.724   5.153  1.00  0.00    -0.240 N 
HETATM    5  N   UNL     1      42.954 -13.827   4.410  1.00  0.00    -0.165 NA
HETATM    6  C   UNL     1      42.044 -14.697   4.910  1.00  0.00     0.148 C 
HETATM    7  C   UNL     1      41.248 -14.090   5.923  1.00  0.00     0.089 C 
HETATM    8  C   UNL     1      43.540 -11.516   4.964  1.00  0.00     0.221 C 
HETATM    9  C   UNL     1      42.603 -10.310   5.088  1.00  0.00     0.066 C 
HETATM   10  H   UNL     1      40.454 -11.754   7.291  1.00  0.00     0.161 HD
ENDROOT
BRANCH   6  11
HETATM   11  C   UNL     1      41.905 -16.066   4.380  1.00  0.00     0.276 C 
HETATM   12  N   UNL     1      43.097 -16.761   4.453  1.00  0.00    -0.322 N 
HETATM   13  H   UNL     1      43.857 -16.213   4.849  1.00  0.00     0.169 HD
HETATM   14  O   UNL     1      40.850 -16.468   3.902  1.00  0.00    -0.266 OA
BRANCH  12  15
HETATM   15  C   UNL     1      43.383 -18.057   3.998  1.00  0.00     0.037 A 
HETATM   16  C   UNL     1      43.894 -19.070   4.813  1.00  0.00     0.066 A 
HETATM   17  C   UNL     1      44.146 -20.330   4.272  1.00  0.00     0.067 A 
HETATM   18  C   UNL     1      43.888 -20.603   2.934  1.00  0.00     0.036 A 
HETATM   19  C   UNL     1      43.379 -19.599   2.117  1.00  0.00     0.005 A 
HETATM   20  C   UNL     1      43.134 -18.329   2.646  1.00  0.00     0.029 A 
BRANCH  17  21
HETATM   21  O   UNL     1      44.657 -21.339   5.037  1.00  0.00    -0.361 OA
HETATM   22  H   UNL     1      43.998 -22.052   5.084  1.00  0.00     0.217 HD
ENDBRANCH  17  21
ENDBRANCH  12  15
ENDBRANCH   6  11
BRANCH   8  23
HETATM   23  C   UNL     1      44.684 -11.472   5.950  1.00  0.00     0.409 C 
HETATM   24  F   UNL     1      45.877 -11.290   5.343  1.00  0.00    -0.169 F 
HETATM   25  F   UNL     1      44.517 -10.422   6.795  1.00  0.00    -0.169 F 
HETATM   26  F   UNL     1      44.778 -12.575   6.722  1.00  0.00    -0.169 F 
ENDBRANCH   8  23
BRANCH   1  27
HETATM   27  C   UNL     1      40.569  -9.402   6.221  1.00  0.00    -0.035 A 
HETATM   28  C   UNL     1      39.600  -9.613   5.232  1.00  0.00     0.012 A 
HETATM   29  C   UNL     1      38.476  -8.785   5.155  1.00  0.00     0.037 A 
HETATM   30  C   UNL     1      38.291  -7.746   6.069  1.00  0.00     0.068 A 
HETATM   31  C   UNL     1      39.265  -7.505   7.036  1.00  0.00     0.037 A 
HETATM   32  C   UNL     1      40.392  -8.328   7.112  1.00  0.00     0.012 A 
BRANCH  30  33
HETATM   33  O   UNL     1      37.134  -7.033   5.914  1.00  0.00    -0.356 OA
HETATM   34  C   UNL     1      36.458  -7.204   4.672  1.00  0.00     0.210 C 
ENDBRANCH  30  33
ENDBRANCH   1  27
TORSDOF 6
ENDMDL
MODEL 7
REMARK VINA RESULT:      -8.2      6.573      7.951
REMARK  6 active torsions:
REMARK  status: ('A' for Active; 'I' for Inactive)
REMARK    1  A    between atoms: O_2  and  C_3 
REMARK    2  A    between atoms: C_6  and  C_7 
REMARK    3  A    between atoms: C_12  and  C_13 
REMARK       I    between atoms: C_13  and  N_14 
REMARK    4  A    between atoms: N_14  and  C_15 
REMARK    5  A    between atoms: C_17  and  O_18 
REMARK    6  A    between atoms: C_24  and  C_25 
ROOT
HETATM    1  C   UNL     1      39.970 -11.436  -1.503  1.00  0.00     0.118 C 
HETATM    2  N   UNL     1      41.032 -11.995  -0.665  1.00  0.00    -0.366 N 
HETATM    3  C   UNL     1      40.925 -13.195  -0.061  1.00  0.00     0.123 C 
HETATM    4  N   UNL     1      39.905 -14.050  -0.368  1.00  0.00    -0.240 N 
HETATM    5  N   UNL     1      39.814 -15.112   0.451  1.00  0.00    -0.165 NA
HETATM    6  C   UNL     1      40.927 -15.007   1.215  1.00  0.00     0.148 C 
HETATM    7  C   UNL     1      41.665 -13.831   0.899  1.00  0.00     0.089 C 
HETATM    8  C   UNL     1      38.908 -13.761  -1.379  1.00  0.00     0.221 C 
HETATM    9  C   UNL     1      38.660 -12.249  -1.402  1.00  0.00     0.066 C 
HETATM   10  H   UNL     1      41.803 -11.361  -0.456  1.00  0.00     0.161 HD
ENDROOT
BRANCH   6  11
HETATM   11  C   UNL     1      41.240 -15.990   2.269  1.00  0.00     0.276 C 
HETATM   12  N   UNL     1      42.441 -16.628   2.027  1.00  0.00    -0.322 N 
HETATM   13  H   UNL     1      42.893 -16.320   1.170  1.00  0.00     0.169 HD
HETATM   14  O   UNL     1      40.469 -16.205   3.198  1.00  0.00    -0.266 OA
BRANCH  12  15
HETATM   15  C   UNL     1      43.047 -17.661   2.760  1.00  0.00     0.037 A 
HETATM   16  C   UNL     1      43.159 -18.975   2.301  1.00  0.00     0.066 A 
HETATM   17  C   UNL     1      43.781 -19.934   3.099  1.00  0.00     0.067 A 
HETATM   18  C   UNL     1      44.303 -19.606   4.343  1.00  0.00     0.036 A 
HETATM   19  C   UNL     1      44.195 -18.298   4.807  1.00  0.00     0.005 A 
HETATM   20  C   UNL     1      43.563 -17.332   4.021  1.00  0.00     0.029 A 
BRANCH  17  21
HETATM   21  O   UNL     1      43.895 -21.231   2.686  1.00  0.00    -0.361 OA
HETATM   22  H   UNL     1      44.474 -21.253   1.904  1.00  0.00     0.217 HD
ENDBRANCH  17  21
ENDBRANCH  12  15
ENDBRANCH   6  11
BRANCH   8  23
HETATM   23  C   UNL     1      39.352 -14.302  -2.718  1.00  0.00     0.409 C 
HETATM   24  F   UNL     1      38.869 -13.576  -3.751  1.00  0.00    -0.169 F 
HETATM   25  F   UNL     1      40.707 -14.243  -2.806  1.00  0.00    -0.169 F 
HETATM   26  F   UNL     1      39.010 -15.590  -2.924  1.00  0.00    -0.169 F 
ENDBRANCH   8  23
BRANCH   1  27
HETATM   27  C   UNL     1      39.700  -9.997  -1.092  1.00  0.00    -0.035 A 
HETATM   28  C   UNL     1      40.641  -8.994  -1.352  1.00  0.00     0.012 A 
HETATM   29  C   UNL     1      40.353  -7.659  -1.053  1.00  0.00     0.037 A 
HETATM   30  C   UNL     1      39.120  -7.300  -0.506  1.00  0.00     0.068 A 
HETATM   31  C   UNL     1      38.189  -8.294  -0.211  1.00  0.00     0.037 A 
HETATM   32  C   UNL     1      38.476  -9.630  -0.505  1.00  0.00     0.012 A 
BRANCH  30  33
HETATM   33  O   UNL     1      38.944  -5.961  -0.296  1.00  0.00    -0.356 OA
HETATM   34  C   UNL     1      39.412  -5.458   0.952  1.00  0.00     0.210 C 
ENDBRANCH  30  33
ENDBRANCH   1  27
TORSDOF 6
ENDMDL
MODEL 8
REMARK VINA RESULT:      -8.2     16.968     18.816
REMARK  6 active torsions:
REMARK  status: ('A' for Active; 'I' for Inactive)
REMARK    1  A    between atoms: O_2  and  C_3 
REMARK    2  A    between atoms: C_6  and  C_7 
REMARK    3  A    between atoms: C_12  and  C_13 
REMARK       I    between atoms: C_13  and  N_14 
REMARK    4  A    between atoms: N_14  and  C_15 
REMARK    5  A    between atoms: C_17  and  O_18 
REMARK    6  A    between atoms: C_24  and  C_25 
ROOT
HETATM    1  C   UNL     1      45.678 -29.256   2.421  1.00  0.00     0.118 C 
HETATM    2  N   UNL     1      45.945 -28.502   1.196  1.00  0.00    -0.366 N 
HETATM    3  C   UNL     1      45.437 -28.856  -0.001  1.00  0.00     0.123 C 
HETATM    4  N   UNL     1      44.472 -29.818  -0.100  1.00  0.00    -0.240 N 
HETATM    5  N   UNL     1      44.209 -30.204  -1.360  1.00  0.00    -0.165 NA
HETATM    6  C   UNL     1      44.928 -29.331  -2.105  1.00  0.00     0.148 C 
HETATM    7  C   UNL     1      45.687 -28.449  -1.284  1.00  0.00     0.089 C 
HETATM    8  C   UNL     1      43.898 -30.484   1.052  1.00  0.00     0.221 C 
HETATM    9  C   UNL     1      44.976 -30.602   2.134  1.00  0.00     0.066 C 
HETATM   10  H   UNL     1      46.650 -27.769   1.278  1.00  0.00     0.161 HD
ENDROOT
BRANCH   6  11
HETATM   11  C   UNL     1      44.929 -29.386  -3.579  1.00  0.00     0.276 C 
HETATM   12  N   UNL     1      44.901 -30.688  -4.037  1.00  0.00    -0.322 N 
HETATM   13  H   UNL     1      44.892 -31.377  -3.288  1.00  0.00     0.169 HD
HETATM   14  O   UNL     1      44.995 -28.369  -4.262  1.00  0.00    -0.266 OA
BRANCH  12  15
HETATM   15  C   UNL     1      44.953 -31.152  -5.361  1.00  0.00     0.037 A 
HETATM   16  C   UNL     1      43.854 -31.161  -6.223  1.00  0.00     0.066 A 
HETATM   17  C   UNL     1      44.002 -31.639  -7.525  1.00  0.00     0.067 A 
HETATM   18  C   UNL     1      45.228 -32.099  -7.987  1.00  0.00     0.036 A 
HETATM   19  C   UNL     1      46.327 -32.093  -7.134  1.00  0.00     0.005 A 
HETATM   20  C   UNL     1      46.187 -31.628  -5.824  1.00  0.00     0.029 A 
BRANCH  17  21
HETATM   21  O   UNL     1      42.945 -31.674  -8.389  1.00  0.00    -0.361 OA
HETATM   22  H   UNL     1      42.876 -32.573  -8.752  1.00  0.00     0.217 HD
ENDBRANCH  17  21
ENDBRANCH  12  15
ENDBRANCH   6  11
BRANCH   8  23
HETATM   23  C   UNL     1      42.672 -29.740   1.526  1.00  0.00     0.409 C 
HETATM   24  F   UNL     1      42.770 -29.359   2.819  1.00  0.00    -0.169 F 
HETATM   25  F   UNL     1      42.520 -28.602   0.799  1.00  0.00    -0.169 F 
HETATM   26  F   UNL     1      41.526 -30.438   1.389  1.00  0.00    -0.169 F 
ENDBRANCH   8  23
BRANCH   1  27
HETATM   27  C   UNL     1      46.984 -29.517   3.155  1.00  0.00    -0.035 A 
HETATM   28  C   UNL     1      47.112 -30.619   4.010  1.00  0.00     0.012 A 
HETATM   29  C   UNL     1      48.339 -30.906   4.614  1.00  0.00     0.037 A 
HETATM   30  C   UNL     1      49.461 -30.112   4.364  1.00  0.00     0.068 A 
HETATM   31  C   UNL     1      49.336 -28.993   3.543  1.00  0.00     0.037 A 
HETATM   32  C   UNL     1      48.109 -28.701   2.942  1.00  0.00     0.012 A 
BRANCH  30  33
HETATM   33  O   UNL     1      50.611 -30.518   4.982  1.00  0.00    -0.356 OA
HETATM   34  C   UNL     1      50.754 -31.922   5.174  1.00  0.00     0.210 C 
ENDBRANCH  30  33
ENDBRANCH   1  27
TORSDOF 6
ENDMDL
MODEL 9
REMARK VINA RESULT:      -8.1      2.667      9.275
REMARK  6 active torsions:
REMARK  status: ('A' for Active; 'I' for Inactive)
REMARK    1  A    between atoms: O_2  and  C_3 
REMARK    2  A    between atoms: C_6  and  C_7 
REMARK    3  A    between atoms: C_12  and  C_13 
REMARK       I    between atoms: C_13  and  N_14 
REMARK    4  A    between atoms: N_14  and  C_15 
REMARK    5  A    between atoms: C_17  and  O_18 
REMARK    6  A    between atoms: C_24  and  C_25 
ROOT
HETATM    1  C   UNL     1      41.980 -15.433   2.863  1.00  0.00     0.118 C 
HETATM    2  N   UNL     1      41.237 -14.951   4.028  1.00  0.00    -0.366 N 
HETATM    3  C   UNL     1      41.240 -13.657   4.406  1.00  0.00     0.123 C 
HETATM    4  N   UNL     1      41.765 -12.688   3.600  1.00  0.00    -0.240 N 
HETATM    5  N   UNL     1      41.878 -11.485   4.188  1.00  0.00    -0.165 NA
HETATM    6  C   UNL     1      41.246 -11.663   5.373  1.00  0.00     0.148 C 
HETATM    7  C   UNL     1      40.805 -13.007   5.530  1.00  0.00     0.089 C 
HETATM    8  C   UNL     1      42.305 -12.962   2.283  1.00  0.00     0.221 C 
HETATM    9  C   UNL     1      42.934 -14.359   2.296  1.00  0.00     0.066 C 
HETATM   10  H   UNL     1      40.827 -15.676   4.617  1.00  0.00     0.161 HD
ENDROOT
BRANCH   6  11
HETATM   11  C   UNL     1      41.125 -10.572   6.359  1.00  0.00     0.276 C 
HETATM   12  N   UNL     1      42.303  -9.859   6.473  1.00  0.00    -0.322 N 
HETATM   13  H   UNL     1      43.044 -10.210   5.870  1.00  0.00     0.169 HD
HETATM   14  O   UNL     1      40.096 -10.396   7.002  1.00  0.00    -0.266 OA
BRANCH  12  15
HETATM   15  C   UNL     1      42.603  -8.797   7.340  1.00  0.00     0.037 A 
HETATM   16  C   UNL     1      41.966  -7.555   7.293  1.00  0.00     0.066 A 
HETATM   17  C   UNL     1      42.330  -6.559   8.199  1.00  0.00     0.067 A 
HETATM   18  C   UNL     1      43.310  -6.781   9.158  1.00  0.00     0.036 A 
HETATM   19  C   UNL     1      43.948  -8.016   9.210  1.00  0.00     0.005 A 
HETATM   20  C   UNL     1      43.600  -9.018   8.299  1.00  0.00     0.029 A 
BRANCH  17  21
HETATM   21  O   UNL     1      41.736  -5.329   8.173  1.00  0.00    -0.361 OA
HETATM   22  H   UNL     1      40.868  -5.399   8.605  1.00  0.00     0.217 HD
ENDBRANCH  17  21
ENDBRANCH  12  15
ENDBRANCH   6  11
BRANCH   8  23
HETATM   23  C   UNL     1      41.226 -12.815   1.236  1.00  0.00     0.409 C 
HETATM   24  F   UNL     1      41.236 -13.830   0.343  1.00  0.00    -0.169 F 
HETATM   25  F   UNL     1      40.006 -12.838   1.833  1.00  0.00    -0.169 F 
HETATM   26  F   UNL     1      41.293 -11.658   0.546  1.00  0.00    -0.169 F 
ENDBRANCH   8  23
BRANCH   1  27
HETATM   27  C   UNL     1      42.783 -16.667   3.245  1.00  0.00    -0.035 A 
HETATM   28  C   UNL     1      43.320 -16.796   4.532  1.00  0.00     0.012 A 
HETATM   29  C   UNL     1      43.982 -17.968   4.908  1.00  0.00     0.037 A 
HETATM   30  C   UNL     1      44.105 -19.036   4.015  1.00  0.00     0.068 A 
HETATM   31  C   UNL     1      43.606 -18.905   2.721  1.00  0.00     0.037 A 
HETATM   32  C   UNL     1      42.948 -17.731   2.342  1.00  0.00     0.012 A 
BRANCH  30  33
HETATM   33  O   UNL     1      44.738 -20.141   4.513  1.00  0.00    -0.356 OA
HETATM   34  C   UNL     1      44.024 -20.876   5.501  1.00  0.00     0.210 C 
ENDBRANCH  30  33
ENDBRANCH   1  27
TORSDOF 6
ENDMDL
MODEL 10
REMARK VINA RESULT:      -8.0      2.893      9.233
REMARK  6 active torsions:
REMARK  status: ('A' for Active; 'I' for Inactive)
REMARK    1  A    between atoms: O_2  and  C_3 
REMARK    2  A    between atoms: C_6  and  C_7 
REMARK    3  A    between atoms: C_12  and  C_13 
REMARK       I    between atoms: C_13  and  N_14 
REMARK    4  A    between atoms: N_14  and  C_15 
REMARK    5  A    between atoms: C_17  and  O_18 
REMARK    6  A    between atoms: C_24  and  C_25 
ROOT
HETATM    1  C   UNL     1      41.840 -15.076   2.997  1.00  0.00     0.118 C 
HETATM    2  N   UNL     1      40.785 -14.828   3.981  1.00  0.00    -0.366 N 
HETATM    3  C   UNL     1      40.525 -13.601   4.473  1.00  0.00     0.123 C 
HETATM    4  N   UNL     1      41.091 -12.486   3.923  1.00  0.00    -0.240 N 
HETATM    5  N   UNL     1      40.900 -11.364   4.637  1.00  0.00    -0.165 NA
HETATM    6  C   UNL     1      40.035 -11.757   5.602  1.00  0.00     0.148 C 
HETATM    7  C   UNL     1      39.753 -13.150   5.510  1.00  0.00     0.089 C 
HETATM    8  C   UNL     1      41.960 -12.531   2.764  1.00  0.00     0.221 C 
HETATM    9  C   UNL     1      42.749 -13.843   2.796  1.00  0.00     0.066 C 
HETATM   10  H   UNL     1      40.347 -15.661   4.373  1.00  0.00     0.161 HD
ENDROOT
BRANCH   6  11
HETATM   11  C   UNL     1      39.539 -10.821   6.629  1.00  0.00     0.276 C 
HETATM   12  N   UNL     1      40.576 -10.280   7.364  1.00  0.00    -0.322 N 
HETATM   13  H   UNL     1      41.491 -10.622   7.080  1.00  0.00     0.169 HD
HETATM   14  O   UNL     1      38.341 -10.622   6.794  1.00  0.00    -0.266 OA
BRANCH  12  15
HETATM   15  C   UNL     1      40.508  -9.405   8.459  1.00  0.00     0.037 A 
HETATM   16  C   UNL     1      39.728  -9.640   9.593  1.00  0.00     0.066 A 
HETATM   17  C   UNL     1      39.727  -8.713  10.635  1.00  0.00     0.067 A 
HETATM   18  C   UNL     1      40.497  -7.558  10.571  1.00  0.00     0.036 A 
HETATM   19  C   UNL     1      41.276  -7.317   9.444  1.00  0.00     0.005 A 
HETATM   20  C   UNL     1      41.276  -8.234   8.389  1.00  0.00     0.029 A 
BRANCH  17  21
HETATM   21  O   UNL     1      38.966  -8.906  11.752  1.00  0.00    -0.361 OA
HETATM   22  H   UNL     1      39.285  -9.705  12.205  1.00  0.00     0.217 HD
ENDBRANCH  17  21
ENDBRANCH  12  15
ENDBRANCH   6  11
BRANCH   8  23
HETATM   23  C   UNL     1      41.150 -12.365   1.500  1.00  0.00     0.409 C 
HETATM   24  F   UNL     1      41.199 -11.102   1.021  1.00  0.00    -0.169 F 
HETATM   25  F   UNL     1      41.658 -13.165   0.526  1.00  0.00    -0.169 F 
HETATM   26  F   UNL     1      39.852 -12.704   1.637  1.00  0.00    -0.169 F 
ENDBRANCH   8  23
BRANCH   1  27
HETATM   27  C   UNL     1      42.687 -16.257   3.445  1.00  0.00    -0.035 A 
HETATM   28  C   UNL     1      43.175 -16.326   4.756  1.00  0.00     0.012 A 
HETATM   29  C   UNL     1      43.878 -17.454   5.190  1.00  0.00     0.037 A 
HETATM   30  C   UNL     1      44.093 -18.534   4.332  1.00  0.00     0.068 A 
HETATM   31  C   UNL     1      43.643 -18.461   3.016  1.00  0.00     0.037 A 
HETATM   32  C   UNL     1      42.944 -17.333   2.578  1.00  0.00     0.012 A 
BRANCH  30  33
HETATM   33  O   UNL     1      44.759 -19.593   4.885  1.00  0.00    -0.356 OA
HETATM   34  C   UNL     1      44.016 -20.801   5.011  1.00  0.00     0.210 C 
ENDBRANCH  30  33
ENDBRANCH   1  27
TORSDOF 6
ENDMDL
