MODEL 1
REMARK VINA RESULT:      -9.8      0.000      0.000
REMARK  7 active torsions:
REMARK  status: ('A' for Active; 'I' for Inactive)
REMARK    1  A    between atoms: C_2  and  N_3 
REMARK    2  A    between atoms: C_2  and  C_25 
REMARK       I    between atoms: N_3  and  C_4 
REMARK    3  A    between atoms: C_4  and  C_5 
REMARK    4  A    between atoms: C_8  and  C_9 
REMARK       I    between atoms: C_9  and  N_10 
REMARK    5  A    between atoms: N_10  and  C_11 
REMARK    6  A    between atoms: N_19  and  C_20 
REMARK    7  A    between atoms: C_33  and  O_34 
ROOT
HETATM    1  C   UNL     1      43.094 -10.920   5.420  1.00  0.00     0.098 A 
HETATM    2  C   UNL     1      41.796 -10.408   5.959  1.00  0.00     0.206 A 
HETATM    3  O   UNL     1      40.780 -10.405   5.260  1.00  0.00    -0.286 OA
HETATM    4  C   UNL     1      41.751  -9.916   7.369  1.00  0.00     0.098 A 
HETATM    5  C   UNL     1      42.920  -9.870   8.030  1.00  0.00     0.112 A 
HETATM    6  N   UNL     1      44.129 -10.253   7.483  1.00  0.00    -0.360 N 
HETATM    7  C   UNL     1      44.166 -10.815   6.223  1.00  0.00     0.112 A 
ENDROOT
BRANCH   1   8
HETATM    8  C   UNL     1      43.262 -11.538   4.074  1.00  0.00     0.257 C 
HETATM    9  N   UNL     1      42.230 -12.340   3.671  1.00  0.00    -0.348 N 
HETATM   10  H   UNL     1      41.441 -12.472   4.304  1.00  0.00     0.163 HD
HETATM   11  O   UNL     1      44.261 -11.336   3.390  1.00  0.00    -0.267 OA
BRANCH   9  12
HETATM   12  C   UNL     1      42.208 -13.060   2.411  1.00  0.00     0.114 C 
HETATM   13  C   UNL     1      40.822 -13.017   1.761  1.00  0.00     0.037 C 
BRANCH  12  14
HETATM   14  C   UNL     1      42.686 -14.482   2.649  1.00  0.00    -0.035 A 
HETATM   15  C   UNL     1      42.876 -14.950   3.959  1.00  0.00     0.021 A 
HETATM   16  C   UNL     1      43.260 -16.279   4.213  1.00  0.00    -0.025 A 
HETATM   17  C   UNL     1      43.454 -17.164   3.131  1.00  0.00    -0.023 A 
HETATM   18  C   UNL     1      43.447 -16.753   5.521  1.00  0.00     0.015 A 
HETATM   19  C   UNL     1      43.266 -16.696   1.822  1.00  0.00     0.013 A 
HETATM   20  C   UNL     1      43.825 -18.493   3.387  1.00  0.00     0.049 A 
HETATM   21  C   UNL     1      42.884 -15.375   1.584  1.00  0.00     0.010 A 
HETATM   22  C   UNL     1      44.003 -18.959   4.693  1.00  0.00     0.069 A 
HETATM   23  C   UNL     1      43.816 -18.083   5.760  1.00  0.00     0.037 A 
BRANCH  22  24
HETATM   24  O   UNL     1      44.357 -20.277   4.787  1.00  0.00    -0.356 OA
HETATM   25  C   UNL     1      43.897 -21.140   3.755  1.00  0.00     0.210 C 
ENDBRANCH  22  24
ENDBRANCH  12  14
ENDBRANCH   9  12
ENDBRANCH   1   8
BRANCH   4  26
HETATM   26  C   UNL     1      40.508  -9.505   8.079  1.00  0.00     0.257 C 
HETATM   27  N   UNL     1      40.527  -9.695   9.438  1.00  0.00    -0.352 N 
HETATM   28  H   UNL     1      41.308 -10.217   9.834  1.00  0.00     0.163 HD
HETATM   29  O   UNL     1      39.555  -9.016   7.480  1.00  0.00    -0.267 OA
BRANCH  27  30
HETATM   30  C   UNL     1      39.385  -9.419  10.300  1.00  0.00     0.084 C 
HETATM   31  C   UNL     1      39.428 -10.284  11.567  1.00  0.00     0.025 C 
HETATM   32  C   UNL     1      40.530  -9.852  12.534  1.00  0.00     0.002 C 
HETATM   33  C   UNL     1      40.427  -8.369  12.879  1.00  0.00     0.000 C 
HETATM   34  C   UNL     1      40.417  -7.496  11.629  1.00  0.00     0.002 C 
HETATM   35  C   UNL     1      39.325  -7.925  10.649  1.00  0.00     0.025 C 
ENDBRANCH  27  30
ENDBRANCH   4  26
BRANCH   6  36
HETATM   36  C   UNL     1      45.317 -10.321   8.345  1.00  0.00     0.089 A 
HETATM   37  C   UNL     1      46.185  -9.118   8.611  1.00  0.00     0.028 A 
HETATM   38  C   UNL     1      45.334  -9.680   9.709  1.00  0.00     0.028 A 
ENDBRANCH   6  36
TORSDOF 7
ENDMDL
MODEL 2
REMARK VINA RESULT:      -9.8      1.814      2.917
REMARK  7 active torsions:
REMARK  status: ('A' for Active; 'I' for Inactive)
REMARK    1  A    between atoms: C_2  and  N_3 
REMARK    2  A    between atoms: C_2  and  C_25 
REMARK       I    between atoms: N_3  and  C_4 
REMARK    3  A    between atoms: C_4  and  C_5 
REMARK    4  A    between atoms: C_8  and  C_9 
REMARK       I    between atoms: C_9  and  N_10 
REMARK    5  A    between atoms: N_10  and  C_11 
REMARK    6  A    between atoms: N_19  and  C_20 
REMARK    7  A    between atoms: C_33  and  O_34 
ROOT
HETATM    1  C   UNL     1      42.920 -10.895   5.194  1.00  0.00     0.098 A 
HETATM    2  C   UNL     1      43.576 -11.193   6.504  1.00  0.00     0.206 A 
HETATM    3  O   UNL     1      44.396 -12.109   6.604  1.00  0.00    -0.286 OA
HETATM    4  C   UNL     1      43.232 -10.348   7.686  1.00  0.00     0.098 A 
HETATM    5  C   UNL     1      42.264  -9.431   7.512  1.00  0.00     0.112 A 
HETATM    6  N   UNL     1      41.595  -9.236   6.320  1.00  0.00    -0.360 N 
HETATM    7  C   UNL     1      41.983  -9.931   5.192  1.00  0.00     0.112 A 
ENDROOT
BRANCH   1   8
HETATM    8  C   UNL     1      43.244 -11.583   3.912  1.00  0.00     0.257 C 
HETATM    9  N   UNL     1      42.241 -12.359   3.401  1.00  0.00    -0.348 N 
HETATM   10  H   UNL     1      41.365 -12.426   3.920  1.00  0.00     0.163 HD
HETATM   11  O   UNL     1      44.339 -11.458   3.369  1.00  0.00    -0.267 OA
BRANCH   9  12
HETATM   12  C   UNL     1      42.360 -13.137   2.181  1.00  0.00     0.114 C 
HETATM   13  C   UNL     1      41.055 -13.134   1.379  1.00  0.00     0.037 C 
BRANCH  12  14
HETATM   14  C   UNL     1      42.811 -14.544   2.538  1.00  0.00    -0.035 A 
HETATM   15  C   UNL     1      42.964 -14.912   3.884  1.00  0.00     0.021 A 
HETATM   16  C   UNL     1      43.321 -16.224   4.247  1.00  0.00    -0.025 A 
HETATM   17  C   UNL     1      43.527 -17.190   3.240  1.00  0.00    -0.023 A 
HETATM   18  C   UNL     1      43.471 -16.599   5.591  1.00  0.00     0.015 A 
HETATM   19  C   UNL     1      43.376 -16.822   1.895  1.00  0.00     0.013 A 
HETATM   20  C   UNL     1      43.871 -18.502   3.605  1.00  0.00     0.049 A 
HETATM   21  C   UNL     1      43.020 -15.517   1.549  1.00  0.00     0.010 A 
HETATM   22  C   UNL     1      44.013 -18.868   4.946  1.00  0.00     0.069 A 
HETATM   23  C   UNL     1      43.814 -17.912   5.939  1.00  0.00     0.037 A 
BRANCH  22  24
HETATM   24  O   UNL     1      44.344 -20.181   5.148  1.00  0.00    -0.356 OA
HETATM   25  C   UNL     1      43.842 -21.122   4.209  1.00  0.00     0.210 C 
ENDBRANCH  22  24
ENDBRANCH  12  14
ENDBRANCH   9  12
ENDBRANCH   1   8
BRANCH   4  26
HETATM   26  C   UNL     1      43.901 -10.441   9.014  1.00  0.00     0.257 C 
HETATM   27  N   UNL     1      43.118 -10.091  10.084  1.00  0.00    -0.352 N 
HETATM   28  H   UNL     1      42.209  -9.671   9.892  1.00  0.00     0.163 HD
HETATM   29  O   UNL     1      45.062 -10.823   9.124  1.00  0.00    -0.267 OA
BRANCH  27  30
HETATM   30  C   UNL     1      43.609 -10.052  11.456  1.00  0.00     0.084 C 
HETATM   31  C   UNL     1      43.909  -8.612  11.893  1.00  0.00     0.025 C 
HETATM   32  C   UNL     1      42.640  -7.787  12.101  1.00  0.00     0.002 C 
HETATM   33  C   UNL     1      41.677  -8.469  13.068  1.00  0.00     0.000 C 
HETATM   34  C   UNL     1      41.343  -9.890  12.626  1.00  0.00     0.002 C 
HETATM   35  C   UNL     1      42.606 -10.724  12.405  1.00  0.00     0.025 C 
ENDBRANCH  27  30
ENDBRANCH   4  26
BRANCH   6  36
HETATM   36  C   UNL     1      40.675  -8.098   6.191  1.00  0.00     0.089 A 
HETATM   37  C   UNL     1      39.181  -8.256   6.320  1.00  0.00     0.028 A 
HETATM   38  C   UNL     1      39.949  -7.538   7.388  1.00  0.00     0.028 A 
ENDBRANCH   6  36
TORSDOF 7
ENDMDL
MODEL 3
REMARK VINA RESULT:      -9.7      3.944      7.482
REMARK  7 active torsions:
REMARK  status: ('A' for Active; 'I' for Inactive)
REMARK    1  A    between atoms: C_2  and  N_3 
REMARK    2  A    between atoms: C_2  and  C_25 
REMARK       I    between atoms: N_3  and  C_4 
REMARK    3  A    between atoms: C_4  and  C_5 
REMARK    4  A    between atoms: C_8  and  C_9 
REMARK       I    between atoms: C_9  and  N_10 
REMARK    5  A    between atoms: N_10  and  C_11 
REMARK    6  A    between atoms: N_19  and  C_20 
REMARK    7  A    between atoms: C_33  and  O_34 
ROOT
HETATM    1  C   UNL     1      39.704 -11.957   4.479  1.00  0.00     0.098 A 
HETATM    2  C   UNL     1      39.237 -12.300   3.100  1.00  0.00     0.206 A 
HETATM    3  O   UNL     1      39.464 -13.411   2.615  1.00  0.00    -0.286 OA
HETATM    4  C   UNL     1      38.474 -11.275   2.326  1.00  0.00     0.098 A 
HETATM    5  C   UNL     1      38.348 -10.062   2.892  1.00  0.00     0.112 A 
HETATM    6  N   UNL     1      38.874  -9.730   4.125  1.00  0.00    -0.360 N 
HETATM    7  C   UNL     1      39.481 -10.699   4.897  1.00  0.00     0.112 A 
ENDROOT
BRANCH   1   8
HETATM    8  C   UNL     1      40.380 -12.912   5.402  1.00  0.00     0.257 C 
HETATM    9  N   UNL     1      41.741 -12.969   5.281  1.00  0.00    -0.348 N 
HETATM   10  H   UNL     1      42.192 -12.383   4.579  1.00  0.00     0.163 HD
HETATM   11  O   UNL     1      39.748 -13.595   6.203  1.00  0.00    -0.267 OA
BRANCH   9  12
HETATM   12  C   UNL     1      42.587 -13.854   6.061  1.00  0.00     0.114 C 
HETATM   13  C   UNL     1      43.852 -13.141   6.548  1.00  0.00     0.037 C 
BRANCH  12  14
HETATM   14  C   UNL     1      42.906 -15.087   5.232  1.00  0.00    -0.035 A 
HETATM   15  C   UNL     1      43.207 -16.302   5.868  1.00  0.00     0.021 A 
HETATM   16  C   UNL     1      43.448 -17.474   5.129  1.00  0.00    -0.025 A 
HETATM   17  C   UNL     1      43.382 -17.432   3.720  1.00  0.00    -0.023 A 
HETATM   18  C   UNL     1      43.744 -18.693   5.759  1.00  0.00     0.015 A 
HETATM   19  C   UNL     1      43.083 -16.218   3.085  1.00  0.00     0.013 A 
HETATM   20  C   UNL     1      43.610 -18.606   2.984  1.00  0.00     0.049 A 
HETATM   21  C   UNL     1      42.846 -15.061   3.830  1.00  0.00     0.010 A 
HETATM   22  C   UNL     1      43.899 -19.816   3.621  1.00  0.00     0.069 A 
HETATM   23  C   UNL     1      43.968 -19.856   5.011  1.00  0.00     0.037 A 
BRANCH  22  24
HETATM   24  O   UNL     1      44.090 -20.875   2.775  1.00  0.00    -0.356 OA
HETATM   25  C   UNL     1      43.643 -20.716   1.435  1.00  0.00     0.210 C 
ENDBRANCH  22  24
ENDBRANCH  12  14
ENDBRANCH   9  12
ENDBRANCH   1   8
BRANCH   4  26
HETATM   26  C   UNL     1      37.834 -11.520   1.003  1.00  0.00     0.257 C 
HETATM   27  N   UNL     1      38.587 -12.256   0.123  1.00  0.00    -0.352 N 
HETATM   28  H   UNL     1      39.555 -12.455   0.375  1.00  0.00     0.163 HD
HETATM   29  O   UNL     1      36.709 -11.105   0.745  1.00  0.00    -0.267 OA
BRANCH  27  30
HETATM   30  C   UNL     1      38.166 -12.545  -1.242  1.00  0.00     0.084 C 
HETATM   31  C   UNL     1      38.575 -11.415  -2.196  1.00  0.00     0.025 C 
HETATM   32  C   UNL     1      40.083 -11.377  -2.446  1.00  0.00     0.002 C 
HETATM   33  C   UNL     1      40.608 -12.726  -2.928  1.00  0.00     0.000 C 
HETATM   34  C   UNL     1      40.237 -13.853  -1.970  1.00  0.00     0.002 C 
HETATM   35  C   UNL     1      38.732 -13.895  -1.704  1.00  0.00     0.025 C 
ENDBRANCH  27  30
ENDBRANCH   4  26
BRANCH   6  36
HETATM   36  C   UNL     1      38.536  -8.431   4.722  1.00  0.00     0.089 A 
HETATM   37  C   UNL     1      39.462  -7.244   4.637  1.00  0.00     0.028 A 
HETATM   38  C   UNL     1      38.177  -7.244   3.865  1.00  0.00     0.028 A 
ENDBRANCH   6  36
TORSDOF 7
ENDMDL
MODEL 4
REMARK VINA RESULT:      -9.0      4.303      8.909
REMARK  7 active torsions:
REMARK  status: ('A' for Active; 'I' for Inactive)
REMARK    1  A    between atoms: C_2  and  N_3 
REMARK    2  A    between atoms: C_2  and  C_25 
REMARK       I    between atoms: N_3  and  C_4 
REMARK    3  A    between atoms: C_4  and  C_5 
REMARK    4  A    between atoms: C_8  and  C_9 
REMARK       I    between atoms: C_9  and  N_10 
REMARK    5  A    between atoms: N_10  and  C_11 
REMARK    6  A    between atoms: N_19  and  C_20 
REMARK    7  A    between atoms: C_33  and  O_34 
ROOT
HETATM    1  C   UNL     1      40.876 -12.033   1.451  1.00  0.00     0.098 A 
HETATM    2  C   UNL     1      41.387 -10.791   0.792  1.00  0.00     0.206 A 
HETATM    3  O   UNL     1      41.902  -9.890   1.457  1.00  0.00    -0.286 OA
HETATM    4  C   UNL     1      41.275 -10.672  -0.693  1.00  0.00     0.098 A 
HETATM    5  C   UNL     1      40.620 -11.658  -1.331  1.00  0.00     0.112 A 
HETATM    6  N   UNL     1      40.065 -12.751  -0.694  1.00  0.00    -0.360 N 
HETATM    7  C   UNL     1      40.260 -12.928   0.661  1.00  0.00     0.112 A 
ENDROOT
BRANCH   1   8
HETATM    8  C   UNL     1      41.017 -12.334   2.904  1.00  0.00     0.257 C 
HETATM    9  N   UNL     1      42.305 -12.436   3.353  1.00  0.00    -0.348 N 
HETATM   10  H   UNL     1      43.064 -12.317   2.682  1.00  0.00     0.163 HD
HETATM   11  O   UNL     1      40.039 -12.482   3.632  1.00  0.00    -0.267 OA
BRANCH   9  12
HETATM   12  C   UNL     1      42.663 -12.753   4.723  1.00  0.00     0.114 C 
HETATM   13  C   UNL     1      43.822 -11.884   5.219  1.00  0.00     0.037 C 
BRANCH  12  14
HETATM   14  C   UNL     1      42.975 -14.237   4.819  1.00  0.00    -0.035 A 
HETATM   15  C   UNL     1      42.885 -15.049   3.677  1.00  0.00     0.021 A 
HETATM   16  C   UNL     1      43.226 -16.413   3.722  1.00  0.00    -0.025 A 
HETATM   17  C   UNL     1      43.671 -16.978   4.935  1.00  0.00    -0.023 A 
HETATM   18  C   UNL     1      43.143 -17.229   2.582  1.00  0.00     0.015 A 
HETATM   19  C   UNL     1      43.759 -16.167   6.076  1.00  0.00     0.013 A 
HETATM   20  C   UNL     1      44.023 -18.336   4.974  1.00  0.00     0.049 A 
HETATM   21  C   UNL     1      43.419 -14.814   6.019  1.00  0.00     0.010 A 
HETATM   22  C   UNL     1      43.942 -19.140   3.833  1.00  0.00     0.069 A 
HETATM   23  C   UNL     1      43.498 -18.582   2.637  1.00  0.00     0.037 A 
BRANCH  22  24
HETATM   24  O   UNL     1      44.324 -20.440   4.022  1.00  0.00    -0.356 OA
HETATM   25  C   UNL     1      44.184 -20.967   5.335  1.00  0.00     0.210 C 
ENDBRANCH  22  24
ENDBRANCH  12  14
ENDBRANCH   9  12
ENDBRANCH   1   8
BRANCH   4  26
HETATM   26  C   UNL     1      41.857  -9.560  -1.496  1.00  0.00     0.257 C 
HETATM   27  N   UNL     1      41.059  -9.100  -2.513  1.00  0.00    -0.352 N 
HETATM   28  H   UNL     1      40.213  -9.627  -2.730  1.00  0.00     0.163 HD
HETATM   29  O   UNL     1      42.962  -9.091  -1.241  1.00  0.00    -0.267 OA
BRANCH  27  30
HETATM   30  C   UNL     1      41.476  -8.065  -3.451  1.00  0.00     0.084 C 
HETATM   31  C   UNL     1      40.845  -8.287  -4.832  1.00  0.00     0.025 C 
HETATM   32  C   UNL     1      39.345  -7.990  -4.846  1.00  0.00     0.002 C 
HETATM   33  C   UNL     1      39.043  -6.591  -4.317  1.00  0.00     0.000 C 
HETATM   34  C   UNL     1      39.636  -6.370  -2.929  1.00  0.00     0.002 C 
HETATM   35  C   UNL     1      41.134  -6.673  -2.900  1.00  0.00     0.025 C 
ENDBRANCH  27  30
ENDBRANCH   4  26
BRANCH   6  36
HETATM   36  C   UNL     1      39.519 -13.851  -1.500  1.00  0.00     0.089 A 
HETATM   37  C   UNL     1      38.176 -13.757  -2.179  1.00  0.00     0.028 A 
HETATM   38  C   UNL     1      39.429 -13.751  -3.001  1.00  0.00     0.028 A 
ENDBRANCH   6  36
TORSDOF 7
ENDMDL
MODEL 5
REMARK VINA RESULT:      -9.0      2.779      9.740
REMARK  7 active torsions:
REMARK  status: ('A' for Active; 'I' for Inactive)
REMARK    1  A    between atoms: C_2  and  N_3 
REMARK    2  A    between atoms: C_2  and  C_25 
REMARK       I    between atoms: N_3  and  C_4 
REMARK    3  A    between atoms: C_4  and  C_5 
REMARK    4  A    between atoms: C_8  and  C_9 
REMARK       I    between atoms: C_9  and  N_10 
REMARK    5  A    between atoms: N_10  and  C_11 
REMARK    6  A    between atoms: N_19  and  C_20 
REMARK    7  A    between atoms: C_33  and  O_34 
ROOT
HETATM    1  C   UNL     1      42.750 -13.341   3.653  1.00  0.00     0.098 A 
HETATM    2  C   UNL     1      41.765 -13.350   2.528  1.00  0.00     0.206 A 
HETATM    3  O   UNL     1      41.485 -12.311   1.925  1.00  0.00    -0.286 OA
HETATM    4  C   UNL     1      41.138 -14.648   2.136  1.00  0.00     0.098 A 
HETATM    5  C   UNL     1      41.429 -15.715   2.900  1.00  0.00     0.112 A 
HETATM    6  N   UNL     1      42.264 -15.669   3.999  1.00  0.00    -0.360 N 
HETATM    7  C   UNL     1      42.936 -14.502   4.303  1.00  0.00     0.112 A 
ENDROOT
BRANCH   1   8
HETATM    8  C   UNL     1      43.529 -12.145   4.081  1.00  0.00     0.257 C 
HETATM    9  N   UNL     1      43.761 -12.056   5.426  1.00  0.00    -0.348 N 
HETATM   10  H   UNL     1      43.386 -12.784   6.034  1.00  0.00     0.163 HD
HETATM   11  O   UNL     1      43.922 -11.306   3.275  1.00  0.00    -0.267 OA
BRANCH   9  12
HETATM   12  C   UNL     1      44.471 -10.957   6.054  1.00  0.00     0.114 C 
HETATM   13  C   UNL     1      45.889 -11.363   6.466  1.00  0.00     0.037 C 
BRANCH  12  14
HETATM   14  C   UNL     1      43.655 -10.452   7.232  1.00  0.00    -0.035 A 
HETATM   15  C   UNL     1      44.261 -10.285   8.487  1.00  0.00     0.021 A 
HETATM   16  C   UNL     1      43.547  -9.763   9.581  1.00  0.00    -0.025 A 
HETATM   17  C   UNL     1      42.195  -9.396   9.415  1.00  0.00    -0.023 A 
HETATM   18  C   UNL     1      44.149  -9.589  10.837  1.00  0.00     0.015 A 
HETATM   19  C   UNL     1      41.588  -9.565   8.162  1.00  0.00     0.013 A 
HETATM   20  C   UNL     1      41.487  -8.864  10.504  1.00  0.00     0.049 A 
HETATM   21  C   UNL     1      42.309 -10.083   7.084  1.00  0.00     0.010 A 
HETATM   22  C   UNL     1      42.096  -8.688  11.750  1.00  0.00     0.069 A 
HETATM   23  C   UNL     1      43.430  -9.056  11.914  1.00  0.00     0.037 A 
BRANCH  22  24
HETATM   24  O   UNL     1      41.285  -8.153  12.713  1.00  0.00    -0.356 OA
HETATM   25  C   UNL     1      40.744  -9.054  13.670  1.00  0.00     0.210 C 
ENDBRANCH  22  24
ENDBRANCH  12  14
ENDBRANCH   9  12
ENDBRANCH   1   8
BRANCH   4  26
HETATM   26  C   UNL     1      40.248 -14.832   0.955  1.00  0.00     0.257 C 
HETATM   27  N   UNL     1      40.150 -13.742   0.127  1.00  0.00    -0.352 N 
HETATM   28  H   UNL     1      40.567 -12.867   0.442  1.00  0.00     0.163 HD
HETATM   29  O   UNL     1      39.668 -15.893   0.744  1.00  0.00    -0.267 OA
BRANCH  27  30
HETATM   30  C   UNL     1      39.279 -13.701  -1.041  1.00  0.00     0.084 C 
HETATM   31  C   UNL     1      38.536 -12.361  -1.128  1.00  0.00     0.025 C 
HETATM   32  C   UNL     1      39.459 -11.204  -1.513  1.00  0.00     0.002 C 
HETATM   33  C   UNL     1      40.223 -11.498  -2.800  1.00  0.00     0.000 C 
HETATM   34  C   UNL     1      40.993 -12.812  -2.714  1.00  0.00     0.002 C 
HETATM   35  C   UNL     1      40.083 -13.975  -2.320  1.00  0.00     0.025 C 
ENDBRANCH  27  30
ENDBRANCH   4  26
BRANCH   6  36
HETATM   36  C   UNL     1      42.646 -16.922   4.663  1.00  0.00     0.089 A 
HETATM   37  C   UNL     1      43.700 -17.840   4.098  1.00  0.00     0.028 A 
HETATM   38  C   UNL     1      43.978 -17.069   5.352  1.00  0.00     0.028 A 
ENDBRANCH   6  36
TORSDOF 7
ENDMDL
MODEL 6
REMARK VINA RESULT:      -8.9      5.242      9.260
REMARK  7 active torsions:
REMARK  status: ('A' for Active; 'I' for Inactive)
REMARK    1  A    between atoms: C_2  and  N_3 
REMARK    2  A    between atoms: C_2  and  C_25 
REMARK       I    between atoms: N_3  and  C_4 
REMARK    3  A    between atoms: C_4  and  C_5 
REMARK    4  A    between atoms: C_8  and  C_9 
REMARK       I    between atoms: C_9  and  N_10 
REMARK    5  A    between atoms: N_10  and  C_11 
REMARK    6  A    between atoms: N_19  and  C_20 
REMARK    7  A    between atoms: C_33  and  O_34 
ROOT
HETATM    1  C   UNL     1      39.904 -11.883   0.079  1.00  0.00     0.098 A 
HETATM    2  C   UNL     1      39.586 -10.556  -0.533  1.00  0.00     0.206 A 
HETATM    3  O   UNL     1      39.601  -9.527   0.147  1.00  0.00    -0.286 OA
HETATM    4  C   UNL     1      39.267 -10.498  -1.991  1.00  0.00     0.098 A 
HETATM    5  C   UNL     1      39.186 -11.674  -2.639  1.00  0.00     0.112 A 
HETATM    6  N   UNL     1      39.383 -12.900  -2.035  1.00  0.00    -0.360 N 
HETATM    7  C   UNL     1      39.789 -12.959  -0.717  1.00  0.00     0.112 A 
ENDROOT
BRANCH   1   8
HETATM    8  C   UNL     1      40.342 -12.076   1.491  1.00  0.00     0.257 C 
HETATM    9  N   UNL     1      41.649 -12.448   1.646  1.00  0.00    -0.348 N 
HETATM   10  H   UNL     1      42.220 -12.578   0.811  1.00  0.00     0.163 HD
HETATM   11  O   UNL     1      39.573 -11.916   2.435  1.00  0.00    -0.267 OA
BRANCH   9  12
HETATM   12  C   UNL     1      42.267 -12.717   2.931  1.00  0.00     0.114 C 
HETATM   13  C   UNL     1      43.410 -11.741   3.224  1.00  0.00     0.037 C 
BRANCH  12  14
HETATM   14  C   UNL     1      42.727 -14.165   2.962  1.00  0.00    -0.035 A 
HETATM   15  C   UNL     1      42.909 -14.818   4.192  1.00  0.00     0.021 A 
HETATM   16  C   UNL     1      43.276 -16.175   4.252  1.00  0.00    -0.025 A 
HETATM   17  C   UNL     1      43.460 -16.897   3.055  1.00  0.00    -0.023 A 
HETATM   18  C   UNL     1      43.454 -16.834   5.478  1.00  0.00     0.015 A 
HETATM   19  C   UNL     1      43.280 -16.244   1.826  1.00  0.00     0.013 A 
HETATM   20  C   UNL     1      43.814 -18.254   3.117  1.00  0.00     0.049 A 
HETATM   21  C   UNL     1      42.916 -14.897   1.780  1.00  0.00     0.010 A 
HETATM   22  C   UNL     1      43.984 -18.904   4.342  1.00  0.00     0.069 A 
HETATM   23  C   UNL     1      43.806 -18.189   5.524  1.00  0.00     0.037 A 
BRANCH  22  24
HETATM   24  O   UNL     1      44.321 -20.227   4.246  1.00  0.00    -0.356 OA
HETATM   25  C   UNL     1      43.888 -21.079   5.297  1.00  0.00     0.210 C 
ENDBRANCH  22  24
ENDBRANCH  12  14
ENDBRANCH   9  12
ENDBRANCH   1   8
BRANCH   4  26
HETATM   26  C   UNL     1      39.064  -9.239  -2.761  1.00  0.00     0.257 C 
HETATM   27  N   UNL     1      40.205  -8.698  -3.298  1.00  0.00    -0.352 N 
HETATM   28  H   UNL     1      41.099  -9.103  -3.024  1.00  0.00     0.163 HD
HETATM   29  O   UNL     1      37.950  -8.747  -2.910  1.00  0.00    -0.267 OA
BRANCH  27  30
HETATM   30  C   UNL     1      40.225  -7.436  -4.027  1.00  0.00     0.084 C 
HETATM   31  C   UNL     1      40.236  -6.242  -3.062  1.00  0.00     0.025 C 
HETATM   32  C   UNL     1      41.573  -6.087  -2.338  1.00  0.00     0.002 C 
HETATM   33  C   UNL     1      42.740  -6.017  -3.318  1.00  0.00     0.000 C 
HETATM   34  C   UNL     1      42.760  -7.215  -4.261  1.00  0.00     0.002 C 
HETATM   35  C   UNL     1      41.424  -7.388  -4.985  1.00  0.00     0.025 C 
ENDBRANCH  27  30
ENDBRANCH   4  26
BRANCH   6  36
HETATM   36  C   UNL     1      39.435 -14.110  -2.867  1.00  0.00     0.089 A 
HETATM   37  C   UNL     1      38.717 -15.378  -2.483  1.00  0.00     0.028 A 
HETATM   38  C   UNL     1      38.234 -14.573  -3.650  1.00  0.00     0.028 A 
ENDBRANCH   6  36
TORSDOF 7
ENDMDL
MODEL 7
REMARK VINA RESULT:      -8.8      3.217      7.002
REMARK  7 active torsions:
REMARK  status: ('A' for Active; 'I' for Inactive)
REMARK    1  A    between atoms: C_2  and  N_3 
REMARK    2  A    between atoms: C_2  and  C_25 
REMARK       I    between atoms: N_3  and  C_4 
REMARK    3  A    between atoms: C_4  and  C_5 
REMARK    4  A    between atoms: C_8  and  C_9 
REMARK       I    between atoms: C_9  and  N_10 
REMARK    5  A    between atoms: N_10  and  C_11 
REMARK    6  A    between atoms: N_19  and  C_20 
REMARK    7  A    between atoms: C_33  and  O_34 
ROOT
HETATM    1  C   UNL     1      42.213 -10.486   5.834  1.00  0.00     0.098 A 
HETATM    2  C   UNL     1      42.088 -11.976   5.815  1.00  0.00     0.206 A 
HETATM    3  O   UNL     1      41.294 -12.534   5.054  1.00  0.00    -0.286 OA
HETATM    4  C   UNL     1      42.958 -12.779   6.727  1.00  0.00     0.098 A 
HETATM    5  C   UNL     1      43.729 -12.091   7.586  1.00  0.00     0.112 A 
HETATM    6  N   UNL     1      43.758 -10.712   7.660  1.00  0.00    -0.360 N 
HETATM    7  C   UNL     1      43.046  -9.961   6.748  1.00  0.00     0.112 A 
ENDROOT
BRANCH   1   8
HETATM    8  C   UNL     1      41.489  -9.568   4.909  1.00  0.00     0.257 C 
HETATM    9  N   UNL     1      40.458 -10.139   4.215  1.00  0.00    -0.348 N 
HETATM   10  H   UNL     1      40.265 -11.130   4.360  1.00  0.00     0.163 HD
HETATM   11  O   UNL     1      41.810  -8.389   4.785  1.00  0.00    -0.267 OA
BRANCH   9  12
HETATM   12  C   UNL     1      39.647  -9.432   3.242  1.00  0.00     0.114 C 
HETATM   13  C   UNL     1      38.330  -8.944   3.853  1.00  0.00     0.037 C 
BRANCH  12  14
HETATM   14  C   UNL     1      39.423 -10.333   2.040  1.00  0.00    -0.035 A 
HETATM   15  C   UNL     1      40.012 -11.607   1.997  1.00  0.00     0.021 A 
HETATM   16  C   UNL     1      39.774 -12.487   0.925  1.00  0.00    -0.025 A 
HETATM   17  C   UNL     1      38.925 -12.085  -0.127  1.00  0.00    -0.023 A 
HETATM   18  C   UNL     1      40.356 -13.763   0.880  1.00  0.00     0.015 A 
HETATM   19  C   UNL     1      38.338 -10.812  -0.085  1.00  0.00     0.013 A 
HETATM   20  C   UNL     1      38.679 -12.969  -1.189  1.00  0.00     0.049 A 
HETATM   21  C   UNL     1      38.582  -9.948   0.984  1.00  0.00     0.010 A 
HETATM   22  C   UNL     1      39.258 -14.241  -1.223  1.00  0.00     0.069 A 
HETATM   23  C   UNL     1      40.100 -14.635  -0.186  1.00  0.00     0.037 A 
BRANCH  22  24
HETATM   24  O   UNL     1      38.921 -14.993  -2.316  1.00  0.00    -0.356 OA
HETATM   25  C   UNL     1      38.281 -14.316  -3.389  1.00  0.00     0.210 C 
ENDBRANCH  22  24
ENDBRANCH  12  14
ENDBRANCH   9  12
ENDBRANCH   1   8
BRANCH   4  26
HETATM   26  C   UNL     1      43.038 -14.267   6.722  1.00  0.00     0.257 C 
HETATM   27  N   UNL     1      42.938 -14.849   5.484  1.00  0.00    -0.352 N 
HETATM   28  H   UNL     1      42.682 -14.252   4.697  1.00  0.00     0.163 HD
HETATM   29  O   UNL     1      43.202 -14.907   7.757  1.00  0.00    -0.267 OA
BRANCH  27  30
HETATM   30  C   UNL     1      42.927 -16.291   5.277  1.00  0.00     0.084 C 
HETATM   31  C   UNL     1      41.493 -16.816   5.130  1.00  0.00     0.025 C 
HETATM   32  C   UNL     1      40.852 -16.409   3.803  1.00  0.00     0.002 C 
HETATM   33  C   UNL     1      41.715 -16.818   2.613  1.00  0.00     0.000 C 
HETATM   34  C   UNL     1      43.135 -16.273   2.730  1.00  0.00     0.002 C 
HETATM   35  C   UNL     1      43.783 -16.665   4.058  1.00  0.00     0.025 C 
ENDBRANCH  27  30
ENDBRANCH   4  26
BRANCH   6  36
HETATM   36  C   UNL     1      44.758 -10.060   8.517  1.00  0.00     0.089 A 
HETATM   37  C   UNL     1      46.052  -9.516   7.968  1.00  0.00     0.028 A 
HETATM   38  C   UNL     1      44.993  -8.573   8.454  1.00  0.00     0.028 A 
ENDBRANCH   6  36
TORSDOF 7
ENDMDL
MODEL 8
REMARK VINA RESULT:      -8.7      4.317      8.195
REMARK  7 active torsions:
REMARK  status: ('A' for Active; 'I' for Inactive)
REMARK    1  A    between atoms: C_2  and  N_3 
REMARK    2  A    between atoms: C_2  and  C_25 
REMARK       I    between atoms: N_3  and  C_4 
REMARK    3  A    between atoms: C_4  and  C_5 
REMARK    4  A    between atoms: C_8  and  C_9 
REMARK       I    between atoms: C_9  and  N_10 
REMARK    5  A    between atoms: N_10  and  C_11 
REMARK    6  A    between atoms: N_19  and  C_20 
REMARK    7  A    between atoms: C_33  and  O_34 
ROOT
HETATM    1  C   UNL     1      40.529 -11.716   1.736  1.00  0.00     0.098 A 
HETATM    2  C   UNL     1      40.267 -10.381   1.115  1.00  0.00     0.206 A 
HETATM    3  O   UNL     1      40.245  -9.358   1.803  1.00  0.00    -0.286 OA
HETATM    4  C   UNL     1      40.049 -10.309  -0.361  1.00  0.00     0.098 A 
HETATM    5  C   UNL     1      40.000 -11.478  -1.023  1.00  0.00     0.112 A 
HETATM    6  N   UNL     1      40.143 -12.711  -0.417  1.00  0.00    -0.360 N 
HETATM    7  C   UNL     1      40.458 -12.785   0.925  1.00  0.00     0.112 A 
ENDROOT
BRANCH   1   8
HETATM    8  C   UNL     1      40.868 -11.925   3.172  1.00  0.00     0.257 C 
HETATM    9  N   UNL     1      42.161 -12.302   3.413  1.00  0.00    -0.348 N 
HETATM   10  H   UNL     1      42.788 -12.426   2.619  1.00  0.00     0.163 HD
HETATM   11  O   UNL     1      40.037 -11.771   4.062  1.00  0.00    -0.267 OA
BRANCH   9  12
HETATM   12  C   UNL     1      42.688 -12.586   4.736  1.00  0.00     0.114 C 
HETATM   13  C   UNL     1      43.913 -11.724   5.052  1.00  0.00     0.037 C 
BRANCH  12  14
HETATM   14  C   UNL     1      42.990 -14.072   4.836  1.00  0.00    -0.035 A 
HETATM   15  C   UNL     1      42.892 -14.887   3.696  1.00  0.00     0.021 A 
HETATM   16  C   UNL     1      43.223 -16.253   3.744  1.00  0.00    -0.025 A 
HETATM   17  C   UNL     1      43.667 -16.817   4.959  1.00  0.00    -0.023 A 
HETATM   18  C   UNL     1      43.132 -17.072   2.608  1.00  0.00     0.015 A 
HETATM   19  C   UNL     1      43.763 -16.004   6.097  1.00  0.00     0.013 A 
HETATM   20  C   UNL     1      44.009 -18.178   5.001  1.00  0.00     0.049 A 
HETATM   21  C   UNL     1      43.432 -14.649   6.036  1.00  0.00     0.010 A 
HETATM   22  C   UNL     1      43.921 -18.985   3.863  1.00  0.00     0.069 A 
HETATM   23  C   UNL     1      43.478 -18.428   2.666  1.00  0.00     0.037 A 
BRANCH  22  24
HETATM   24  O   UNL     1      44.294 -20.287   4.055  1.00  0.00    -0.356 OA
HETATM   25  C   UNL     1      44.194 -20.796   5.378  1.00  0.00     0.210 C 
ENDBRANCH  22  24
ENDBRANCH  12  14
ENDBRANCH   9  12
ENDBRANCH   1   8
BRANCH   4  26
HETATM   26  C   UNL     1      39.911  -9.042  -1.133  1.00  0.00     0.257 C 
HETATM   27  N   UNL     1      41.095  -8.436  -1.469  1.00  0.00    -0.352 N 
HETATM   28  H   UNL     1      41.953  -8.808  -1.061  1.00  0.00     0.163 HD
HETATM   29  O   UNL     1      38.812  -8.597  -1.451  1.00  0.00    -0.267 OA
BRANCH  27  30
HETATM   30  C   UNL     1      41.170  -7.158  -2.164  1.00  0.00     0.084 C 
HETATM   31  C   UNL     1      41.004  -5.988  -1.185  1.00  0.00     0.025 C 
HETATM   32  C   UNL     1      42.220  -5.805  -0.277  1.00  0.00     0.002 C 
HETATM   33  C   UNL     1      43.509  -5.673  -1.084  1.00  0.00     0.000 C 
HETATM   34  C   UNL     1      43.704  -6.847  -2.037  1.00  0.00     0.002 C 
HETATM   35  C   UNL     1      42.489  -7.046  -2.943  1.00  0.00     0.025 C 
ENDBRANCH  27  30
ENDBRANCH   4  26
BRANCH   6  36
HETATM   36  C   UNL     1      40.240 -13.915  -1.254  1.00  0.00     0.089 A 
HETATM   37  C   UNL     1      39.023 -14.585  -1.839  1.00  0.00     0.028 A 
HETATM   38  C   UNL     1      39.979 -13.860  -2.737  1.00  0.00     0.028 A 
ENDBRANCH   6  36
TORSDOF 7
ENDMDL
MODEL 9
REMARK VINA RESULT:      -8.7      2.788      9.925
REMARK  7 active torsions:
REMARK  status: ('A' for Active; 'I' for Inactive)
REMARK    1  A    between atoms: C_2  and  N_3 
REMARK    2  A    between atoms: C_2  and  C_25 
REMARK       I    between atoms: N_3  and  C_4 
REMARK    3  A    between atoms: C_4  and  C_5 
REMARK    4  A    between atoms: C_8  and  C_9 
REMARK       I    between atoms: C_9  and  N_10 
REMARK    5  A    between atoms: N_10  and  C_11 
REMARK    6  A    between atoms: N_19  and  C_20 
REMARK    7  A    between atoms: C_33  and  O_34 
ROOT
HETATM    1  C   UNL     1      41.753 -10.042   6.201  1.00  0.00     0.098 A 
HETATM    2  C   UNL     1      41.772 -11.537   6.232  1.00  0.00     0.206 A 
HETATM    3  O   UNL     1      42.578 -12.143   6.942  1.00  0.00    -0.286 OA
HETATM    4  C   UNL     1      40.783 -12.283   5.397  1.00  0.00     0.098 A 
HETATM    5  C   UNL     1      40.002 -11.550   4.586  1.00  0.00     0.112 A 
HETATM    6  N   UNL     1      40.066 -10.173   4.494  1.00  0.00    -0.360 N 
HETATM    7  C   UNL     1      40.895  -9.466   5.341  1.00  0.00     0.112 A 
ENDROOT
BRANCH   1   8
HETATM    8  C   UNL     1      42.605  -9.170   7.058  1.00  0.00     0.257 C 
HETATM    9  N   UNL     1      43.631  -9.811   7.697  1.00  0.00    -0.348 N 
HETATM   10  H   UNL     1      43.736 -10.816   7.561  1.00  0.00     0.163 HD
HETATM   11  O   UNL     1      42.388  -7.967   7.176  1.00  0.00    -0.267 OA
BRANCH   9  12
HETATM   12  C   UNL     1      44.558  -9.154   8.600  1.00  0.00     0.114 C 
HETATM   13  C   UNL     1      45.957  -9.771   8.520  1.00  0.00     0.037 C 
BRANCH  12  14
HETATM   14  C   UNL     1      43.989  -9.203  10.008  1.00  0.00    -0.035 A 
HETATM   15  C   UNL     1      43.517  -8.028  10.616  1.00  0.00     0.021 A 
HETATM   16  C   UNL     1      42.930  -8.051  11.895  1.00  0.00    -0.025 A 
HETATM   17  C   UNL     1      42.810  -9.278  12.580  1.00  0.00    -0.023 A 
HETATM   18  C   UNL     1      42.451  -6.882  12.505  1.00  0.00     0.015 A 
HETATM   19  C   UNL     1      43.284 -10.451  11.974  1.00  0.00     0.013 A 
HETATM   20  C   UNL     1      42.213  -9.301  13.851  1.00  0.00     0.049 A 
HETATM   21  C   UNL     1      43.863 -10.414  10.705  1.00  0.00     0.010 A 
HETATM   22  C   UNL     1      41.734  -8.132  14.449  1.00  0.00     0.069 A 
HETATM   23  C   UNL     1      41.857  -6.921  13.772  1.00  0.00     0.037 A 
BRANCH  22  24
HETATM   24  O   UNL     1      41.172  -8.311  15.683  1.00  0.00    -0.356 OA
HETATM   25  C   UNL     1      41.592  -7.427  16.714  1.00  0.00     0.210 C 
ENDBRANCH  22  24
ENDBRANCH  12  14
ENDBRANCH   9  12
ENDBRANCH   1   8
BRANCH   4  26
HETATM   26  C   UNL     1      40.597 -13.761   5.430  1.00  0.00     0.257 C 
HETATM   27  N   UNL     1      41.154 -14.439   4.374  1.00  0.00    -0.352 N 
HETATM   28  H   UNL     1      41.521 -13.890   3.597  1.00  0.00     0.163 HD
HETATM   29  O   UNL     1      40.004 -14.316   6.349  1.00  0.00    -0.267 OA
BRANCH  27  30
HETATM   30  C   UNL     1      41.024 -15.878   4.191  1.00  0.00     0.084 C 
HETATM   31  C   UNL     1      40.866 -16.232   2.706  1.00  0.00     0.025 C 
HETATM   32  C   UNL     1      42.160 -16.036   1.916  1.00  0.00     0.002 C 
HETATM   33  C   UNL     1      43.324 -16.796   2.545  1.00  0.00     0.000 C 
HETATM   34  C   UNL     1      43.513 -16.428   4.013  1.00  0.00     0.002 C 
HETATM   35  C   UNL     1      42.222 -16.610   4.812  1.00  0.00     0.025 C 
ENDBRANCH  27  30
ENDBRANCH   4  26
BRANCH   6  36
HETATM   36  C   UNL     1      39.056  -9.459   3.702  1.00  0.00     0.089 A 
HETATM   37  C   UNL     1      39.263  -9.133   2.245  1.00  0.00     0.028 A 
HETATM   38  C   UNL     1      38.251 -10.164   2.640  1.00  0.00     0.028 A 
ENDBRANCH   6  36
TORSDOF 7
ENDMDL
MODEL 10
REMARK VINA RESULT:      -8.6      4.668      8.818
REMARK  7 active torsions:
REMARK  status: ('A' for Active; 'I' for Inactive)
REMARK    1  A    between atoms: C_2  and  N_3 
REMARK    2  A    between atoms: C_2  and  C_25 
REMARK       I    between atoms: N_3  and  C_4 
REMARK    3  A    between atoms: C_4  and  C_5 
REMARK    4  A    between atoms: C_8  and  C_9 
REMARK       I    between atoms: C_9  and  N_10 
REMARK    5  A    between atoms: N_10  and  C_11 
REMARK    6  A    between atoms: N_19  and  C_20 
REMARK    7  A    between atoms: C_33  and  O_34 
ROOT
HETATM    1  C   UNL     1      39.730 -12.185   1.494  1.00  0.00     0.098 A 
HETATM    2  C   UNL     1      38.985 -10.989   0.993  1.00  0.00     0.206 A 
HETATM    3  O   UNL     1      38.740 -10.039   1.741  1.00  0.00    -0.286 OA
HETATM    4  C   UNL     1      38.558 -10.959  -0.438  1.00  0.00     0.098 A 
HETATM    5  C   UNL     1      38.786 -12.071  -1.159  1.00  0.00     0.112 A 
HETATM    6  N   UNL     1      39.385 -13.207  -0.653  1.00  0.00    -0.360 N 
HETATM    7  C   UNL     1      39.885 -13.205   0.633  1.00  0.00     0.112 A 
ENDROOT
BRANCH   1   8
HETATM    8  C   UNL     1      40.307 -12.305   2.863  1.00  0.00     0.257 C 
HETATM    9  N   UNL     1      41.672 -12.381   2.911  1.00  0.00    -0.348 N 
HETATM   10  H   UNL     1      42.191 -12.364   2.034  1.00  0.00     0.163 HD
HETATM   11  O   UNL     1      39.597 -12.339   3.864  1.00  0.00    -0.267 OA
BRANCH   9  12
HETATM   12  C   UNL     1      42.432 -12.533   4.139  1.00  0.00     0.114 C 
HETATM   13  C   UNL     1      43.686 -11.654   4.139  1.00  0.00     0.037 C 
BRANCH  12  14
HETATM   14  C   UNL     1      42.761 -14.003   4.335  1.00  0.00    -0.035 A 
HETATM   15  C   UNL     1      42.730 -14.882   3.240  1.00  0.00     0.021 A 
HETATM   16  C   UNL     1      43.088 -16.235   3.378  1.00  0.00    -0.025 A 
HETATM   17  C   UNL     1      43.490 -16.721   4.640  1.00  0.00    -0.023 A 
HETATM   18  C   UNL     1      43.064 -17.117   2.286  1.00  0.00     0.015 A 
HETATM   19  C   UNL     1      43.519 -15.844   5.734  1.00  0.00     0.013 A 
HETATM   20  C   UNL     1      43.859 -18.069   4.773  1.00  0.00     0.049 A 
HETATM   21  C   UNL     1      43.162 -14.503   5.583  1.00  0.00     0.010 A 
HETATM   22  C   UNL     1      43.838 -18.939   3.679  1.00  0.00     0.069 A 
HETATM   23  C   UNL     1      43.436 -18.459   2.435  1.00  0.00     0.037 A 
BRANCH  22  24
HETATM   24  O   UNL     1      44.229 -20.219   3.960  1.00  0.00    -0.356 OA
HETATM   25  C   UNL     1      44.048 -20.669   5.296  1.00  0.00     0.210 C 
ENDBRANCH  22  24
ENDBRANCH  12  14
ENDBRANCH   9  12
ENDBRANCH   1   8
BRANCH   4  26
HETATM   26  C   UNL     1      37.931  -9.785  -1.107  1.00  0.00     0.257 C 
HETATM   27  N   UNL     1      36.694 -10.021  -1.652  1.00  0.00    -0.352 N 
HETATM   28  H   UNL     1      36.363 -10.985  -1.684  1.00  0.00     0.163 HD
HETATM   29  O   UNL     1      38.486  -8.691  -1.142  1.00  0.00    -0.267 OA
BRANCH  27  30
HETATM   30  C   UNL     1      35.948  -9.020  -2.405  1.00  0.00     0.084 C 
HETATM   31  C   UNL     1      35.333  -9.630  -3.672  1.00  0.00     0.025 C 
HETATM   32  C   UNL     1      34.168 -10.571  -3.363  1.00  0.00     0.002 C 
HETATM   33  C   UNL     1      33.107  -9.890  -2.504  1.00  0.00     0.000 C 
HETATM   34  C   UNL     1      33.700  -9.309  -1.225  1.00  0.00     0.002 C 
HETATM   35  C   UNL     1      34.873  -8.374  -1.520  1.00  0.00     0.025 C 
ENDBRANCH  27  30
ENDBRANCH   4  26
BRANCH   6  36
HETATM   36  C   UNL     1      39.737 -14.301  -1.568  1.00  0.00     0.089 A 
HETATM   37  C   UNL     1      38.690 -15.162  -2.229  1.00  0.00     0.028 A 
HETATM   38  C   UNL     1      39.486 -14.194  -3.051  1.00  0.00     0.028 A 
ENDBRANCH   6  36
TORSDOF 7
ENDMDL
