MODEL 1
REMARK VINA RESULT:      -7.6      0.000      0.000
REMARK  6 active torsions:
REMARK  status: ('A' for Active; 'I' for Inactive)
REMARK    1  A    between atoms: C_2  and  O_3 
REMARK    2  A    between atoms: O_3  and  C_4 
REMARK    3  A    between atoms: C_4  and  C_5 
REMARK    4  A    between atoms: C_6  and  O_7 
REMARK    5  A    between atoms: C_12  and  O_13 
REMARK    6  A    between atoms: C_17  and  C_18 
ROOT
HETATM    1  C   UNL     1      41.928 -13.840   6.404  1.00  0.00     0.133 C 
HETATM    2  C   UNL     1      40.477 -13.594   5.862  1.00  0.00     0.073 C 
HETATM    3  C   UNL     1      39.916 -12.273   6.414  1.00  0.00     0.047 C 
HETATM    4  C   UNL     1      40.372 -13.595   4.312  1.00  0.00     0.097 C 
HETATM    5  C   UNL     1      41.504 -12.841   3.734  1.00  0.00     0.042 A 
HETATM    6  C   UNL     1      42.731 -12.608   4.321  1.00  0.00     0.030 A 
HETATM    7  C   UNL     1      43.424 -11.894   3.329  1.00  0.00     0.190 A 
HETATM    8  N   UNL     1      42.711 -11.671   2.232  1.00  0.00    -0.149 NA
HETATM    9  N   UNL     1      41.534 -12.263   2.499  1.00  0.00    -0.279 N 
HETATM   10  H   UNL     1      40.810 -12.237   1.788  1.00  0.00     0.189 HD
HETATM   11  C   UNL     1      43.103 -13.134   5.666  1.00  0.00     0.075 C 
ENDROOT
BRANCH  11  12
HETATM   12  C   UNL     1      43.730 -12.012   6.481  1.00  0.00    -0.045 A 
HETATM   13  C   UNL     1      45.101 -11.923   6.772  1.00  0.00     0.050 A 
HETATM   14  C   UNL     1      45.597 -10.850   7.509  1.00  0.00     0.117 A 
HETATM   15  F   UNL     1      46.907 -10.787   7.778  1.00  0.00    -0.206 F 
HETATM   16  C   UNL     1      44.758  -9.844   7.971  1.00  0.00     0.042 A 
HETATM   17  C   UNL     1      43.398  -9.908   7.688  1.00  0.00     0.004 A 
HETATM   18  C   UNL     1      42.891 -10.978   6.944  1.00  0.00     0.008 A 
ENDBRANCH  11  12
BRANCH   1  19
HETATM   19  C   UNL     1      42.239 -15.324   6.383  1.00  0.00     0.267 C 
HETATM   20  O   UNL     1      41.677 -16.162   7.075  1.00  0.00    -0.265 OA
BRANCH  19  21
HETATM   21  O   UNL     1      43.233 -15.581   5.488  1.00  0.00    -0.316 OA
BRANCH  21  22
HETATM   22  C   UNL     1      43.049 -16.719   4.624  1.00  0.00     0.123 C 
HETATM   23  C   UNL     1      44.155 -17.744   4.854  1.00  0.00     0.040 C 
HETATM   24  C   UNL     1      43.101 -16.197   3.193  1.00  0.00     0.040 C 
ENDBRANCH  21  22
ENDBRANCH  19  21
ENDBRANCH   1  19
BRANCH   2  25
HETATM   25  O   UNL     1      39.584 -14.597   6.388  1.00  0.00    -0.389 OA
HETATM   26  H   UNL     1      39.480 -15.295   5.712  1.00  0.00     0.210 HD
ENDBRANCH   2  25
BRANCH   7  27
HETATM   27  O   UNL     1      44.668 -11.409   3.335  1.00  0.00    -0.343 OA
HETATM   28  H   UNL     1      45.273 -12.064   3.712  1.00  0.00     0.219 HD
ENDBRANCH   7  27
TORSDOF 6
ENDMDL
MODEL 2
REMARK VINA RESULT:      -7.5      2.462      5.733
REMARK  6 active torsions:
REMARK  status: ('A' for Active; 'I' for Inactive)
REMARK    1  A    between atoms: C_2  and  O_3 
REMARK    2  A    between atoms: O_3  and  C_4 
REMARK    3  A    between atoms: C_4  and  C_5 
REMARK    4  A    between atoms: C_6  and  O_7 
REMARK    5  A    between atoms: C_12  and  O_13 
REMARK    6  A    between atoms: C_17  and  C_18 
ROOT
HETATM    1  C   UNL     1      43.219 -12.880   3.620  1.00  0.00     0.133 C 
HETATM    2  C   UNL     1      42.047 -12.019   3.032  1.00  0.00     0.073 C 
HETATM    3  C   UNL     1      41.374 -12.757   1.863  1.00  0.00     0.047 C 
HETATM    4  C   UNL     1      40.972 -11.617   4.079  1.00  0.00     0.097 C 
HETATM    5  C   UNL     1      40.664 -12.772   4.949  1.00  0.00     0.042 A 
HETATM    6  C   UNL     1      41.480 -13.853   5.210  1.00  0.00     0.030 A 
HETATM    7  C   UNL     1      40.719 -14.609   6.117  1.00  0.00     0.190 A 
HETATM    8  N   UNL     1      39.532 -14.082   6.392  1.00  0.00    -0.149 NA
HETATM    9  N   UNL     1      39.517 -12.952   5.666  1.00  0.00    -0.279 N 
HETATM   10  H   UNL     1      38.697 -12.355   5.719  1.00  0.00     0.189 HD
HETATM   11  C   UNL     1      42.853 -13.992   4.646  1.00  0.00     0.075 C 
ENDROOT
BRANCH  11  12
HETATM   12  C   UNL     1      43.019 -15.398   4.086  1.00  0.00    -0.045 A 
HETATM   13  C   UNL     1      43.733 -16.421   4.729  1.00  0.00     0.050 A 
HETATM   14  C   UNL     1      43.821 -17.688   4.156  1.00  0.00     0.117 A 
HETATM   15  F   UNL     1      44.510 -18.648   4.785  1.00  0.00    -0.206 F 
HETATM   16  C   UNL     1      43.205 -17.975   2.944  1.00  0.00     0.042 A 
HETATM   17  C   UNL     1      42.485 -16.978   2.294  1.00  0.00     0.004 A 
HETATM   18  C   UNL     1      42.388 -15.704   2.862  1.00  0.00     0.008 A 
ENDBRANCH  11  12
BRANCH   1  19
HETATM   19  C   UNL     1      44.225 -11.977   4.307  1.00  0.00     0.267 C 
HETATM   20  O   UNL     1      45.004 -11.234   3.725  1.00  0.00    -0.265 OA
BRANCH  19  21
HETATM   21  O   UNL     1      44.134 -12.120   5.658  1.00  0.00    -0.316 OA
BRANCH  21  22
HETATM   22  C   UNL     1      44.296 -10.926   6.449  1.00  0.00     0.123 C 
HETATM   23  C   UNL     1      45.362 -11.140   7.519  1.00  0.00     0.040 C 
HETATM   24  C   UNL     1      42.947 -10.641   7.096  1.00  0.00     0.040 C 
ENDBRANCH  21  22
ENDBRANCH  19  21
ENDBRANCH   1  19
BRANCH   2  25
HETATM   25  O   UNL     1      42.577 -10.822   2.428  1.00  0.00    -0.389 OA
HETATM   26  H   UNL     1      42.062 -10.638   1.617  1.00  0.00     0.210 HD
ENDBRANCH   2  25
BRANCH   7  27
HETATM   27  O   UNL     1      41.008 -15.762   6.725  1.00  0.00    -0.343 OA
HETATM   28  H   UNL     1      41.931 -15.755   7.019  1.00  0.00     0.219 HD
ENDBRANCH   7  27
TORSDOF 6
ENDMDL
MODEL 3
REMARK VINA RESULT:      -7.2      3.162      5.162
REMARK  6 active torsions:
REMARK  status: ('A' for Active; 'I' for Inactive)
REMARK    1  A    between atoms: C_2  and  O_3 
REMARK    2  A    between atoms: O_3  and  C_4 
REMARK    3  A    between atoms: C_4  and  C_5 
REMARK    4  A    between atoms: C_6  and  O_7 
REMARK    5  A    between atoms: C_12  and  O_13 
REMARK    6  A    between atoms: C_17  and  C_18 
ROOT
HETATM    1  C   UNL     1      41.527 -13.960   5.198  1.00  0.00     0.133 C 
HETATM    2  C   UNL     1      41.906 -12.440   5.286  1.00  0.00     0.073 C 
HETATM    3  C   UNL     1      43.259 -12.185   4.601  1.00  0.00     0.047 C 
HETATM    4  C   UNL     1      40.835 -11.485   4.691  1.00  0.00     0.097 C 
HETATM    5  C   UNL     1      40.325 -12.037   3.418  1.00  0.00     0.042 A 
HETATM    6  C   UNL     1      40.334 -13.359   3.025  1.00  0.00     0.030 A 
HETATM    7  C   UNL     1      39.699 -13.320   1.773  1.00  0.00     0.190 A 
HETATM    8  N   UNL     1      39.341 -12.100   1.391  1.00  0.00    -0.149 NA
HETATM    9  N   UNL     1      39.732 -11.325   2.417  1.00  0.00    -0.279 N 
HETATM   10  H   UNL     1      39.553 -10.327   2.362  1.00  0.00     0.189 HD
HETATM   11  C   UNL     1      40.857 -14.461   3.884  1.00  0.00     0.075 C 
ENDROOT
BRANCH  11  12
HETATM   12  C   UNL     1      41.771 -15.348   3.051  1.00  0.00    -0.045 A 
HETATM   13  C   UNL     1      41.665 -16.747   2.988  1.00  0.00     0.050 A 
HETATM   14  C   UNL     1      42.531 -17.484   2.184  1.00  0.00     0.117 A 
HETATM   15  F   UNL     1      42.414 -18.817   2.142  1.00  0.00    -0.206 F 
HETATM   16  C   UNL     1      43.513 -16.863   1.423  1.00  0.00     0.042 A 
HETATM   17  C   UNL     1      43.630 -15.478   1.464  1.00  0.00     0.004 A 
HETATM   18  C   UNL     1      42.764 -14.727   2.265  1.00  0.00     0.008 A 
ENDBRANCH  11  12
BRANCH   1  19
HETATM   19  C   UNL     1      40.579 -14.318   6.325  1.00  0.00     0.267 C 
HETATM   20  O   UNL     1      39.578 -13.680   6.623  1.00  0.00    -0.265 OA
BRANCH  19  21
HETATM   21  O   UNL     1      41.010 -15.446   6.957  1.00  0.00    -0.316 OA
BRANCH  21  22
HETATM   22  C   UNL     1      42.404 -15.777   6.812  1.00  0.00     0.123 C 
HETATM   23  C   UNL     1      42.565 -17.250   6.448  1.00  0.00     0.040 C 
HETATM   24  C   UNL     1      43.065 -15.489   8.154  1.00  0.00     0.040 C 
ENDBRANCH  21  22
ENDBRANCH  19  21
ENDBRANCH   1  19
BRANCH   2  25
HETATM   25  O   UNL     1      42.140 -12.075   6.662  1.00  0.00    -0.389 OA
HETATM   26  H   UNL     1      42.878 -11.435   6.685  1.00  0.00     0.210 HD
ENDBRANCH   2  25
BRANCH   7  27
HETATM   27  O   UNL     1      39.416 -14.312   0.925  1.00  0.00    -0.343 OA
HETATM   28  H   UNL     1      38.829 -13.988   0.226  1.00  0.00     0.219 HD
ENDBRANCH   7  27
TORSDOF 6
ENDMDL
MODEL 4
REMARK VINA RESULT:      -7.2      3.080      5.127
REMARK  6 active torsions:
REMARK  status: ('A' for Active; 'I' for Inactive)
REMARK    1  A    between atoms: C_2  and  O_3 
REMARK    2  A    between atoms: O_3  and  C_4 
REMARK    3  A    between atoms: C_4  and  C_5 
REMARK    4  A    between atoms: C_6  and  O_7 
REMARK    5  A    between atoms: C_12  and  O_13 
REMARK    6  A    between atoms: C_17  and  C_18 
ROOT
HETATM    1  C   UNL     1      42.523 -14.658   5.785  1.00  0.00     0.133 C 
HETATM    2  C   UNL     1      41.942 -16.042   6.243  1.00  0.00     0.073 C 
HETATM    3  C   UNL     1      40.436 -16.118   5.942  1.00  0.00     0.047 C 
HETATM    4  C   UNL     1      42.659 -17.268   5.614  1.00  0.00     0.097 C 
HETATM    5  C   UNL     1      42.906 -17.020   4.177  1.00  0.00     0.042 A 
HETATM    6  C   UNL     1      43.007 -15.793   3.554  1.00  0.00     0.030 A 
HETATM    7  C   UNL     1      43.285 -16.140   2.221  1.00  0.00     0.190 A 
HETATM    8  N   UNL     1      43.335 -17.449   2.007  1.00  0.00    -0.149 NA
HETATM    9  N   UNL     1      43.102 -17.973   3.222  1.00  0.00    -0.279 N 
HETATM   10  H   UNL     1      43.101 -18.984   3.318  1.00  0.00     0.189 HD
HETATM   11  C   UNL     1      42.903 -14.497   4.284  1.00  0.00     0.075 C 
ENDROOT
BRANCH  11  12
HETATM   12  C   UNL     1      41.959 -13.574   3.526  1.00  0.00    -0.045 A 
HETATM   13  C   UNL     1      40.566 -13.743   3.477  1.00  0.00     0.050 A 
HETATM   14  C   UNL     1      39.770 -12.840   2.775  1.00  0.00     0.117 A 
HETATM   15  F   UNL     1      38.445 -13.023   2.739  1.00  0.00    -0.206 F 
HETATM   16  C   UNL     1      40.327 -11.753   2.112  1.00  0.00     0.042 A 
HETATM   17  C   UNL     1      41.704 -11.563   2.155  1.00  0.00     0.004 A 
HETATM   18  C   UNL     1      42.511 -12.461   2.860  1.00  0.00     0.008 A 
ENDBRANCH  11  12
BRANCH   1  19
HETATM   19  C   UNL     1      43.772 -14.337   6.581  1.00  0.00     0.267 C 
HETATM   20  O   UNL     1      44.726 -15.092   6.713  1.00  0.00    -0.265 OA
BRANCH  19  21
HETATM   21  O   UNL     1      43.672 -13.093   7.128  1.00  0.00    -0.316 OA
BRANCH  21  22
HETATM   22  C   UNL     1      44.226 -12.004   6.365  1.00  0.00     0.123 C 
HETATM   23  C   UNL     1      45.425 -11.404   7.094  1.00  0.00     0.040 C 
HETATM   24  C   UNL     1      43.122 -10.964   6.218  1.00  0.00     0.040 C 
ENDBRANCH  21  22
ENDBRANCH  19  21
ENDBRANCH   1  19
BRANCH   2  25
HETATM   25  O   UNL     1      42.015 -16.149   7.679  1.00  0.00    -0.389 OA
HETATM   26  H   UNL     1      42.097 -15.247   8.048  1.00  0.00     0.210 HD
ENDBRANCH   2  25
BRANCH   7  27
HETATM   27  O   UNL     1      43.494 -15.358   1.159  1.00  0.00    -0.343 OA
HETATM   28  H   UNL     1      42.691 -15.317   0.619  1.00  0.00     0.219 HD
ENDBRANCH   7  27
TORSDOF 6
ENDMDL
MODEL 5
REMARK VINA RESULT:      -6.8      2.879      4.877
REMARK  6 active torsions:
REMARK  status: ('A' for Active; 'I' for Inactive)
REMARK    1  A    between atoms: C_2  and  O_3 
REMARK    2  A    between atoms: O_3  and  C_4 
REMARK    3  A    between atoms: C_4  and  C_5 
REMARK    4  A    between atoms: C_6  and  O_7 
REMARK    5  A    between atoms: C_12  and  O_13 
REMARK    6  A    between atoms: C_17  and  C_18 
ROOT
HETATM    1  C   UNL     1      41.296 -14.375   2.944  1.00  0.00     0.133 C 
HETATM    2  C   UNL     1      42.275 -15.186   2.024  1.00  0.00     0.073 C 
HETATM    3  C   UNL     1      43.651 -14.502   1.971  1.00  0.00     0.047 C 
HETATM    4  C   UNL     1      42.450 -16.672   2.443  1.00  0.00     0.097 C 
HETATM    5  C   UNL     1      42.584 -16.766   3.912  1.00  0.00     0.042 A 
HETATM    6  C   UNL     1      42.127 -15.858   4.845  1.00  0.00     0.030 A 
HETATM    7  C   UNL     1      42.479 -16.458   6.066  1.00  0.00     0.190 A 
HETATM    8  N   UNL     1      43.114 -17.615   5.931  1.00  0.00    -0.149 NA
HETATM    9  N   UNL     1      43.167 -17.789   4.600  1.00  0.00    -0.279 N 
HETATM   10  H   UNL     1      43.608 -18.631   4.241  1.00  0.00     0.189 HD
HETATM   11  C   UNL     1      41.380 -14.620   4.479  1.00  0.00     0.075 C 
ENDROOT
BRANCH  11  12
HETATM   12  C   UNL     1      41.972 -13.441   5.239  1.00  0.00    -0.045 A 
HETATM   13  C   UNL     1      43.337 -13.300   5.533  1.00  0.00     0.050 A 
HETATM   14  C   UNL     1      43.799 -12.178   6.217  1.00  0.00     0.117 A 
HETATM   15  F   UNL     1      45.105 -12.067   6.491  1.00  0.00    -0.206 F 
HETATM   16  C   UNL     1      42.931 -11.172   6.620  1.00  0.00     0.042 A 
HETATM   17  C   UNL     1      41.575 -11.287   6.332  1.00  0.00     0.004 A 
HETATM   18  C   UNL     1      41.101 -12.407   5.642  1.00  0.00     0.008 A 
ENDBRANCH  11  12
BRANCH   1  19
HETATM   19  C   UNL     1      39.862 -14.659   2.543  1.00  0.00     0.267 C 
HETATM   20  O   UNL     1      39.442 -15.752   2.187  1.00  0.00    -0.265 OA
BRANCH  19  21
HETATM   21  O   UNL     1      39.118 -13.521   2.631  1.00  0.00    -0.316 OA
BRANCH  21  22
HETATM   22  C   UNL     1      39.680 -12.332   2.041  1.00  0.00     0.123 C 
HETATM   23  C   UNL     1      39.143 -11.088   2.742  1.00  0.00     0.040 C 
HETATM   24  C   UNL     1      39.267 -12.333   0.575  1.00  0.00     0.040 C 
ENDBRANCH  21  22
ENDBRANCH  19  21
ENDBRANCH   1  19
BRANCH   2  25
HETATM   25  O   UNL     1      41.812 -15.140   0.660  1.00  0.00    -0.389 OA
HETATM   26  H   UNL     1      41.502 -14.231   0.474  1.00  0.00     0.210 HD
ENDBRANCH   2  25
BRANCH   7  27
HETATM   27  O   UNL     1      42.278 -16.036   7.316  1.00  0.00    -0.343 OA
HETATM   28  H   UNL     1      43.071 -16.197   7.848  1.00  0.00     0.219 HD
ENDBRANCH   7  27
TORSDOF 6
ENDMDL
MODEL 6
REMARK VINA RESULT:      -6.7      6.622      9.036
REMARK  6 active torsions:
REMARK  status: ('A' for Active; 'I' for Inactive)
REMARK    1  A    between atoms: C_2  and  O_3 
REMARK    2  A    between atoms: O_3  and  C_4 
REMARK    3  A    between atoms: C_4  and  C_5 
REMARK    4  A    between atoms: C_6  and  O_7 
REMARK    5  A    between atoms: C_12  and  O_13 
REMARK    6  A    between atoms: C_17  and  C_18 
ROOT
HETATM    1  C   UNL     1      40.637  -7.938  10.624  1.00  0.00     0.133 C 
HETATM    2  C   UNL     1      41.469  -7.523   9.360  1.00  0.00     0.073 C 
HETATM    3  C   UNL     1      42.515  -6.458   9.732  1.00  0.00     0.047 C 
HETATM    4  C   UNL     1      42.172  -8.713   8.648  1.00  0.00     0.097 C 
HETATM    5  C   UNL     1      42.772  -9.614   9.655  1.00  0.00     0.042 A 
HETATM    6  C   UNL     1      42.392  -9.754  10.973  1.00  0.00     0.030 A 
HETATM    7  C   UNL     1      43.255 -10.757  11.445  1.00  0.00     0.190 A 
HETATM    8  N   UNL     1      44.114 -11.198  10.533  1.00  0.00    -0.149 NA
HETATM    9  N   UNL     1      43.800 -10.485   9.439  1.00  0.00    -0.279 N 
HETATM   10  H   UNL     1      44.324 -10.655   8.586  1.00  0.00     0.189 HD
HETATM   11  C   UNL     1      41.255  -9.002  11.578  1.00  0.00     0.075 C 
ENDROOT
BRANCH  11  12
HETATM   12  C   UNL     1      41.699  -8.419  12.912  1.00  0.00    -0.045 A 
HETATM   13  C   UNL     1      41.039  -8.650  14.129  1.00  0.00     0.050 A 
HETATM   14  C   UNL     1      41.524  -8.094  15.311  1.00  0.00     0.117 A 
HETATM   15  F   UNL     1      40.876  -8.325  16.460  1.00  0.00    -0.206 F 
HETATM   16  C   UNL     1      42.667  -7.305  15.320  1.00  0.00     0.042 A 
HETATM   17  C   UNL     1      43.341  -7.070  14.127  1.00  0.00     0.004 A 
HETATM   18  C   UNL     1      42.865  -7.627  12.936  1.00  0.00     0.008 A 
ENDBRANCH  11  12
BRANCH   1  19
HETATM   19  C   UNL     1      39.288  -8.479  10.194  1.00  0.00     0.267 C 
HETATM   20  O   UNL     1      39.085  -9.626   9.822  1.00  0.00    -0.265 OA
BRANCH  19  21
HETATM   21  O   UNL     1      38.343  -7.501  10.280  1.00  0.00    -0.316 OA
BRANCH  21  22
HETATM   22  C   UNL     1      38.516  -6.523  11.325  1.00  0.00     0.123 C 
HETATM   23  C   UNL     1      37.576  -6.821  12.489  1.00  0.00     0.040 C 
HETATM   24  C   UNL     1      38.188  -5.166  10.714  1.00  0.00     0.040 C 
ENDBRANCH  21  22
ENDBRANCH  19  21
ENDBRANCH   1  19
BRANCH   2  25
HETATM   25  O   UNL     1      40.614  -6.855   8.411  1.00  0.00    -0.389 OA
HETATM   26  H   UNL     1      40.138  -7.538   7.898  1.00  0.00     0.210 HD
ENDBRANCH   2  25
BRANCH   7  27
HETATM   27  O   UNL     1      43.340 -11.314  12.655  1.00  0.00    -0.343 OA
HETATM   28  H   UNL     1      42.697 -12.035  12.730  1.00  0.00     0.219 HD
ENDBRANCH   7  27
TORSDOF 6
ENDMDL
MODEL 7
REMARK VINA RESULT:      -6.7      3.820      6.239
REMARK  6 active torsions:
REMARK  status: ('A' for Active; 'I' for Inactive)
REMARK    1  A    between atoms: C_2  and  O_3 
REMARK    2  A    between atoms: O_3  and  C_4 
REMARK    3  A    between atoms: C_4  and  C_5 
REMARK    4  A    between atoms: C_6  and  O_7 
REMARK    5  A    between atoms: C_12  and  O_13 
REMARK    6  A    between atoms: C_17  and  C_18 
ROOT
HETATM    1  C   UNL     1      41.761 -15.658   3.344  1.00  0.00     0.133 C 
HETATM    2  C   UNL     1      40.575 -15.199   4.263  1.00  0.00     0.073 C 
HETATM    3  C   UNL     1      39.867 -16.420   4.874  1.00  0.00     0.047 C 
HETATM    4  C   UNL     1      40.996 -14.223   5.397  1.00  0.00     0.097 C 
HETATM    5  C   UNL     1      42.259 -14.683   6.011  1.00  0.00     0.042 A 
HETATM    6  C   UNL     1      43.219 -15.485   5.428  1.00  0.00     0.030 A 
HETATM    7  C   UNL     1      44.207 -15.567   6.424  1.00  0.00     0.190 A 
HETATM    8  N   UNL     1      43.903 -14.908   7.536  1.00  0.00    -0.149 NA
HETATM    9  N   UNL     1      42.703 -14.369   7.262  1.00  0.00    -0.279 N 
HETATM   10  H   UNL     1      42.258 -13.796   7.972  1.00  0.00     0.189 HD
HETATM   11  C   UNL     1      43.118 -15.993   4.030  1.00  0.00     0.075 C 
ENDROOT
BRANCH  11  12
HETATM   12  C   UNL     1      43.440 -17.481   4.017  1.00  0.00    -0.045 A 
HETATM   13  C   UNL     1      43.528 -18.275   5.171  1.00  0.00     0.050 A 
HETATM   14  C   UNL     1      43.808 -19.636   5.071  1.00  0.00     0.117 A 
HETATM   15  F   UNL     1      43.892 -20.374   6.185  1.00  0.00    -0.206 F 
HETATM   16  C   UNL     1      44.003 -20.242   3.836  1.00  0.00     0.042 A 
HETATM   17  C   UNL     1      43.913 -19.475   2.679  1.00  0.00     0.004 A 
HETATM   18  C   UNL     1      43.627 -18.109   2.769  1.00  0.00     0.008 A 
ENDBRANCH  11  12
BRANCH   1  19
HETATM   19  C   UNL     1      42.055 -14.586   2.313  1.00  0.00     0.267 C 
HETATM   20  O   UNL     1      42.966 -13.773   2.394  1.00  0.00    -0.265 OA
BRANCH  19  21
HETATM   21  O   UNL     1      41.155 -14.660   1.292  1.00  0.00    -0.316 OA
BRANCH  21  22
HETATM   22  C   UNL     1      41.047 -13.504   0.439  1.00  0.00     0.123 C 
HETATM   23  C   UNL     1      40.279 -12.392   1.146  1.00  0.00     0.040 C 
HETATM   24  C   UNL     1      40.300 -13.951  -0.812  1.00  0.00     0.040 C 
ENDBRANCH  21  22
ENDBRANCH  19  21
ENDBRANCH   1  19
BRANCH   2  25
HETATM   25  O   UNL     1      39.554 -14.569   3.464  1.00  0.00    -0.389 OA
HETATM   26  H   UNL     1      38.688 -14.933   3.736  1.00  0.00     0.210 HD
ENDBRANCH   2  25
BRANCH   7  27
HETATM   27  O   UNL     1      45.379 -16.206   6.417  1.00  0.00    -0.343 OA
HETATM   28  H   UNL     1      45.263 -17.107   6.752  1.00  0.00     0.219 HD
ENDBRANCH   7  27
TORSDOF 6
ENDMDL
MODEL 8
REMARK VINA RESULT:      -6.7     16.799     18.813
REMARK  6 active torsions:
REMARK  status: ('A' for Active; 'I' for Inactive)
REMARK    1  A    between atoms: C_2  and  O_3 
REMARK    2  A    between atoms: O_3  and  C_4 
REMARK    3  A    between atoms: C_4  and  C_5 
REMARK    4  A    between atoms: C_6  and  O_7 
REMARK    5  A    between atoms: C_12  and  O_13 
REMARK    6  A    between atoms: C_17  and  C_18 
ROOT
HETATM    1  C   UNL     1      47.357 -30.192   0.010  1.00  0.00     0.133 C 
HETATM    2  C   UNL     1      47.805 -29.042   0.979  1.00  0.00     0.073 C 
HETATM    3  C   UNL     1      47.681 -27.676   0.282  1.00  0.00     0.047 C 
HETATM    4  C   UNL     1      47.028 -29.010   2.324  1.00  0.00     0.097 C 
HETATM    5  C   UNL     1      45.588 -29.235   2.075  1.00  0.00     0.042 A 
HETATM    6  C   UNL     1      45.025 -29.880   0.993  1.00  0.00     0.030 A 
HETATM    7  C   UNL     1      43.652 -29.847   1.287  1.00  0.00     0.190 A 
HETATM    8  N   UNL     1      43.362 -29.228   2.425  1.00  0.00    -0.149 NA
HETATM    9  N   UNL     1      44.565 -28.861   2.896  1.00  0.00    -0.279 N 
HETATM   10  H   UNL     1      44.605 -28.369   3.783  1.00  0.00     0.189 HD
HETATM   11  C   UNL     1      45.833 -30.486  -0.105  1.00  0.00     0.075 C 
ENDROOT
BRANCH  11  12
HETATM   12  C   UNL     1      45.244 -30.064  -1.444  1.00  0.00    -0.045 A 
HETATM   13  C   UNL     1      45.359 -28.773  -1.981  1.00  0.00     0.050 A 
HETATM   14  C   UNL     1      44.807 -28.475  -3.225  1.00  0.00     0.117 A 
HETATM   15  F   UNL     1      44.924 -27.235  -3.717  1.00  0.00    -0.206 F 
HETATM   16  C   UNL     1      44.136 -29.440  -3.966  1.00  0.00     0.042 A 
HETATM   17  C   UNL     1      44.018 -30.729  -3.456  1.00  0.00     0.004 A 
HETATM   18  C   UNL     1      44.572 -31.039  -2.210  1.00  0.00     0.008 A 
ENDBRANCH  11  12
BRANCH   1  19
HETATM   19  C   UNL     1      48.015 -31.494   0.423  1.00  0.00     0.267 C 
HETATM   20  O   UNL     1      47.595 -32.240   1.297  1.00  0.00    -0.265 OA
BRANCH  19  21
HETATM   21  O   UNL     1      49.138 -31.705  -0.318  1.00  0.00    -0.316 OA
BRANCH  21  22
HETATM   22  C   UNL     1      49.143 -31.169  -1.656  1.00  0.00     0.123 C 
HETATM   23  C   UNL     1      48.881 -32.277  -2.672  1.00  0.00     0.040 C 
HETATM   24  C   UNL     1      50.522 -30.561  -1.881  1.00  0.00     0.040 C 
ENDBRANCH  21  22
ENDBRANCH  19  21
ENDBRANCH   1  19
BRANCH   2  25
HETATM   25  O   UNL     1      49.214 -29.162   1.260  1.00  0.00    -0.389 OA
HETATM   26  H   UNL     1      49.398 -28.687   2.095  1.00  0.00     0.210 HD
ENDBRANCH   2  25
BRANCH   7  27
HETATM   27  O   UNL     1      42.617 -30.333   0.597  1.00  0.00    -0.343 OA
HETATM   28  H   UNL     1      41.812 -29.847   0.830  1.00  0.00     0.219 HD
ENDBRANCH   7  27
TORSDOF 6
ENDMDL
MODEL 9
REMARK VINA RESULT:      -6.6      4.223      6.381
REMARK  6 active torsions:
REMARK  status: ('A' for Active; 'I' for Inactive)
REMARK    1  A    between atoms: C_2  and  O_3 
REMARK    2  A    between atoms: O_3  and  C_4 
REMARK    3  A    between atoms: C_4  and  C_5 
REMARK    4  A    between atoms: C_6  and  O_7 
REMARK    5  A    between atoms: C_12  and  O_13 
REMARK    6  A    between atoms: C_17  and  C_18 
ROOT
HETATM    1  C   UNL     1      40.196 -13.365   0.986  1.00  0.00     0.133 C 
HETATM    2  C   UNL     1      39.222 -12.374   1.715  1.00  0.00     0.073 C 
HETATM    3  C   UNL     1      38.690 -13.002   3.013  1.00  0.00     0.047 C 
HETATM    4  C   UNL     1      39.851 -10.988   2.030  1.00  0.00     0.097 C 
HETATM    5  C   UNL     1      41.226 -11.166   2.540  1.00  0.00     0.042 A 
HETATM    6  C   UNL     1      42.059 -12.243   2.317  1.00  0.00     0.030 A 
HETATM    7  C   UNL     1      43.238 -11.873   2.986  1.00  0.00     0.190 A 
HETATM    8  N   UNL     1      43.162 -10.696   3.594  1.00  0.00    -0.149 NA
HETATM    9  N   UNL     1      41.919 -10.276   3.307  1.00  0.00    -0.279 N 
HETATM   10  H   UNL     1      41.622  -9.371   3.661  1.00  0.00     0.189 HD
HETATM   11  C   UNL     1      41.675 -13.409   1.469  1.00  0.00     0.075 C 
ENDROOT
BRANCH  11  12
HETATM   12  C   UNL     1      42.023 -14.695   2.207  1.00  0.00    -0.045 A 
HETATM   13  C   UNL     1      41.461 -15.072   3.436  1.00  0.00     0.050 A 
HETATM   14  C   UNL     1      41.820 -16.277   4.036  1.00  0.00     0.117 A 
HETATM   15  F   UNL     1      41.275 -16.615   5.211  1.00  0.00    -0.206 F 
HETATM   16  C   UNL     1      42.734 -17.135   3.437  1.00  0.00     0.042 A 
HETATM   17  C   UNL     1      43.296 -16.785   2.214  1.00  0.00     0.004 A 
HETATM   18  C   UNL     1      42.939 -15.579   1.602  1.00  0.00     0.008 A 
ENDBRANCH  11  12
BRANCH   1  19
HETATM   19  C   UNL     1      40.238 -13.046  -0.495  1.00  0.00     0.267 C 
HETATM   20  O   UNL     1      41.018 -12.260  -1.016  1.00  0.00    -0.265 OA
BRANCH  19  21
HETATM   21  O   UNL     1      39.280 -13.757  -1.153  1.00  0.00    -0.316 OA
BRANCH  21  22
HETATM   22  C   UNL     1      38.977 -13.343  -2.500  1.00  0.00     0.123 C 
HETATM   23  C   UNL     1      37.833 -12.333  -2.500  1.00  0.00     0.040 C 
HETATM   24  C   UNL     1      38.574 -14.599  -3.264  1.00  0.00     0.040 C 
ENDBRANCH  21  22
ENDBRANCH  19  21
ENDBRANCH   1  19
BRANCH   2  25
HETATM   25  O   UNL     1      38.040 -12.175   0.914  1.00  0.00    -0.389 OA
HETATM   26  H   UNL     1      38.320 -12.032  -0.012  1.00  0.00     0.210 HD
ENDBRANCH   2  25
BRANCH   7  27
HETATM   27  O   UNL     1      44.397 -12.526   3.104  1.00  0.00    -0.343 OA
HETATM   28  H   UNL     1      44.488 -13.165   2.382  1.00  0.00     0.219 HD
ENDBRANCH   7  27
TORSDOF 6
ENDMDL
MODEL 10
REMARK VINA RESULT:      -6.6      2.912      4.362
REMARK  6 active torsions:
REMARK  status: ('A' for Active; 'I' for Inactive)
REMARK    1  A    between atoms: C_2  and  O_3 
REMARK    2  A    between atoms: O_3  and  C_4 
REMARK    3  A    between atoms: C_4  and  C_5 
REMARK    4  A    between atoms: C_6  and  O_7 
REMARK    5  A    between atoms: C_12  and  O_13 
REMARK    6  A    between atoms: C_17  and  C_18 
ROOT
HETATM    1  C   UNL     1      41.385 -13.160   3.951  1.00  0.00     0.133 C 
HETATM    2  C   UNL     1      40.289 -12.177   4.494  1.00  0.00     0.073 C 
HETATM    3  C   UNL     1      39.525 -12.818   5.664  1.00  0.00     0.047 C 
HETATM    4  C   UNL     1      40.843 -10.793   4.933  1.00  0.00     0.097 C 
HETATM    5  C   UNL     1      42.100 -10.975   5.690  1.00  0.00     0.042 A 
HETATM    6  C   UNL     1      42.964 -12.049   5.616  1.00  0.00     0.030 A 
HETATM    7  C   UNL     1      43.995 -11.683   6.497  1.00  0.00     0.190 A 
HETATM    8  N   UNL     1      43.804 -10.511   7.091  1.00  0.00    -0.149 NA
HETATM    9  N   UNL     1      42.635 -10.090   6.580  1.00  0.00    -0.279 N 
HETATM   10  H   UNL     1      42.274  -9.190   6.880  1.00  0.00     0.189 HD
HETATM   11  C   UNL     1      42.748 -13.207   4.702  1.00  0.00     0.075 C 
ENDROOT
BRANCH  11  12
HETATM   12  C   UNL     1      42.956 -14.499   5.480  1.00  0.00    -0.045 A 
HETATM   13  C   UNL     1      43.671 -15.604   4.992  1.00  0.00     0.050 A 
HETATM   14  C   UNL     1      43.832 -16.743   5.777  1.00  0.00     0.117 A 
HETATM   15  F   UNL     1      44.514 -17.786   5.290  1.00  0.00    -0.206 F 
HETATM   16  C   UNL     1      43.297 -16.816   7.058  1.00  0.00     0.042 A 
HETATM   17  C   UNL     1      42.593 -15.729   7.564  1.00  0.00     0.004 A 
HETATM   18  C   UNL     1      42.429 -14.580   6.785  1.00  0.00     0.008 A 
ENDBRANCH  11  12
BRANCH   1  19
HETATM   19  C   UNL     1      41.702 -12.828   2.507  1.00  0.00     0.267 C 
HETATM   20  O   UNL     1      42.357 -11.861   2.143  1.00  0.00    -0.265 OA
BRANCH  19  21
HETATM   21  O   UNL     1      41.146 -13.758   1.680  1.00  0.00    -0.316 OA
BRANCH  21  22
HETATM   22  C   UNL     1      41.276 -15.137   2.077  1.00  0.00     0.123 C 
HETATM   23  C   UNL     1      42.544 -15.742   1.483  1.00  0.00     0.040 C 
HETATM   24  C   UNL     1      40.045 -15.863   1.548  1.00  0.00     0.040 C 
ENDBRANCH  21  22
ENDBRANCH  19  21
ENDBRANCH   1  19
BRANCH   2  25
HETATM   25  O   UNL     1      39.276 -11.973   3.489  1.00  0.00    -0.389 OA
HETATM   26  H   UNL     1      39.622 -12.308   2.637  1.00  0.00     0.210 HD
ENDBRANCH   2  25
BRANCH   7  27
HETATM   27  O   UNL     1      45.114 -12.335   6.823  1.00  0.00    -0.343 OA
HETATM   28  H   UNL     1      45.297 -13.021   6.164  1.00  0.00     0.219 HD
ENDBRANCH   7  27
TORSDOF 6
ENDMDL
