MODEL 1
REMARK VINA RESULT:      -9.0      0.000      0.000
REMARK  4 active torsions:
REMARK  status: ('A' for Active; 'I' for Inactive)
REMARK    1  A    between atoms: C_2  and  N_3 
REMARK    2  A    between atoms: N_7  and  C_9 
REMARK    3  A    between atoms: C_9  and  C_10 
REMARK    4  A    between atoms: C_13  and  C_14 
ROOT
HETATM    1  N   UNL     1      38.978 -11.234   0.752  1.00  0.00    -0.398 N 
HETATM    2  C   UNL     1      39.951 -12.366   0.461  1.00  0.00     0.075 C 
HETATM    3  C   UNL     1      40.008 -13.541   1.474  1.00  0.00     0.065 C 
HETATM    4  C   UNL     1      40.604 -13.252   2.841  1.00  0.00     0.238 C 
HETATM    5  N   UNL     1      41.861 -12.417   2.785  1.00  0.00    -0.065 N 
HETATM    6  H   UNL     1      41.888 -11.949   3.703  1.00  0.00     0.280 HD
HETATM    7  C   UNL     1      41.821 -11.274   1.802  1.00  0.00     0.238 C 
HETATM    8  C   UNL     1      41.363 -11.736   0.425  1.00  0.00     0.065 C 
HETATM    9  C   UNL     1      39.646 -13.003  -0.894  1.00  0.00     0.061 A 
HETATM   10  C   UNL     1      38.503 -12.772  -1.629  1.00  0.00     0.037 A 
HETATM   11  N   UNL     1      38.603 -13.520  -2.778  1.00  0.00    -0.354 N 
HETATM   12  H   UNL     1      37.912 -13.553  -3.528  1.00  0.00     0.166 HD
HETATM   13  C   UNL     1      39.764 -14.182  -2.802  1.00  0.00     0.181 A 
HETATM   14  N   UNL     1      40.405 -13.877  -1.662  1.00  0.00    -0.352 N 
HETATM   15  H   UNL     1      41.328 -14.244  -1.444  1.00  0.00     0.166 HD
HETATM   16  C   UNL     1      37.472 -11.805  -1.240  1.00  0.00     0.078 C 
HETATM   17  C   UNL     1      38.216 -10.721  -0.432  1.00  0.00     0.124 C 
ENDROOT
BRANCH   5  18
HETATM   18  C   UNL     1      43.174 -13.213   2.805  1.00  0.00     0.301 C 
BRANCH  18  19
HETATM   19  C   UNL     1      42.949 -14.590   3.297  1.00  0.00     0.107 C 
HETATM   20  O   UNL     1      43.097 -14.767   4.632  1.00  0.00    -0.216 OA
HETATM   21  N   UNL     1      43.254 -16.105   4.898  1.00  0.00    -0.128 NA
HETATM   22  C   UNL     1      43.156 -16.751   3.725  1.00  0.00     0.097 C 
HETATM   23  C   UNL     1      42.852 -15.820   2.687  1.00  0.00     0.071 C 
BRANCH  22  24
HETATM   24  C   UNL     1      43.500 -18.166   3.578  1.00  0.00    -0.005 A 
HETATM   25  C   UNL     1      43.242 -18.830   2.367  1.00  0.00     0.014 A 
HETATM   26  C   UNL     1      43.443 -20.207   2.251  1.00  0.00     0.001 A 
HETATM   27  C   UNL     1      43.910 -20.936   3.340  1.00  0.00     0.000 A 
HETATM   28  C   UNL     1      44.192 -20.288   4.542  1.00  0.00     0.001 A 
HETATM   29  C   UNL     1      43.988 -18.910   4.661  1.00  0.00     0.014 A 
ENDBRANCH  22  24
ENDBRANCH  18  19
ENDBRANCH   5  18
BRANCH   1  30
HETATM   30  C   UNL     1      38.145 -11.314   1.960  1.00  0.00     0.113 C 
HETATM   31  C   UNL     1      38.422 -10.269   3.046  1.00  0.00     0.026 C 
ENDBRANCH   1  30
TORSDOF 4
ENDMDL
MODEL 2
REMARK VINA RESULT:      -8.8      1.659      2.350
REMARK  4 active torsions:
REMARK  status: ('A' for Active; 'I' for Inactive)
REMARK    1  A    between atoms: C_2  and  N_3 
REMARK    2  A    between atoms: N_7  and  C_9 
REMARK    3  A    between atoms: C_9  and  C_10 
REMARK    4  A    between atoms: C_13  and  C_14 
ROOT
HETATM    1  N   UNL     1      41.088 -11.120  -0.906  1.00  0.00    -0.398 N 
HETATM    2  C   UNL     1      39.966 -11.937  -0.287  1.00  0.00     0.075 C 
HETATM    3  C   UNL     1      39.147 -11.281   0.858  1.00  0.00     0.065 C 
HETATM    4  C   UNL     1      39.855 -11.070   2.185  1.00  0.00     0.238 C 
HETATM    5  N   UNL     1      40.692 -12.251   2.616  1.00  0.00    -0.065 N 
HETATM    6  H   UNL     1      41.412 -11.835   3.225  1.00  0.00     0.280 HD
HETATM    7  C   UNL     1      41.489 -12.901   1.513  1.00  0.00     0.238 C 
HETATM    8  C   UNL     1      40.620 -13.210   0.301  1.00  0.00     0.065 C 
HETATM    9  C   UNL     1      38.943 -12.338  -1.349  1.00  0.00     0.061 A 
HETATM   10  C   UNL     1      38.894 -11.820  -2.625  1.00  0.00     0.037 A 
HETATM   11  N   UNL     1      37.845 -12.431  -3.269  1.00  0.00    -0.354 N 
HETATM   12  H   UNL     1      37.560 -12.261  -4.234  1.00  0.00     0.166 HD
HETATM   13  C   UNL     1      37.257 -13.320  -2.463  1.00  0.00     0.181 A 
HETATM   14  N   UNL     1      37.915 -13.272  -1.293  1.00  0.00    -0.352 N 
HETATM   15  H   UNL     1      37.671 -13.871  -0.508  1.00  0.00     0.166 HD
HETATM   16  C   UNL     1      39.885 -10.880  -3.155  1.00  0.00     0.078 C 
HETATM   17  C   UNL     1      41.193 -11.198  -2.399  1.00  0.00     0.124 C 
ENDROOT
BRANCH   5  18
HETATM   18  C   UNL     1      39.998 -13.225   3.578  1.00  0.00     0.301 C 
BRANCH  18  19
HETATM   19  C   UNL     1      40.927 -14.291   4.012  1.00  0.00     0.107 C 
HETATM   20  O   UNL     1      42.144 -13.871   4.436  1.00  0.00    -0.216 OA
HETATM   21  N   UNL     1      43.018 -14.930   4.429  1.00  0.00    -0.128 NA
HETATM   22  C   UNL     1      42.320 -16.010   4.042  1.00  0.00     0.097 C 
HETATM   23  C   UNL     1      40.948 -15.660   3.870  1.00  0.00     0.071 C 
BRANCH  22  24
HETATM   24  C   UNL     1      42.966 -17.277   3.694  1.00  0.00    -0.005 A 
HETATM   25  C   UNL     1      42.730 -17.864   2.441  1.00  0.00     0.014 A 
HETATM   26  C   UNL     1      43.232 -19.132   2.140  1.00  0.00     0.001 A 
HETATM   27  C   UNL     1      43.981 -19.826   3.086  1.00  0.00     0.000 A 
HETATM   28  C   UNL     1      44.242 -19.247   4.327  1.00  0.00     0.001 A 
HETATM   29  C   UNL     1      43.738 -17.979   4.631  1.00  0.00     0.014 A 
ENDBRANCH  22  24
ENDBRANCH  18  19
ENDBRANCH   5  18
BRANCH   1  30
HETATM   30  C   UNL     1      41.333  -9.762  -0.400  1.00  0.00     0.113 C 
HETATM   31  C   UNL     1      42.339  -8.914  -1.187  1.00  0.00     0.026 C 
ENDBRANCH   1  30
TORSDOF 4
ENDMDL
MODEL 3
REMARK VINA RESULT:      -8.5      2.237      9.095
REMARK  4 active torsions:
REMARK  status: ('A' for Active; 'I' for Inactive)
REMARK    1  A    between atoms: C_2  and  N_3 
REMARK    2  A    between atoms: N_7  and  C_9 
REMARK    3  A    between atoms: C_9  and  C_10 
REMARK    4  A    between atoms: C_13  and  C_14 
ROOT
HETATM    1  N   UNL     1      43.507 -17.914   3.145  1.00  0.00    -0.398 N 
HETATM    2  C   UNL     1      42.754 -16.709   3.686  1.00  0.00     0.075 C 
HETATM    3  C   UNL     1      41.255 -16.569   3.304  1.00  0.00     0.065 C 
HETATM    4  C   UNL     1      40.934 -16.240   1.856  1.00  0.00     0.238 C 
HETATM    5  N   UNL     1      41.828 -15.174   1.269  1.00  0.00    -0.065 N 
HETATM    6  H   UNL     1      41.813 -15.369   0.257  1.00  0.00     0.280 HD
HETATM    7  C   UNL     1      43.286 -15.295   1.635  1.00  0.00     0.238 C 
HETATM    8  C   UNL     1      43.475 -15.455   3.138  1.00  0.00     0.065 C 
HETATM    9  C   UNL     1      42.794 -16.690   5.213  1.00  0.00     0.061 A 
HETATM   10  C   UNL     1      43.218 -17.740   5.998  1.00  0.00     0.037 A 
HETATM   11  N   UNL     1      43.109 -17.335   7.307  1.00  0.00    -0.354 N 
HETATM   12  H   UNL     1      43.356 -17.893   8.125  1.00  0.00     0.166 HD
HETATM   13  C   UNL     1      42.663 -16.077   7.370  1.00  0.00     0.181 A 
HETATM   14  N   UNL     1      42.467 -15.674   6.104  1.00  0.00    -0.352 N 
HETATM   15  H   UNL     1      42.142 -14.739   5.876  1.00  0.00     0.166 HD
HETATM   16  C   UNL     1      43.774 -18.983   5.457  1.00  0.00     0.078 C 
HETATM   17  C   UNL     1      44.428 -18.586   4.117  1.00  0.00     0.124 C 
ENDROOT
BRANCH   5  18
HETATM   18  C   UNL     1      41.261 -13.748   1.318  1.00  0.00     0.301 C 
BRANCH  18  19
HETATM   19  C   UNL     1      40.282 -13.531   0.230  1.00  0.00     0.107 C 
HETATM   20  O   UNL     1      40.441 -14.312  -0.865  1.00  0.00    -0.216 OA
HETATM   21  N   UNL     1      39.754 -13.761  -1.919  1.00  0.00    -0.128 NA
HETATM   22  C   UNL     1      39.137 -12.664  -1.452  1.00  0.00     0.097 C 
HETATM   23  C   UNL     1      39.365 -12.544  -0.049  1.00  0.00     0.071 C 
BRANCH  22  24
HETATM   24  C   UNL     1      38.498 -11.688  -2.337  1.00  0.00    -0.005 A 
HETATM   25  C   UNL     1      39.283 -10.779  -3.064  1.00  0.00     0.014 A 
HETATM   26  C   UNL     1      38.689  -9.759  -3.811  1.00  0.00     0.001 A 
HETATM   27  C   UNL     1      37.303  -9.640  -3.846  1.00  0.00     0.000 A 
HETATM   28  C   UNL     1      36.509 -10.548  -3.147  1.00  0.00     0.001 A 
HETATM   29  C   UNL     1      37.102 -11.568  -2.397  1.00  0.00     0.014 A 
ENDBRANCH  22  24
ENDBRANCH  18  19
ENDBRANCH   5  18
BRANCH   1  30
HETATM   30  C   UNL     1      42.784 -18.879   2.304  1.00  0.00     0.113 C 
HETATM   31  C   UNL     1      43.519 -20.183   1.979  1.00  0.00     0.026 C 
ENDBRANCH   1  30
TORSDOF 4
ENDMDL
MODEL 4
REMARK VINA RESULT:      -8.5      5.495      7.801
REMARK  4 active torsions:
REMARK  status: ('A' for Active; 'I' for Inactive)
REMARK    1  A    between atoms: C_2  and  N_3 
REMARK    2  A    between atoms: N_7  and  C_9 
REMARK    3  A    between atoms: C_9  and  C_10 
REMARK    4  A    between atoms: C_13  and  C_14 
ROOT
HETATM    1  N   UNL     1      40.712 -13.203   3.262  1.00  0.00    -0.398 N 
HETATM    2  C   UNL     1      42.023 -13.747   3.806  1.00  0.00     0.075 C 
HETATM    3  C   UNL     1      42.199 -13.787   5.349  1.00  0.00     0.065 C 
HETATM    4  C   UNL     1      42.343 -12.456   6.066  1.00  0.00     0.238 C 
HETATM    5  N   UNL     1      43.263 -11.488   5.360  1.00  0.00    -0.065 N 
HETATM    6  H   UNL     1      42.931 -10.563   5.669  1.00  0.00     0.280 HD
HETATM    7  C   UNL     1      43.106 -11.442   3.861  1.00  0.00     0.238 C 
HETATM    8  C   UNL     1      43.144 -12.837   3.250  1.00  0.00     0.065 C 
HETATM    9  C   UNL     1      42.250 -15.180   3.328  1.00  0.00     0.061 A 
HETATM   10  C   UNL     1      41.295 -15.962   2.715  1.00  0.00     0.037 A 
HETATM   11  N   UNL     1      41.883 -17.173   2.435  1.00  0.00    -0.354 N 
HETATM   12  H   UNL     1      41.429 -17.962   1.973  1.00  0.00     0.166 HD
HETATM   13  C   UNL     1      43.162 -17.170   2.821  1.00  0.00     0.181 A 
HETATM   14  N   UNL     1      43.397 -15.965   3.366  1.00  0.00    -0.352 N 
HETATM   15  H   UNL     1      44.310 -15.700   3.726  1.00  0.00     0.166 HD
HETATM   16  C   UNL     1      39.958 -15.478   2.360  1.00  0.00     0.078 C 
HETATM   17  C   UNL     1      40.127 -13.964   2.113  1.00  0.00     0.124 C 
ENDROOT
BRANCH   5  18
HETATM   18  C   UNL     1      44.713 -11.482   5.863  1.00  0.00     0.301 C 
BRANCH  18  19
HETATM   19  C   UNL     1      44.817 -10.794   7.169  1.00  0.00     0.107 C 
HETATM   20  O   UNL     1      45.826 -11.210   7.972  1.00  0.00    -0.216 OA
HETATM   21  N   UNL     1      45.581 -10.797   9.259  1.00  0.00    -0.128 NA
HETATM   22  C   UNL     1      44.440 -10.089   9.232  1.00  0.00     0.097 C 
HETATM   23  C   UNL     1      43.978  -9.974   7.888  1.00  0.00     0.071 C 
BRANCH  22  24
HETATM   24  C   UNL     1      43.741  -9.684  10.452  1.00  0.00    -0.005 A 
HETATM   25  C   UNL     1      43.575  -8.321  10.747  1.00  0.00     0.014 A 
HETATM   26  C   UNL     1      43.026  -7.916  11.966  1.00  0.00     0.001 A 
HETATM   27  C   UNL     1      42.631  -8.867  12.901  1.00  0.00     0.000 A 
HETATM   28  C   UNL     1      42.769 -10.224  12.614  1.00  0.00     0.001 A 
HETATM   29  C   UNL     1      43.320 -10.632  11.397  1.00  0.00     0.014 A 
ENDBRANCH  22  24
ENDBRANCH  18  19
ENDBRANCH   5  18
BRANCH   1  30
HETATM   30  C   UNL     1      39.686 -12.754   4.215  1.00  0.00     0.113 C 
HETATM   31  C   UNL     1      39.322 -11.266   4.170  1.00  0.00     0.026 C 
ENDBRANCH   1  30
TORSDOF 4
ENDMDL
MODEL 5
REMARK VINA RESULT:      -8.5      2.534      5.075
REMARK  4 active torsions:
REMARK  status: ('A' for Active; 'I' for Inactive)
REMARK    1  A    between atoms: C_2  and  N_3 
REMARK    2  A    between atoms: N_7  and  C_9 
REMARK    3  A    between atoms: C_9  and  C_10 
REMARK    4  A    between atoms: C_13  and  C_14 
ROOT
HETATM    1  N   UNL     1      40.877 -10.812   4.583  1.00  0.00    -0.398 N 
HETATM    2  C   UNL     1      41.391 -12.226   4.364  1.00  0.00     0.075 C 
HETATM    3  C   UNL     1      42.202 -12.502   3.069  1.00  0.00     0.065 C 
HETATM    4  C   UNL     1      41.442 -12.472   1.754  1.00  0.00     0.238 C 
HETATM    5  N   UNL     1      40.107 -13.174   1.813  1.00  0.00    -0.065 N 
HETATM    6  H   UNL     1      39.553 -12.716   1.075  1.00  0.00     0.280 HD
HETATM    7  C   UNL     1      39.310 -12.918   3.068  1.00  0.00     0.238 C 
HETATM    8  C   UNL     1      40.147 -13.146   4.320  1.00  0.00     0.065 C 
HETATM    9  C   UNL     1      42.296 -12.654   5.518  1.00  0.00     0.061 A 
HETATM   10  C   UNL     1      42.792 -11.804   6.482  1.00  0.00     0.037 A 
HETATM   11  N   UNL     1      43.555 -12.563   7.337  1.00  0.00    -0.354 N 
HETATM   12  H   UNL     1      44.049 -12.216   8.160  1.00  0.00     0.166 HD
HETATM   13  C   UNL     1      43.534 -13.846   6.965  1.00  0.00     0.181 A 
HETATM   14  N   UNL     1      42.774 -13.914   5.860  1.00  0.00    -0.352 N 
HETATM   15  H   UNL     1      42.585 -14.792   5.384  1.00  0.00     0.166 HD
HETATM   16  C   UNL     1      42.432 -10.386   6.573  1.00  0.00     0.078 C 
HETATM   17  C   UNL     1      41.010 -10.288   5.980  1.00  0.00     0.124 C 
ENDROOT
BRANCH   5  18
HETATM   18  C   UNL     1      40.116 -14.633   1.334  1.00  0.00     0.301 C 
BRANCH  18  19
HETATM   19  C   UNL     1      41.310 -15.347   1.837  1.00  0.00     0.107 C 
HETATM   20  O   UNL     1      42.409 -15.279   1.047  1.00  0.00    -0.216 OA
HETATM   21  N   UNL     1      43.287 -16.272   1.406  1.00  0.00    -0.128 NA
HETATM   22  C   UNL     1      42.742 -16.918   2.449  1.00  0.00     0.097 C 
HETATM   23  C   UNL     1      41.520 -16.283   2.823  1.00  0.00     0.071 C 
BRANCH  22  24
HETATM   24  C   UNL     1      43.280 -18.182   2.956  1.00  0.00    -0.005 A 
HETATM   25  C   UNL     1      43.206 -19.343   2.169  1.00  0.00     0.014 A 
HETATM   26  C   UNL     1      43.595 -20.581   2.685  1.00  0.00     0.001 A 
HETATM   27  C   UNL     1      44.069 -20.673   3.990  1.00  0.00     0.000 A 
HETATM   28  C   UNL     1      44.170 -19.526   4.776  1.00  0.00     0.001 A 
HETATM   29  C   UNL     1      43.778 -18.286   4.263  1.00  0.00     0.014 A 
ENDBRANCH  22  24
ENDBRANCH  18  19
ENDBRANCH   5  18
BRANCH   1  30
HETATM   30  C   UNL     1      41.177  -9.788   3.573  1.00  0.00     0.113 C 
HETATM   31  C   UNL     1      40.104  -8.717   3.351  1.00  0.00     0.026 C 
ENDBRANCH   1  30
TORSDOF 4
ENDMDL
MODEL 6
REMARK VINA RESULT:      -8.5      2.902      8.413
REMARK  4 active torsions:
REMARK  status: ('A' for Active; 'I' for Inactive)
REMARK    1  A    between atoms: C_2  and  N_3 
REMARK    2  A    between atoms: N_7  and  C_9 
REMARK    3  A    between atoms: C_9  and  C_10 
REMARK    4  A    between atoms: C_13  and  C_14 
ROOT
HETATM    1  N   UNL     1      42.260 -15.414   4.395  1.00  0.00    -0.398 N 
HETATM    2  C   UNL     1      42.223 -16.125   3.052  1.00  0.00     0.075 C 
HETATM    3  C   UNL     1      42.795 -15.369   1.823  1.00  0.00     0.065 C 
HETATM    4  C   UNL     1      42.010 -14.171   1.317  1.00  0.00     0.238 C 
HETATM    5  N   UNL     1      40.519 -14.406   1.264  1.00  0.00    -0.065 N 
HETATM    6  H   UNL     1      40.116 -13.461   1.349  1.00  0.00     0.280 HD
HETATM    7  C   UNL     1      39.950 -15.144   2.451  1.00  0.00     0.238 C 
HETATM    8  C   UNL     1      40.734 -16.416   2.747  1.00  0.00     0.065 C 
HETATM    9  C   UNL     1      42.992 -17.444   3.120  1.00  0.00     0.061 A 
HETATM   10  C   UNL     1      43.820 -17.815   4.157  1.00  0.00     0.037 A 
HETATM   11  N   UNL     1      44.319 -19.058   3.851  1.00  0.00    -0.354 N 
HETATM   12  H   UNL     1      44.958 -19.602   4.432  1.00  0.00     0.166 HD
HETATM   13  C   UNL     1      43.820 -19.487   2.687  1.00  0.00     0.181 A 
HETATM   14  N   UNL     1      43.013 -18.514   2.233  1.00  0.00    -0.352 N 
HETATM   15  H   UNL     1      42.493 -18.601   1.364  1.00  0.00     0.166 HD
HETATM   16  C   UNL     1      43.994 -17.022   5.377  1.00  0.00     0.078 C 
HETATM   17  C   UNL     1      42.663 -16.262   5.562  1.00  0.00     0.124 C 
ENDROOT
BRANCH   5  18
HETATM   18  C   UNL     1      39.977 -14.853  -0.101  1.00  0.00     0.301 C 
BRANCH  18  19
HETATM   19  C   UNL     1      40.018 -13.740  -1.075  1.00  0.00     0.107 C 
HETATM   20  O   UNL     1      40.375 -14.080  -2.338  1.00  0.00    -0.216 OA
HETATM   21  N   UNL     1      40.752 -12.950  -3.022  1.00  0.00    -0.128 NA
HETATM   22  C   UNL     1      40.582 -11.913  -2.187  1.00  0.00     0.097 C 
HETATM   23  C   UNL     1      40.009 -12.369  -0.963  1.00  0.00     0.071 C 
BRANCH  22  24
HETATM   24  C   UNL     1      41.096 -10.575  -2.485  1.00  0.00    -0.005 A 
HETATM   25  C   UNL     1      41.802  -9.859  -1.504  1.00  0.00     0.014 A 
HETATM   26  C   UNL     1      42.187  -8.535  -1.725  1.00  0.00     0.001 A 
HETATM   27  C   UNL     1      41.877  -7.912  -2.931  1.00  0.00     0.000 A 
HETATM   28  C   UNL     1      41.197  -8.616  -3.923  1.00  0.00     0.001 A 
HETATM   29  C   UNL     1      40.808  -9.941  -3.702  1.00  0.00     0.014 A 
ENDBRANCH  22  24
ENDBRANCH  18  19
ENDBRANCH   5  18
BRANCH   1  30
HETATM   30  C   UNL     1      42.837 -14.063   4.461  1.00  0.00     0.113 C 
HETATM   31  C   UNL     1      41.880 -12.935   4.859  1.00  0.00     0.026 C 
ENDBRANCH   1  30
TORSDOF 4
ENDMDL
MODEL 7
REMARK VINA RESULT:      -8.5      2.212      3.157
REMARK  4 active torsions:
REMARK  status: ('A' for Active; 'I' for Inactive)
REMARK    1  A    between atoms: C_2  and  N_3 
REMARK    2  A    between atoms: N_7  and  C_9 
REMARK    3  A    between atoms: C_9  and  C_10 
REMARK    4  A    between atoms: C_13  and  C_14 
ROOT
HETATM    1  N   UNL     1      39.840 -11.545   4.419  1.00  0.00    -0.398 N 
HETATM    2  C   UNL     1      40.748 -12.723   4.103  1.00  0.00     0.075 C 
HETATM    3  C   UNL     1      40.654 -13.970   5.023  1.00  0.00     0.065 C 
HETATM    4  C   UNL     1      41.175 -13.826   6.443  1.00  0.00     0.238 C 
HETATM    5  N   UNL     1      42.488 -13.086   6.530  1.00  0.00    -0.065 N 
HETATM    6  H   UNL     1      42.486 -12.690   7.481  1.00  0.00     0.280 HD
HETATM    7  C   UNL     1      42.595 -11.875   5.638  1.00  0.00     0.238 C 
HETATM    8  C   UNL     1      42.200 -12.199   4.203  1.00  0.00     0.065 C 
HETATM    9  C   UNL     1      40.491 -13.235   2.686  1.00  0.00     0.061 A 
HETATM   10  C   UNL     1      39.420 -12.865   1.902  1.00  0.00     0.037 A 
HETATM   11  N   UNL     1      39.545 -13.533   0.707  1.00  0.00    -0.354 N 
HETATM   12  H   UNL     1      38.906 -13.459  -0.085  1.00  0.00     0.166 HD
HETATM   13  C   UNL     1      40.655 -14.277   0.703  1.00  0.00     0.181 A 
HETATM   14  N   UNL     1      41.238 -14.105   1.901  1.00  0.00    -0.352 N 
HETATM   15  H   UNL     1      42.116 -14.555   2.147  1.00  0.00     0.166 HD
HETATM   16  C   UNL     1      38.436 -11.855   2.300  1.00  0.00     0.078 C 
HETATM   17  C   UNL     1      39.197 -10.891   3.235  1.00  0.00     0.124 C 
ENDROOT
BRANCH   5  18
HETATM   18  C   UNL     1      43.738 -13.978   6.570  1.00  0.00     0.301 C 
BRANCH  18  19
HETATM   19  C   UNL     1      43.391 -15.386   6.278  1.00  0.00     0.107 C 
HETATM   20  O   UNL     1      43.412 -16.227   7.340  1.00  0.00    -0.216 OA
HETATM   21  N   UNL     1      43.467 -17.524   6.891  1.00  0.00    -0.128 NA
HETATM   22  C   UNL     1      43.433 -17.475   5.550  1.00  0.00     0.097 C 
HETATM   23  C   UNL     1      43.276 -16.123   5.122  1.00  0.00     0.071 C 
BRANCH  22  24
HETATM   24  C   UNL     1      43.705 -18.647   4.716  1.00  0.00    -0.005 A 
HETATM   25  C   UNL     1      43.667 -18.537   3.317  1.00  0.00     0.014 A 
HETATM   26  C   UNL     1      43.796 -19.668   2.508  1.00  0.00     0.001 A 
HETATM   27  C   UNL     1      43.971 -20.921   3.087  1.00  0.00     0.000 A 
HETATM   28  C   UNL     1      44.033 -21.044   4.474  1.00  0.00     0.001 A 
HETATM   29  C   UNL     1      43.901 -19.913   5.286  1.00  0.00     0.014 A 
ENDBRANCH  22  24
ENDBRANCH  18  19
ENDBRANCH   5  18
BRANCH   1  30
HETATM   30  C   UNL     1      38.923 -11.650   5.564  1.00  0.00     0.113 C 
HETATM   31  C   UNL     1      39.166 -10.674   6.720  1.00  0.00     0.026 C 
ENDBRANCH   1  30
TORSDOF 4
ENDMDL
MODEL 8
REMARK VINA RESULT:      -8.3      2.772      8.983
REMARK  4 active torsions:
REMARK  status: ('A' for Active; 'I' for Inactive)
REMARK    1  A    between atoms: C_2  and  N_3 
REMARK    2  A    between atoms: N_7  and  C_9 
REMARK    3  A    between atoms: C_9  and  C_10 
REMARK    4  A    between atoms: C_13  and  C_14 
ROOT
HETATM    1  N   UNL     1      43.320 -17.362   3.262  1.00  0.00    -0.398 N 
HETATM    2  C   UNL     1      42.557 -16.248   3.962  1.00  0.00     0.075 C 
HETATM    3  C   UNL     1      41.027 -16.158   3.708  1.00  0.00     0.065 C 
HETATM    4  C   UNL     1      40.577 -15.727   2.323  1.00  0.00     0.238 C 
HETATM    5  N   UNL     1      41.370 -14.569   1.765  1.00  0.00    -0.065 N 
HETATM    6  H   UNL     1      41.284 -14.679   0.744  1.00  0.00     0.280 HD
HETATM    7  C   UNL     1      42.857 -14.642   2.008  1.00  0.00     0.238 C 
HETATM    8  C   UNL     1      43.173 -14.916   3.473  1.00  0.00     0.065 C 
HETATM    9  C   UNL     1      42.719 -16.355   5.477  1.00  0.00     0.061 A 
HETATM   10  C   UNL     1      43.253 -17.442   6.134  1.00  0.00     0.037 A 
HETATM   11  N   UNL     1      43.229 -17.154   7.478  1.00  0.00    -0.354 N 
HETATM   12  H   UNL     1      43.567 -17.765   8.222  1.00  0.00     0.166 HD
HETATM   13  C   UNL     1      42.731 -15.932   7.683  1.00  0.00     0.181 A 
HETATM   14  N   UNL     1      42.416 -15.436   6.476  1.00  0.00    -0.352 N 
HETATM   15  H   UNL     1      42.031 -14.503   6.355  1.00  0.00     0.166 HD
HETATM   16  C   UNL     1      43.822 -18.604   5.445  1.00  0.00     0.078 C 
HETATM   17  C   UNL     1      44.347 -18.062   4.099  1.00  0.00     0.124 C 
ENDROOT
BRANCH   5  18
HETATM   18  C   UNL     1      40.742 -13.184   1.982  1.00  0.00     0.301 C 
BRANCH  18  19
HETATM   19  C   UNL     1      40.583 -12.470   0.696  1.00  0.00     0.107 C 
HETATM   20  O   UNL     1      40.657 -13.241  -0.416  1.00  0.00    -0.216 OA
HETATM   21  N   UNL     1      40.888 -12.441  -1.508  1.00  0.00    -0.128 NA
HETATM   22  C   UNL     1      40.910 -11.173  -1.067  1.00  0.00     0.097 C 
HETATM   23  C   UNL     1      40.610 -11.145   0.328  1.00  0.00     0.071 C 
BRANCH  22  24
HETATM   24  C   UNL     1      41.360 -10.060  -1.904  1.00  0.00    -0.005 A 
HETATM   25  C   UNL     1      42.224  -9.087  -1.374  1.00  0.00     0.014 A 
HETATM   26  C   UNL     1      42.560  -7.951  -2.114  1.00  0.00     0.001 A 
HETATM   27  C   UNL     1      42.042  -7.777  -3.394  1.00  0.00     0.000 A 
HETATM   28  C   UNL     1      41.202  -8.745  -3.942  1.00  0.00     0.001 A 
HETATM   29  C   UNL     1      40.862  -9.881  -3.202  1.00  0.00     0.014 A 
ENDBRANCH  22  24
ENDBRANCH  18  19
ENDBRANCH   5  18
BRANCH   1  30
HETATM   30  C   UNL     1      42.578 -18.290   2.397  1.00  0.00     0.113 C 
HETATM   31  C   UNL     1      43.263 -19.626   2.089  1.00  0.00     0.026 C 
ENDBRANCH   1  30
TORSDOF 4
ENDMDL
MODEL 9
REMARK VINA RESULT:      -8.3      2.982      7.803
REMARK  4 active torsions:
REMARK  status: ('A' for Active; 'I' for Inactive)
REMARK    1  A    between atoms: C_2  and  N_3 
REMARK    2  A    between atoms: N_7  and  C_9 
REMARK    3  A    between atoms: C_9  and  C_10 
REMARK    4  A    between atoms: C_13  and  C_14 
ROOT
HETATM    1  N   UNL     1      43.299 -17.146   3.407  1.00  0.00    -0.398 N 
HETATM    2  C   UNL     1      42.535 -16.035   4.110  1.00  0.00     0.075 C 
HETATM    3  C   UNL     1      41.003 -15.952   3.866  1.00  0.00     0.065 C 
HETATM    4  C   UNL     1      40.542 -15.525   2.484  1.00  0.00     0.238 C 
HETATM    5  N   UNL     1      41.325 -14.364   1.919  1.00  0.00    -0.065 N 
HETATM    6  H   UNL     1      41.232 -14.476   0.899  1.00  0.00     0.280 HD
HETATM    7  C   UNL     1      42.814 -14.429   2.152  1.00  0.00     0.238 C 
HETATM    8  C   UNL     1      43.141 -14.700   3.615  1.00  0.00     0.065 C 
HETATM    9  C   UNL     1      42.708 -16.138   5.624  1.00  0.00     0.061 A 
HETATM   10  C   UNL     1      43.251 -17.223   6.279  1.00  0.00     0.037 A 
HETATM   11  N   UNL     1      43.236 -16.933   7.622  1.00  0.00    -0.354 N 
HETATM   12  H   UNL     1      43.582 -17.541   8.365  1.00  0.00     0.166 HD
HETATM   13  C   UNL     1      42.733 -15.712   7.830  1.00  0.00     0.181 A 
HETATM   14  N   UNL     1      42.408 -15.220   6.623  1.00  0.00    -0.352 N 
HETATM   15  H   UNL     1      42.017 -14.289   6.505  1.00  0.00     0.166 HD
HETATM   16  C   UNL     1      43.821 -18.383   5.588  1.00  0.00     0.078 C 
HETATM   17  C   UNL     1      44.335 -17.839   4.237  1.00  0.00     0.124 C 
ENDROOT
BRANCH   5  18
HETATM   18  C   UNL     1      40.692 -12.982   2.138  1.00  0.00     0.301 C 
BRANCH  18  19
HETATM   19  C   UNL     1      41.563 -12.130   2.979  1.00  0.00     0.107 C 
HETATM   20  O   UNL     1      42.605 -11.547   2.340  1.00  0.00    -0.216 OA
HETATM   21  N   UNL     1      43.528 -11.129   3.267  1.00  0.00    -0.128 NA
HETATM   22  C   UNL     1      43.025 -11.417   4.477  1.00  0.00     0.097 C 
HETATM   23  C   UNL     1      41.715 -11.964   4.336  1.00  0.00     0.071 C 
BRANCH  22  24
HETATM   24  C   UNL     1      43.825 -11.328   5.700  1.00  0.00    -0.005 A 
HETATM   25  C   UNL     1      43.206 -11.030   6.925  1.00  0.00     0.014 A 
HETATM   26  C   UNL     1      43.966 -10.814   8.076  1.00  0.00     0.001 A 
HETATM   27  C   UNL     1      45.354 -10.899   8.019  1.00  0.00     0.000 A 
HETATM   28  C   UNL     1      45.983 -11.215   6.815  1.00  0.00     0.001 A 
HETATM   29  C   UNL     1      45.224 -11.429   5.661  1.00  0.00     0.014 A 
ENDBRANCH  22  24
ENDBRANCH  18  19
ENDBRANCH   5  18
BRANCH   1  30
HETATM   30  C   UNL     1      42.555 -18.079   2.548  1.00  0.00     0.113 C 
HETATM   31  C   UNL     1      43.292 -19.358   2.137  1.00  0.00     0.026 C 
ENDBRANCH   1  30
TORSDOF 4
ENDMDL
MODEL 10
REMARK VINA RESULT:      -8.2      6.030      8.379
REMARK  4 active torsions:
REMARK  status: ('A' for Active; 'I' for Inactive)
REMARK    1  A    between atoms: C_2  and  N_3 
REMARK    2  A    between atoms: N_7  and  C_9 
REMARK    3  A    between atoms: C_9  and  C_10 
REMARK    4  A    between atoms: C_13  and  C_14 
ROOT
HETATM    1  N   UNL     1      41.276 -15.176   4.499  1.00  0.00    -0.398 N 
HETATM    2  C   UNL     1      41.696 -13.793   4.027  1.00  0.00     0.075 C 
HETATM    3  C   UNL     1      43.166 -13.362   4.285  1.00  0.00     0.065 C 
HETATM    4  C   UNL     1      43.569 -13.098   5.725  1.00  0.00     0.238 C 
HETATM    5  N   UNL     1      42.544 -12.308   6.503  1.00  0.00    -0.065 N 
HETATM    6  H   UNL     1      42.711 -12.582   7.482  1.00  0.00     0.280 HD
HETATM    7  C   UNL     1      41.112 -12.714   6.259  1.00  0.00     0.238 C 
HETATM    8  C   UNL     1      40.794 -12.780   4.771  1.00  0.00     0.065 C 
HETATM    9  C   UNL     1      41.483 -13.651   2.521  1.00  0.00     0.061 A 
HETATM   10  C   UNL     1      41.203 -14.696   1.667  1.00  0.00     0.037 A 
HETATM   11  N   UNL     1      41.079 -14.165   0.405  1.00  0.00    -0.354 N 
HETATM   12  H   UNL     1      40.864 -14.691  -0.442  1.00  0.00     0.166 HD
HETATM   13  C   UNL     1      41.242 -12.839   0.440  1.00  0.00     0.181 A 
HETATM   14  N   UNL     1      41.489 -12.515   1.720  1.00  0.00    -0.352 N 
HETATM   15  H   UNL     1      41.635 -11.554   2.018  1.00  0.00     0.166 HD
HETATM   16  C   UNL     1      40.982 -16.073   2.118  1.00  0.00     0.078 C 
HETATM   17  C   UNL     1      40.413 -15.946   3.547  1.00  0.00     0.124 C 
ENDROOT
BRANCH   5  18
HETATM   18  C   UNL     1      42.791 -10.794   6.558  1.00  0.00     0.301 C 
BRANCH  18  19
HETATM   19  C   UNL     1      43.265 -10.385   7.899  1.00  0.00     0.107 C 
HETATM   20  O   UNL     1      44.021 -11.296   8.556  1.00  0.00    -0.216 OA
HETATM   21  N   UNL     1      44.059 -10.976   9.891  1.00  0.00    -0.128 NA
HETATM   22  C   UNL     1      43.360  -9.839  10.040  1.00  0.00     0.097 C 
HETATM   23  C   UNL     1      42.926  -9.371   8.765  1.00  0.00     0.071 C 
BRANCH  22  24
HETATM   24  C   UNL     1      42.986  -9.316  11.355  1.00  0.00    -0.005 A 
HETATM   25  C   UNL     1      43.229  -7.969  11.671  1.00  0.00     0.014 A 
HETATM   26  C   UNL     1      42.998  -7.485  12.960  1.00  0.00     0.001 A 
HETATM   27  C   UNL     1      42.517  -8.339  13.948  1.00  0.00     0.000 A 
HETATM   28  C   UNL     1      42.250  -9.673  13.645  1.00  0.00     0.001 A 
HETATM   29  C   UNL     1      42.483 -10.160  12.356  1.00  0.00     0.014 A 
ENDBRANCH  22  24
ENDBRANCH  18  19
ENDBRANCH   5  18
BRANCH   1  30
HETATM   30  C   UNL     1      42.274 -16.028   5.162  1.00  0.00     0.113 C 
HETATM   31  C   UNL     1      42.040 -16.319   6.648  1.00  0.00     0.026 C 
ENDBRANCH   1  30
TORSDOF 4
ENDMDL
