MODEL 1
REMARK VINA RESULT:      -8.7      0.000      0.000
REMARK  4 active torsions:
REMARK  status: ('A' for Active; 'I' for Inactive)
REMARK    1  A    between atoms: C_2  and  C_3 
REMARK       I    between atoms: N_10  and  C_11 
REMARK    2  A    between atoms: C_11  and  C_12 
REMARK    3  A    between atoms: C_16  and  C_17 
REMARK    4  A    between atoms: C_18  and  O_19 
ROOT
HETATM    1  C   UNL     1      42.764 -11.562   5.903  1.00  0.00     0.068 A 
HETATM    2  N   UNL     1      42.196 -10.683   6.744  1.00  0.00    -0.178 NA
HETATM    3  N   UNL     1      41.049 -10.326   6.140  1.00  0.00    -0.281 N 
HETATM    4  H   UNL     1      40.438  -9.671   6.616  1.00  0.00     0.189 HD
HETATM    5  C   UNL     1      40.864 -10.960   4.953  1.00  0.00     0.039 A 
HETATM    6  C   UNL     1      41.972 -11.745   4.743  1.00  0.00     0.011 A 
HETATM    7  C   UNL     1      42.157 -12.605   3.548  1.00  0.00     0.169 C 
HETATM    8  N   UNL     1      40.855 -12.821   2.879  1.00  0.00    -0.342 N 
HETATM    9  C   UNL     1      40.699 -13.810   1.895  1.00  0.00     0.272 C 
HETATM   10  O   UNL     1      39.882 -13.678   0.984  1.00  0.00    -0.266 OA
HETATM   11  C   UNL     1      39.997 -11.618   2.741  1.00  0.00     0.132 C 
HETATM   12  C   UNL     1      39.673 -10.914   4.080  1.00  0.00     0.079 C 
ENDROOT
BRANCH   9  13
HETATM   13  C   UNL     1      41.544 -14.979   1.922  1.00  0.00     0.120 C 
HETATM   14  N   UNL     1      42.674 -15.055   1.155  1.00  0.00    -0.272 N 
HETATM   15  H   UNL     1      43.007 -14.357   0.494  1.00  0.00     0.189 HD
HETATM   16  N   UNL     1      43.420 -16.149   1.383  1.00  0.00    -0.174 NA
HETATM   17  C   UNL     1      42.702 -16.866   2.268  1.00  0.00     0.092 C 
HETATM   18  C   UNL     1      41.471 -16.210   2.539  1.00  0.00     0.071 C 
BRANCH  17  19
HETATM   19  C   UNL     1      43.219 -18.118   2.837  1.00  0.00     0.028 A 
HETATM   20  C   UNL     1      43.787 -18.172   4.124  1.00  0.00     0.078 A 
HETATM   21  C   UNL     1      44.237 -19.374   4.670  1.00  0.00     0.037 A 
HETATM   22  C   UNL     1      44.116 -20.555   3.942  1.00  0.00     0.003 A 
HETATM   23  C   UNL     1      43.553 -20.530   2.668  1.00  0.00     0.001 A 
HETATM   24  C   UNL     1      43.111 -19.322   2.119  1.00  0.00     0.017 A 
BRANCH  20  25
HETATM   25  O   UNL     1      43.919 -17.063   4.920  1.00  0.00    -0.360 OA
HETATM   26  H   UNL     1      44.887 -16.884   4.981  1.00  0.00     0.217 HD
ENDBRANCH  20  25
ENDBRANCH  17  19
ENDBRANCH   9  13
BRANCH   1  27
HETATM   27  C   UNL     1      44.041 -12.274   6.264  1.00  0.00     0.032 C 
HETATM   28  C   UNL     1      43.750 -13.694   6.757  1.00  0.00     0.016 C 
HETATM   29  C   UNL     1      44.881 -11.510   7.288  1.00  0.00     0.016 C 
ENDBRANCH   1  27
TORSDOF 4
ENDMDL
MODEL 2
REMARK VINA RESULT:      -8.6      2.719      4.817
REMARK  4 active torsions:
REMARK  status: ('A' for Active; 'I' for Inactive)
REMARK    1  A    between atoms: C_2  and  C_3 
REMARK       I    between atoms: N_10  and  C_11 
REMARK    2  A    between atoms: C_11  and  C_12 
REMARK    3  A    between atoms: C_16  and  C_17 
REMARK    4  A    between atoms: C_18  and  O_19 
ROOT
HETATM    1  C   UNL     1      39.540 -12.684  -0.867  1.00  0.00     0.068 A 
HETATM    2  N   UNL     1      39.122 -11.513  -1.373  1.00  0.00    -0.178 NA
HETATM    3  N   UNL     1      38.765 -10.786  -0.299  1.00  0.00    -0.281 N 
HETATM    4  H   UNL     1      38.430  -9.840  -0.448  1.00  0.00     0.189 HD
HETATM    5  C   UNL     1      38.958 -11.450   0.869  1.00  0.00     0.039 A 
HETATM    6  C   UNL     1      39.426 -12.701   0.545  1.00  0.00     0.011 A 
HETATM    7  C   UNL     1      39.764 -13.739   1.550  1.00  0.00     0.169 C 
HETATM    8  N   UNL     1      39.938 -13.113   2.880  1.00  0.00    -0.342 N 
HETATM    9  C   UNL     1      40.525 -13.816   3.943  1.00  0.00     0.272 C 
HETATM   10  O   UNL     1      40.214 -13.582   5.110  1.00  0.00    -0.266 OA
HETATM   11  C   UNL     1      38.921 -12.097   3.248  1.00  0.00     0.132 C 
HETATM   12  C   UNL     1      38.800 -10.928   2.243  1.00  0.00     0.079 C 
ENDROOT
BRANCH   9  13
HETATM   13  C   UNL     1      41.472 -14.868   3.662  1.00  0.00     0.120 C 
HETATM   14  N   UNL     1      42.798 -14.594   3.467  1.00  0.00    -0.272 N 
HETATM   15  H   UNL     1      43.234 -13.676   3.462  1.00  0.00     0.189 HD
HETATM   16  N   UNL     1      43.571 -15.686   3.340  1.00  0.00    -0.174 NA
HETATM   17  C   UNL     1      42.704 -16.715   3.360  1.00  0.00     0.092 C 
HETATM   18  C   UNL     1      41.372 -16.226   3.448  1.00  0.00     0.071 C 
BRANCH  17  19
HETATM   19  C   UNL     1      43.168 -18.109   3.322  1.00  0.00     0.028 A 
HETATM   20  C   UNL     1      43.813 -18.708   4.419  1.00  0.00     0.078 A 
HETATM   21  C   UNL     1      44.213 -20.044   4.387  1.00  0.00     0.037 A 
HETATM   22  C   UNL     1      43.965 -20.816   3.254  1.00  0.00     0.003 A 
HETATM   23  C   UNL     1      43.324 -20.248   2.156  1.00  0.00     0.001 A 
HETATM   24  C   UNL     1      42.931 -18.906   2.187  1.00  0.00     0.017 A 
BRANCH  20  25
HETATM   25  O   UNL     1      44.073 -18.032   5.584  1.00  0.00    -0.360 OA
HETATM   26  H   UNL     1      44.819 -18.508   6.016  1.00  0.00     0.217 HD
ENDBRANCH  20  25
ENDBRANCH  17  19
ENDBRANCH   9  13
BRANCH   1  27
HETATM   27  C   UNL     1      40.115 -13.757  -1.753  1.00  0.00     0.032 C 
HETATM   28  C   UNL     1      40.786 -13.140  -2.984  1.00  0.00     0.016 C 
HETATM   29  C   UNL     1      39.081 -14.803  -2.172  1.00  0.00     0.016 C 
ENDBRANCH   1  27
TORSDOF 4
ENDMDL
MODEL 3
REMARK VINA RESULT:      -8.5      2.810      6.705
REMARK  4 active torsions:
REMARK  status: ('A' for Active; 'I' for Inactive)
REMARK    1  A    between atoms: C_2  and  C_3 
REMARK       I    between atoms: N_10  and  C_11 
REMARK    2  A    between atoms: C_11  and  C_12 
REMARK    3  A    between atoms: C_16  and  C_17 
REMARK    4  A    between atoms: C_18  and  O_19 
ROOT
HETATM    1  C   UNL     1      43.609 -17.913   4.452  1.00  0.00     0.068 A 
HETATM    2  N   UNL     1      43.719 -18.923   5.330  1.00  0.00    -0.178 NA
HETATM    3  N   UNL     1      43.526 -18.351   6.532  1.00  0.00    -0.281 N 
HETATM    4  H   UNL     1      43.547 -18.943   7.356  1.00  0.00     0.189 HD
HETATM    5  C   UNL     1      43.283 -17.018   6.444  1.00  0.00     0.039 A 
HETATM    6  C   UNL     1      43.364 -16.684   5.113  1.00  0.00     0.011 A 
HETATM    7  C   UNL     1      43.157 -15.310   4.595  1.00  0.00     0.169 C 
HETATM    8  N   UNL     1      42.453 -14.492   5.608  1.00  0.00    -0.342 N 
HETATM    9  C   UNL     1      41.892 -13.249   5.277  1.00  0.00     0.272 C 
HETATM   10  O   UNL     1      41.802 -12.349   6.111  1.00  0.00    -0.266 OA
HETATM   11  C   UNL     1      42.938 -14.641   7.002  1.00  0.00     0.132 C 
HETATM   12  C   UNL     1      42.904 -16.094   7.533  1.00  0.00     0.079 C 
ENDROOT
BRANCH   9  13
HETATM   13  C   UNL     1      41.459 -13.003   3.923  1.00  0.00     0.120 C 
HETATM   14  N   UNL     1      42.082 -12.073   3.137  1.00  0.00    -0.272 N 
HETATM   15  H   UNL     1      42.848 -11.463   3.410  1.00  0.00     0.189 HD
HETATM   16  N   UNL     1      41.647 -12.048   1.865  1.00  0.00    -0.174 NA
HETATM   17  C   UNL     1      40.633 -12.934   1.840  1.00  0.00     0.092 C 
HETATM   18  C   UNL     1      40.421 -13.465   3.142  1.00  0.00     0.071 C 
BRANCH  17  19
HETATM   19  C   UNL     1      39.931 -13.259   0.591  1.00  0.00     0.028 A 
HETATM   20  C   UNL     1      39.173 -12.300  -0.106  1.00  0.00     0.078 A 
HETATM   21  C   UNL     1      38.543 -12.608  -1.313  1.00  0.00     0.037 A 
HETATM   22  C   UNL     1      38.670 -13.885  -1.855  1.00  0.00     0.003 A 
HETATM   23  C   UNL     1      39.418 -14.851  -1.186  1.00  0.00     0.001 A 
HETATM   24  C   UNL     1      40.041 -14.542   0.027  1.00  0.00     0.017 A 
BRANCH  20  25
HETATM   25  O   UNL     1      39.018 -11.012   0.340  1.00  0.00    -0.360 OA
HETATM   26  H   UNL     1      39.403 -10.989   1.247  1.00  0.00     0.217 HD
ENDBRANCH  20  25
ENDBRANCH  17  19
ENDBRANCH   9  13
BRANCH   1  27
HETATM   27  C   UNL     1      43.674 -18.159   2.968  1.00  0.00     0.032 C 
HETATM   28  C   UNL     1      42.428 -17.605   2.271  1.00  0.00     0.016 C 
HETATM   29  C   UNL     1      43.876 -19.633   2.615  1.00  0.00     0.016 C 
ENDBRANCH   1  27
TORSDOF 4
ENDMDL
MODEL 4
REMARK VINA RESULT:      -8.3      3.073      7.703
REMARK  4 active torsions:
REMARK  status: ('A' for Active; 'I' for Inactive)
REMARK    1  A    between atoms: C_2  and  C_3 
REMARK       I    between atoms: N_10  and  C_11 
REMARK    2  A    between atoms: C_11  and  C_12 
REMARK    3  A    between atoms: C_16  and  C_17 
REMARK    4  A    between atoms: C_18  and  O_19 
ROOT
HETATM    1  C   UNL     1      43.330 -16.806   4.718  1.00  0.00     0.068 A 
HETATM    2  N   UNL     1      43.546 -17.834   3.882  1.00  0.00    -0.178 NA
HETATM    3  N   UNL     1      43.471 -17.294   2.652  1.00  0.00    -0.281 N 
HETATM    4  H   UNL     1      43.625 -17.897   1.851  1.00  0.00     0.189 HD
HETATM    5  C   UNL     1      43.228 -15.958   2.682  1.00  0.00     0.039 A 
HETATM    6  C   UNL     1      43.093 -15.606   4.003  1.00  0.00     0.011 A 
HETATM    7  C   UNL     1      42.822 -14.221   4.462  1.00  0.00     0.169 C 
HETATM    8  N   UNL     1      43.144 -13.262   3.382  1.00  0.00    -0.342 N 
HETATM    9  C   UNL     1      43.242 -11.886   3.638  1.00  0.00     0.272 C 
HETATM   10  O   UNL     1      42.970 -11.056   2.770  1.00  0.00    -0.266 OA
HETATM   11  C   UNL     1      42.683 -13.645   2.025  1.00  0.00     0.132 C 
HETATM   12  C   UNL     1      43.206 -15.018   1.541  1.00  0.00     0.079 C 
ENDROOT
BRANCH   9  13
HETATM   13  C   UNL     1      43.618 -11.433   4.955  1.00  0.00     0.120 C 
HETATM   14  N   UNL     1      44.914 -11.504   5.386  1.00  0.00    -0.272 N 
HETATM   15  H   UNL     1      45.703 -11.891   4.876  1.00  0.00     0.189 HD
HETATM   16  N   UNL     1      45.127 -10.930   6.583  1.00  0.00    -0.174 NA
HETATM   17  C   UNL     1      43.903 -10.550   6.995  1.00  0.00     0.092 C 
HETATM   18  C   UNL     1      42.924 -10.951   6.046  1.00  0.00     0.071 C 
BRANCH  17  19
HETATM   19  C   UNL     1      43.714  -9.804   8.247  1.00  0.00     0.028 A 
HETATM   20  C   UNL     1      44.508 -10.045   9.383  1.00  0.00     0.078 A 
HETATM   21  C   UNL     1      44.348  -9.303  10.553  1.00  0.00     0.037 A 
HETATM   22  C   UNL     1      43.393  -8.291  10.607  1.00  0.00     0.003 A 
HETATM   23  C   UNL     1      42.597  -8.028   9.495  1.00  0.00     0.001 A 
HETATM   24  C   UNL     1      42.754  -8.779   8.325  1.00  0.00     0.017 A 
BRANCH  20  25
HETATM   25  O   UNL     1      45.490 -11.003   9.410  1.00  0.00    -0.360 OA
HETATM   26  H   UNL     1      45.273 -11.637   8.687  1.00  0.00     0.217 HD
ENDBRANCH  20  25
ENDBRANCH  17  19
ENDBRANCH   9  13
BRANCH   1  27
HETATM   27  C   UNL     1      43.422 -16.981   6.210  1.00  0.00     0.032 C 
HETATM   28  C   UNL     1      44.721 -16.375   6.748  1.00  0.00     0.016 C 
HETATM   29  C   UNL     1      43.287 -18.439   6.650  1.00  0.00     0.016 C 
ENDBRANCH   1  27
TORSDOF 4
ENDMDL
MODEL 5
REMARK VINA RESULT:      -8.1      2.984      7.044
REMARK  4 active torsions:
REMARK  status: ('A' for Active; 'I' for Inactive)
REMARK    1  A    between atoms: C_2  and  C_3 
REMARK       I    between atoms: N_10  and  C_11 
REMARK    2  A    between atoms: C_11  and  C_12 
REMARK    3  A    between atoms: C_16  and  C_17 
REMARK    4  A    between atoms: C_18  and  O_19 
ROOT
HETATM    1  C   UNL     1      43.604 -17.955   4.516  1.00  0.00     0.068 A 
HETATM    2  N   UNL     1      43.700 -18.919   5.446  1.00  0.00    -0.178 NA
HETATM    3  N   UNL     1      43.454 -18.293   6.612  1.00  0.00    -0.281 N 
HETATM    4  H   UNL     1      43.456 -18.843   7.464  1.00  0.00     0.189 HD
HETATM    5  C   UNL     1      43.192 -16.970   6.449  1.00  0.00     0.039 A 
HETATM    6  C   UNL     1      43.315 -16.700   5.107  1.00  0.00     0.011 A 
HETATM    7  C   UNL     1      43.103 -15.357   4.515  1.00  0.00     0.169 C 
HETATM    8  N   UNL     1      42.350 -14.504   5.461  1.00  0.00    -0.342 N 
HETATM    9  C   UNL     1      41.780 -13.290   5.049  1.00  0.00     0.272 C 
HETATM   10  O   UNL     1      41.644 -12.352   5.835  1.00  0.00    -0.266 OA
HETATM   11  C   UNL     1      42.787 -14.576   6.877  1.00  0.00     0.132 C 
HETATM   12  C   UNL     1      42.759 -16.002   7.478  1.00  0.00     0.079 C 
ENDROOT
BRANCH   9  13
HETATM   13  C   UNL     1      41.392 -13.118   3.671  1.00  0.00     0.120 C 
HETATM   14  N   UNL     1      40.231 -13.656   3.188  1.00  0.00    -0.272 N 
HETATM   15  H   UNL     1      39.569 -14.231   3.702  1.00  0.00     0.189 HD
HETATM   16  N   UNL     1      39.947 -13.305   1.922  1.00  0.00    -0.174 NA
HETATM   17  C   UNL     1      41.013 -12.583   1.527  1.00  0.00     0.092 C 
HETATM   18  C   UNL     1      41.983 -12.543   2.565  1.00  0.00     0.071 C 
BRANCH  17  19
HETATM   19  C   UNL     1      41.057 -11.943   0.205  1.00  0.00     0.028 A 
HETATM   20  C   UNL     1      40.859 -12.673  -0.981  1.00  0.00     0.078 A 
HETATM   21  C   UNL     1      40.863 -12.049  -2.229  1.00  0.00     0.037 A 
HETATM   22  C   UNL     1      41.053 -10.671  -2.314  1.00  0.00     0.003 A 
HETATM   23  C   UNL     1      41.247  -9.925  -1.154  1.00  0.00     0.001 A 
HETATM   24  C   UNL     1      41.251 -10.555   0.095  1.00  0.00     0.017 A 
BRANCH  20  25
HETATM   25  O   UNL     1      40.637 -14.027  -0.988  1.00  0.00    -0.360 OA
HETATM   26  H   UNL     1      40.300 -14.253  -0.090  1.00  0.00     0.217 HD
ENDBRANCH  20  25
ENDBRANCH  17  19
ENDBRANCH   9  13
BRANCH   1  27
HETATM   27  C   UNL     1      43.726 -18.272   3.050  1.00  0.00     0.032 C 
HETATM   28  C   UNL     1      42.521 -17.730   2.275  1.00  0.00     0.016 C 
HETATM   29  C   UNL     1      43.914 -19.764   2.774  1.00  0.00     0.016 C 
ENDBRANCH   1  27
TORSDOF 4
ENDMDL
MODEL 6
REMARK VINA RESULT:      -8.0      2.117      2.619
REMARK  4 active torsions:
REMARK  status: ('A' for Active; 'I' for Inactive)
REMARK    1  A    between atoms: C_2  and  C_3 
REMARK       I    between atoms: N_10  and  C_11 
REMARK    2  A    between atoms: C_11  and  C_12 
REMARK    3  A    between atoms: C_16  and  C_17 
REMARK    4  A    between atoms: C_18  and  O_19 
ROOT
HETATM    1  C   UNL     1      43.540 -10.179   7.403  1.00  0.00     0.068 A 
HETATM    2  N   UNL     1      43.327  -9.072   8.131  1.00  0.00    -0.178 NA
HETATM    3  N   UNL     1      42.118  -8.632   7.736  1.00  0.00    -0.281 N 
HETATM    4  H   UNL     1      41.740  -7.801   8.177  1.00  0.00     0.189 HD
HETATM    5  C   UNL     1      41.554  -9.432   6.794  1.00  0.00     0.039 A 
HETATM    6  C   UNL     1      42.460 -10.429   6.522  1.00  0.00     0.011 A 
HETATM    7  C   UNL     1      42.218 -11.515   5.541  1.00  0.00     0.169 C 
HETATM    8  N   UNL     1      40.771 -11.614   5.247  1.00  0.00    -0.342 N 
HETATM    9  C   UNL     1      40.240 -12.724   4.572  1.00  0.00     0.272 C 
HETATM   10  O   UNL     1      39.240 -12.619   3.863  1.00  0.00    -0.266 OA
HETATM   11  C   UNL     1      40.069 -10.324   5.040  1.00  0.00     0.132 C 
HETATM   12  C   UNL     1      40.194  -9.336   6.224  1.00  0.00     0.079 C 
ENDROOT
BRANCH   9  13
HETATM   13  C   UNL     1      40.906 -14.000   4.670  1.00  0.00     0.120 C 
HETATM   14  N   UNL     1      40.715 -14.820   5.747  1.00  0.00    -0.272 N 
HETATM   15  H   UNL     1      40.146 -14.622   6.566  1.00  0.00     0.189 HD
HETATM   16  N   UNL     1      41.303 -16.023   5.634  1.00  0.00    -0.174 NA
HETATM   17  C   UNL     1      41.986 -15.954   4.475  1.00  0.00     0.092 C 
HETATM   18  C   UNL     1      41.846 -14.660   3.905  1.00  0.00     0.071 C 
BRANCH  17  19
HETATM   19  C   UNL     1      42.715 -17.115   3.946  1.00  0.00     0.028 A 
HETATM   20  C   UNL     1      43.649 -17.824   4.724  1.00  0.00     0.078 A 
HETATM   21  C   UNL     1      44.305 -18.950   4.226  1.00  0.00     0.037 A 
HETATM   22  C   UNL     1      44.031 -19.398   2.936  1.00  0.00     0.003 A 
HETATM   23  C   UNL     1      43.108 -18.717   2.147  1.00  0.00     0.001 A 
HETATM   24  C   UNL     1      42.457 -17.583   2.646  1.00  0.00     0.017 A 
BRANCH  20  25
HETATM   25  O   UNL     1      43.959 -17.470   6.013  1.00  0.00    -0.360 OA
HETATM   26  H   UNL     1      43.361 -16.720   6.241  1.00  0.00     0.217 HD
ENDBRANCH  20  25
ENDBRANCH  17  19
ENDBRANCH   9  13
BRANCH   1  27
HETATM   27  C   UNL     1      44.764 -11.029   7.617  1.00  0.00     0.032 C 
HETATM   28  C   UNL     1      45.614 -10.477   8.766  1.00  0.00     0.016 C 
HETATM   29  C   UNL     1      45.610 -11.189   6.353  1.00  0.00     0.016 C 
ENDBRANCH   1  27
TORSDOF 4
ENDMDL
MODEL 7
REMARK VINA RESULT:      -8.0      2.575      7.202
REMARK  4 active torsions:
REMARK  status: ('A' for Active; 'I' for Inactive)
REMARK    1  A    between atoms: C_2  and  C_3 
REMARK       I    between atoms: N_10  and  C_11 
REMARK    2  A    between atoms: C_11  and  C_12 
REMARK    3  A    between atoms: C_16  and  C_17 
REMARK    4  A    between atoms: C_18  and  O_19 
ROOT
HETATM    1  C   UNL     1      43.333 -17.214   4.623  1.00  0.00     0.068 A 
HETATM    2  N   UNL     1      43.804 -18.267   3.935  1.00  0.00    -0.178 NA
HETATM    3  N   UNL     1      43.653 -17.924   2.643  1.00  0.00    -0.281 N 
HETATM    4  H   UNL     1      43.966 -18.576   1.932  1.00  0.00     0.189 HD
HETATM    5  C   UNL     1      43.117 -16.685   2.491  1.00  0.00     0.039 A 
HETATM    6  C   UNL     1      42.860 -16.203   3.752  1.00  0.00     0.011 A 
HETATM    7  C   UNL     1      42.270 -14.868   4.018  1.00  0.00     0.169 C 
HETATM    8  N   UNL     1      42.406 -14.010   2.820  1.00  0.00    -0.342 N 
HETATM    9  C   UNL     1      42.185 -12.626   2.888  1.00  0.00     0.272 C 
HETATM   10  O   UNL     1      41.765 -12.001   1.915  1.00  0.00    -0.266 OA
HETATM   11  C   UNL     1      42.091 -14.662   1.525  1.00  0.00     0.132 C 
HETATM   12  C   UNL     1      42.925 -15.932   1.234  1.00  0.00     0.079 C 
ENDROOT
BRANCH   9  13
HETATM   13  C   UNL     1      42.404 -11.932   4.133  1.00  0.00     0.120 C 
HETATM   14  N   UNL     1      41.367 -11.644   4.977  1.00  0.00    -0.272 N 
HETATM   15  H   UNL     1      40.383 -11.842   4.818  1.00  0.00     0.189 HD
HETATM   16  N   UNL     1      41.746 -11.108   6.150  1.00  0.00    -0.174 NA
HETATM   17  C   UNL     1      43.078 -10.952   6.033  1.00  0.00     0.092 C 
HETATM   18  C   UNL     1      43.502 -11.356   4.738  1.00  0.00     0.071 C 
BRANCH  17  19
HETATM   19  C   UNL     1      43.892 -10.455   7.151  1.00  0.00     0.028 A 
HETATM   20  C   UNL     1      43.378  -9.557   8.104  1.00  0.00     0.078 A 
HETATM   21  C   UNL     1      44.146  -9.124   9.184  1.00  0.00     0.037 A 
HETATM   22  C   UNL     1      45.449  -9.593   9.341  1.00  0.00     0.003 A 
HETATM   23  C   UNL     1      45.980 -10.486   8.414  1.00  0.00     0.001 A 
HETATM   24  C   UNL     1      45.210 -10.913   7.327  1.00  0.00     0.017 A 
BRANCH  20  25
HETATM   25  O   UNL     1      42.098  -9.066   8.043  1.00  0.00    -0.360 OA
HETATM   26  H   UNL     1      41.596  -9.685   7.462  1.00  0.00     0.217 HD
ENDBRANCH  20  25
ENDBRANCH  17  19
ENDBRANCH   9  13
BRANCH   1  27
HETATM   27  C   UNL     1      43.410 -17.168   6.126  1.00  0.00     0.032 C 
HETATM   28  C   UNL     1      44.686 -16.455   6.583  1.00  0.00     0.016 C 
HETATM   29  C   UNL     1      43.306 -18.550   6.773  1.00  0.00     0.016 C 
ENDBRANCH   1  27
TORSDOF 4
ENDMDL
MODEL 8
REMARK VINA RESULT:      -8.0      2.893      4.709
REMARK  4 active torsions:
REMARK  status: ('A' for Active; 'I' for Inactive)
REMARK    1  A    between atoms: C_2  and  C_3 
REMARK       I    between atoms: N_10  and  C_11 
REMARK    2  A    between atoms: C_11  and  C_12 
REMARK    3  A    between atoms: C_16  and  C_17 
REMARK    4  A    between atoms: C_18  and  O_19 
ROOT
HETATM    1  C   UNL     1      39.175 -11.872   0.645  1.00  0.00     0.068 A 
HETATM    2  N   UNL     1      39.089 -10.706  -0.014  1.00  0.00    -0.178 NA
HETATM    3  N   UNL     1      38.929  -9.781   0.951  1.00  0.00    -0.281 N 
HETATM    4  H   UNL     1      38.859  -8.807   0.677  1.00  0.00     0.189 HD
HETATM    5  C   UNL     1      38.926 -10.321   2.197  1.00  0.00     0.039 A 
HETATM    6  C   UNL     1      39.047 -11.681   2.043  1.00  0.00     0.011 A 
HETATM    7  C   UNL     1      39.086 -12.637   3.177  1.00  0.00     0.169 C 
HETATM    8  N   UNL     1      39.408 -11.918   4.430  1.00  0.00    -0.342 N 
HETATM    9  C   UNL     1      39.776 -12.612   5.592  1.00  0.00     0.272 C 
HETATM   10  O   UNL     1      39.527 -12.160   6.709  1.00  0.00    -0.266 OA
HETATM   11  C   UNL     1      38.695 -10.633   4.632  1.00  0.00     0.132 C 
HETATM   12  C   UNL     1      38.900  -9.608   3.491  1.00  0.00     0.079 C 
ENDROOT
BRANCH   9  13
HETATM   13  C   UNL     1      40.412 -13.902   5.478  1.00  0.00     0.120 C 
HETATM   14  N   UNL     1      39.923 -14.996   6.138  1.00  0.00    -0.272 N 
HETATM   15  H   UNL     1      39.128 -15.016   6.771  1.00  0.00     0.189 HD
HETATM   16  N   UNL     1      40.547 -16.146   5.834  1.00  0.00    -0.174 NA
HETATM   17  C   UNL     1      41.547 -15.777   5.012  1.00  0.00     0.092 C 
HETATM   18  C   UNL     1      41.555 -14.364   4.860  1.00  0.00     0.071 C 
BRANCH  17  19
HETATM   19  C   UNL     1      42.431 -16.771   4.387  1.00  0.00     0.028 A 
HETATM   20  C   UNL     1      43.319 -17.557   5.145  1.00  0.00     0.078 A 
HETATM   21  C   UNL     1      44.124 -18.527   4.546  1.00  0.00     0.037 A 
HETATM   22  C   UNL     1      44.048 -18.739   3.171  1.00  0.00     0.003 A 
HETATM   23  C   UNL     1      43.174 -17.978   2.399  1.00  0.00     0.001 A 
HETATM   24  C   UNL     1      42.374 -17.001   3.001  1.00  0.00     0.017 A 
BRANCH  20  25
HETATM   25  O   UNL     1      43.438 -17.434   6.506  1.00  0.00    -0.360 OA
HETATM   26  H   UNL     1      43.274 -18.333   6.876  1.00  0.00     0.217 HD
ENDBRANCH  20  25
ENDBRANCH  17  19
ENDBRANCH   9  13
BRANCH   1  27
HETATM   27  C   UNL     1      39.452 -13.160  -0.083  1.00  0.00     0.032 C 
HETATM   28  C   UNL     1      40.828 -13.714   0.298  1.00  0.00     0.016 C 
HETATM   29  C   UNL     1      39.328 -13.027  -1.601  1.00  0.00     0.016 C 
ENDBRANCH   1  27
TORSDOF 4
ENDMDL
MODEL 9
REMARK VINA RESULT:      -8.0      2.190      3.058
REMARK  4 active torsions:
REMARK  status: ('A' for Active; 'I' for Inactive)
REMARK    1  A    between atoms: C_2  and  C_3 
REMARK       I    between atoms: N_10  and  C_11 
REMARK    2  A    between atoms: C_11  and  C_12 
REMARK    3  A    between atoms: C_16  and  C_17 
REMARK    4  A    between atoms: C_18  and  O_19 
ROOT
HETATM    1  C   UNL     1      39.655 -10.614   3.832  1.00  0.00     0.068 A 
HETATM    2  N   UNL     1      38.613  -9.783   3.997  1.00  0.00    -0.178 NA
HETATM    3  N   UNL     1      37.860  -9.959   2.896  1.00  0.00    -0.281 N 
HETATM    4  H   UNL     1      36.995  -9.436   2.816  1.00  0.00     0.189 HD
HETATM    5  C   UNL     1      38.382 -10.883   2.048  1.00  0.00     0.039 A 
HETATM    6  C   UNL     1      39.567 -11.307   2.599  1.00  0.00     0.011 A 
HETATM    7  C   UNL     1      40.448 -12.324   1.975  1.00  0.00     0.169 C 
HETATM    8  N   UNL     1      39.690 -13.091   0.962  1.00  0.00    -0.342 N 
HETATM    9  C   UNL     1      40.197 -14.284   0.423  1.00  0.00     0.272 C 
HETATM   10  O   UNL     1      39.914 -14.636  -0.721  1.00  0.00    -0.266 OA
HETATM   11  C   UNL     1      38.818 -12.288   0.070  1.00  0.00     0.132 C 
HETATM   12  C   UNL     1      37.774 -11.423   0.815  1.00  0.00     0.079 C 
ENDROOT
BRANCH   9  13
HETATM   13  C   UNL     1      41.107 -15.086   1.205  1.00  0.00     0.120 C 
HETATM   14  N   UNL     1      42.427 -15.198   0.864  1.00  0.00    -0.272 N 
HETATM   15  H   UNL     1      42.881 -14.785   0.054  1.00  0.00     0.189 HD
HETATM   16  N   UNL     1      43.169 -15.875   1.756  1.00  0.00    -0.174 NA
HETATM   17  C   UNL     1      42.282 -16.305   2.673  1.00  0.00     0.092 C 
HETATM   18  C   UNL     1      40.967 -15.920   2.294  1.00  0.00     0.071 C 
BRANCH  17  19
HETATM   19  C   UNL     1      42.714 -17.033   3.874  1.00  0.00     0.028 A 
HETATM   20  C   UNL     1      43.614 -18.112   3.806  1.00  0.00     0.078 A 
HETATM   21  C   UNL     1      44.049 -18.770   4.957  1.00  0.00     0.037 A 
HETATM   22  C   UNL     1      43.599 -18.352   6.207  1.00  0.00     0.003 A 
HETATM   23  C   UNL     1      42.711 -17.284   6.302  1.00  0.00     0.001 A 
HETATM   24  C   UNL     1      42.270 -16.631   5.146  1.00  0.00     0.017 A 
BRANCH  20  25
HETATM   25  O   UNL     1      44.129 -18.572   2.620  1.00  0.00    -0.360 OA
HETATM   26  H   UNL     1      44.246 -19.544   2.732  1.00  0.00     0.217 HD
ENDBRANCH  20  25
ENDBRANCH  17  19
ENDBRANCH   9  13
BRANCH   1  27
HETATM   27  C   UNL     1      40.697 -10.781   4.906  1.00  0.00     0.032 C 
HETATM   28  C   UNL     1      42.067 -10.306   4.411  1.00  0.00     0.016 C 
HETATM   29  C   UNL     1      40.785 -12.212   5.437  1.00  0.00     0.016 C 
ENDBRANCH   1  27
TORSDOF 4
ENDMDL
MODEL 10
REMARK VINA RESULT:      -7.9      2.670      4.585
REMARK  4 active torsions:
REMARK  status: ('A' for Active; 'I' for Inactive)
REMARK    1  A    between atoms: C_2  and  C_3 
REMARK       I    between atoms: N_10  and  C_11 
REMARK    2  A    between atoms: C_11  and  C_12 
REMARK    3  A    between atoms: C_16  and  C_17 
REMARK    4  A    between atoms: C_18  and  O_19 
ROOT
HETATM    1  C   UNL     1      43.920 -10.024   8.082  1.00  0.00     0.068 A 
HETATM    2  N   UNL     1      44.298  -9.561   9.284  1.00  0.00    -0.178 NA
HETATM    3  N   UNL     1      43.165  -9.099   9.843  1.00  0.00    -0.281 N 
HETATM    4  H   UNL     1      43.213  -8.714  10.780  1.00  0.00     0.189 HD
HETATM    5  C   UNL     1      42.082  -9.266   9.041  1.00  0.00     0.039 A 
HETATM    6  C   UNL     1      42.532  -9.830   7.872  1.00  0.00     0.011 A 
HETATM    7  C   UNL     1      41.650 -10.175   6.731  1.00  0.00     0.169 C 
HETATM    8  N   UNL     1      40.242 -10.233   7.184  1.00  0.00    -0.342 N 
HETATM    9  C   UNL     1      39.243 -10.802   6.380  1.00  0.00     0.272 C 
HETATM   10  O   UNL     1      38.077 -10.410   6.441  1.00  0.00    -0.266 OA
HETATM   11  C   UNL     1      39.813  -9.135   8.085  1.00  0.00     0.132 C 
HETATM   12  C   UNL     1      40.665  -8.998   9.368  1.00  0.00     0.079 C 
ENDROOT
BRANCH   9  13
HETATM   13  C   UNL     1      39.594 -11.829   5.430  1.00  0.00     0.120 C 
HETATM   14  N   UNL     1      39.258 -11.718   4.109  1.00  0.00    -0.272 N 
HETATM   15  H   UNL     1      38.726 -10.965   3.679  1.00  0.00     0.189 HD
HETATM   16  N   UNL     1      39.762 -12.690   3.330  1.00  0.00    -0.174 NA
HETATM   17  C   UNL     1      40.376 -13.524   4.190  1.00  0.00     0.092 C 
HETATM   18  C   UNL     1      40.191 -13.069   5.524  1.00  0.00     0.071 C 
BRANCH  17  19
HETATM   19  C   UNL     1      41.128 -14.694   3.717  1.00  0.00     0.028 A 
HETATM   20  C   UNL     1      40.561 -15.640   2.844  1.00  0.00     0.078 A 
HETATM   21  C   UNL     1      41.298 -16.725   2.368  1.00  0.00     0.037 A 
HETATM   22  C   UNL     1      42.628 -16.881   2.750  1.00  0.00     0.003 A 
HETATM   23  C   UNL     1      43.216 -15.956   3.610  1.00  0.00     0.001 A 
HETATM   24  C   UNL     1      42.472 -14.873   4.092  1.00  0.00     0.017 A 
BRANCH  20  25
HETATM   25  O   UNL     1      39.267 -15.550   2.396  1.00  0.00    -0.360 OA
HETATM   26  H   UNL     1      39.302 -15.022   1.565  1.00  0.00     0.217 HD
ENDBRANCH  20  25
ENDBRANCH  17  19
ENDBRANCH   9  13
BRANCH   1  27
HETATM   27  C   UNL     1      44.898 -10.714   7.169  1.00  0.00     0.032 C 
HETATM   28  C   UNL     1      44.527 -12.190   6.994  1.00  0.00     0.016 C 
HETATM   29  C   UNL     1      46.348 -10.577   7.633  1.00  0.00     0.016 C 
ENDBRANCH   1  27
TORSDOF 4
ENDMDL
