MODEL 1
REMARK VINA RESULT:      -7.4      0.000      0.000
REMARK  3 active torsions:
REMARK  status: ('A' for Active; 'I' for Inactive)
REMARK       I    between atoms: C_2  and  N_3 
REMARK    1  A    between atoms: N_3  and  C_4 
REMARK    2  A    between atoms: C_7  and  N_8 
REMARK       I    between atoms: N_8  and  C_9 
REMARK    3  A    between atoms: C_9  and  C_10 
ROOT
HETATM    1  C   UNL     1      39.870 -12.892  -0.531  1.00  0.00     0.034 A 
HETATM    2  C   UNL     1      40.847 -12.519   0.398  1.00  0.00     0.032 A 
HETATM    3  C   UNL     1      41.449 -13.470   1.231  1.00  0.00     0.032 A 
HETATM    4  C   UNL     1      41.080 -14.812   1.155  1.00  0.00     0.035 A 
HETATM    5  C   UNL     1      40.090 -15.181   0.238  1.00  0.00     0.032 A 
HETATM    6  C   UNL     1      39.490 -14.231  -0.597  1.00  0.00     0.032 A 
ENDROOT
BRANCH   4   7
HETATM    7  N   UNL     1      41.665 -15.840   1.923  1.00  0.00    -0.323 N 
HETATM    8  C   UNL     1      42.997 -16.216   1.941  1.00  0.00     0.257 C 
HETATM    9  O   UNL     1      43.929 -15.642   1.392  1.00  0.00    -0.267 OA
HETATM   10  H   UNL     1      41.034 -16.322   2.548  1.00  0.00     0.169 HD
BRANCH   8  11
HETATM   11  C   UNL     1      43.302 -17.432   2.735  1.00  0.00     0.050 A 
HETATM   12  C   UNL     1      43.647 -17.289   4.076  1.00  0.00     0.135 A 
HETATM   13  N   UNL     1      43.958 -18.326   4.893  1.00  0.00    -0.248 NA
HETATM   14  C   UNL     1      43.944 -19.553   4.336  1.00  0.00     0.125 A 
HETATM   15 CL   UNL     1      44.355 -20.832   5.400  1.00  0.00    -0.063 Cl
HETATM   16  C   UNL     1      43.635 -19.804   3.009  1.00  0.00     0.045 A 
HETATM   17  C   UNL     1      43.311 -18.721   2.191  1.00  0.00     0.022 A 
ENDBRANCH   8  11
ENDBRANCH   4   7
BRANCH   1  18
HETATM   18  N   UNL     1      39.339 -11.877  -1.353  1.00  0.00    -0.328 N 
HETATM   19  C   UNL     1      39.373 -11.809  -2.735  1.00  0.00     0.218 C 
HETATM   20  C   UNL     1      38.732 -10.545  -3.250  1.00  0.00     0.117 C 
HETATM   21  O   UNL     1      39.846 -12.636  -3.505  1.00  0.00    -0.274 OA
HETATM   22  H   UNL     1      38.901 -11.102  -0.872  1.00  0.00     0.169 HD
ENDBRANCH   1  18
TORSDOF 3
ENDMDL
MODEL 2
REMARK VINA RESULT:      -7.3      5.514      7.374
REMARK  3 active torsions:
REMARK  status: ('A' for Active; 'I' for Inactive)
REMARK       I    between atoms: C_2  and  N_3 
REMARK    1  A    between atoms: N_3  and  C_4 
REMARK    2  A    between atoms: C_7  and  N_8 
REMARK       I    between atoms: N_8  and  C_9 
REMARK    3  A    between atoms: C_9  and  C_10 
ROOT
HETATM    1  C   UNL     1      43.439 -11.102   7.239  1.00  0.00     0.034 A 
HETATM    2  C   UNL     1      42.288 -11.334   6.479  1.00  0.00     0.032 A 
HETATM    3  C   UNL     1      42.167 -12.483   5.687  1.00  0.00     0.032 A 
HETATM    4  C   UNL     1      43.199 -13.418   5.636  1.00  0.00     0.035 A 
HETATM    5  C   UNL     1      44.358 -13.176   6.382  1.00  0.00     0.032 A 
HETATM    6  C   UNL     1      44.477 -12.029   7.176  1.00  0.00     0.032 A 
ENDROOT
BRANCH   4   7
HETATM    7  N   UNL     1      43.143 -14.621   4.902  1.00  0.00    -0.323 N 
HETATM    8  C   UNL     1      42.971 -15.899   5.403  1.00  0.00     0.257 C 
HETATM    9  O   UNL     1      42.706 -16.205   6.559  1.00  0.00    -0.267 OA
HETATM   10  H   UNL     1      43.203 -14.516   3.898  1.00  0.00     0.169 HD
BRANCH   8  11
HETATM   11  C   UNL     1      43.101 -16.994   4.408  1.00  0.00     0.050 A 
HETATM   12  C   UNL     1      43.886 -18.098   4.726  1.00  0.00     0.135 A 
HETATM   13  N   UNL     1      44.088 -19.148   3.892  1.00  0.00    -0.248 NA
HETATM   14  C   UNL     1      43.496 -19.077   2.683  1.00  0.00     0.125 A 
HETATM   15 CL   UNL     1      43.787 -20.418   1.657  1.00  0.00    -0.063 Cl
HETATM   16  C   UNL     1      42.712 -18.015   2.260  1.00  0.00     0.045 A 
HETATM   17  C   UNL     1      42.514 -16.951   3.140  1.00  0.00     0.022 A 
ENDBRANCH   8  11
ENDBRANCH   4   7
BRANCH   1  18
HETATM   18  N   UNL     1      43.465  -9.937   8.033  1.00  0.00    -0.328 N 
HETATM   19  C   UNL     1      43.716  -9.851   9.392  1.00  0.00     0.218 C 
HETATM   20  C   UNL     1      43.616  -8.431   9.891  1.00  0.00     0.117 C 
HETATM   21  O   UNL     1      43.993 -10.769  10.153  1.00  0.00    -0.274 OA
HETATM   22  H   UNL     1      43.256  -9.070   7.555  1.00  0.00     0.169 HD
ENDBRANCH   1  18
TORSDOF 3
ENDMDL
MODEL 3
REMARK VINA RESULT:      -7.1      3.790      8.452
REMARK  3 active torsions:
REMARK  status: ('A' for Active; 'I' for Inactive)
REMARK       I    between atoms: C_2  and  N_3 
REMARK    1  A    between atoms: N_3  and  C_4 
REMARK    2  A    between atoms: C_7  and  N_8 
REMARK       I    between atoms: N_8  and  C_9 
REMARK    3  A    between atoms: C_9  and  C_10 
ROOT
HETATM    1  C   UNL     1      43.163 -17.452   3.474  1.00  0.00     0.034 A 
HETATM    2  C   UNL     1      42.043 -16.728   3.896  1.00  0.00     0.032 A 
HETATM    3  C   UNL     1      41.466 -15.751   3.076  1.00  0.00     0.032 A 
HETATM    4  C   UNL     1      42.002 -15.475   1.819  1.00  0.00     0.035 A 
HETATM    5  C   UNL     1      43.133 -16.187   1.405  1.00  0.00     0.032 A 
HETATM    6  C   UNL     1      43.709 -17.166   2.224  1.00  0.00     0.032 A 
ENDROOT
BRANCH   4   7
HETATM    7  N   UNL     1      41.459 -14.542   0.912  1.00  0.00    -0.323 N 
HETATM    8  C   UNL     1      40.335 -14.701   0.121  1.00  0.00     0.257 C 
HETATM    9  O   UNL     1      39.536 -15.629   0.158  1.00  0.00    -0.267 OA
HETATM   10  H   UNL     1      41.935 -13.651   0.875  1.00  0.00     0.169 HD
BRANCH   8  11
HETATM   11  C   UNL     1      40.082 -13.607  -0.850  1.00  0.00     0.050 A 
HETATM   12  C   UNL     1      39.587 -12.394  -0.381  1.00  0.00     0.135 A 
HETATM   13  N   UNL     1      39.307 -11.332  -1.176  1.00  0.00    -0.248 NA
HETATM   14  C   UNL     1      39.511 -11.501  -2.497  1.00  0.00     0.125 A 
HETATM   15 CL   UNL     1      39.132 -10.139  -3.466  1.00  0.00    -0.063 Cl
HETATM   16  C   UNL     1      39.981 -12.672  -3.070  1.00  0.00     0.045 A 
HETATM   17  C   UNL     1      40.269 -13.748  -2.229  1.00  0.00     0.022 A 
ENDBRANCH   8  11
ENDBRANCH   4   7
BRANCH   1  18
HETATM   18  N   UNL     1      43.661 -18.439   4.348  1.00  0.00    -0.328 N 
HETATM   19  C   UNL     1      43.889 -19.775   4.066  1.00  0.00     0.218 C 
HETATM   20  C   UNL     1      44.390 -20.526   5.275  1.00  0.00     0.117 C 
HETATM   21  O   UNL     1      43.727 -20.344   2.993  1.00  0.00    -0.274 OA
HETATM   22  H   UNL     1      43.855 -18.137   5.294  1.00  0.00     0.169 HD
ENDBRANCH   1  18
TORSDOF 3
ENDMDL
MODEL 4
REMARK VINA RESULT:      -7.1      6.569      8.986
REMARK  3 active torsions:
REMARK  status: ('A' for Active; 'I' for Inactive)
REMARK       I    between atoms: C_2  and  N_3 
REMARK    1  A    between atoms: N_3  and  C_4 
REMARK    2  A    between atoms: C_7  and  N_8 
REMARK       I    between atoms: N_8  and  C_9 
REMARK    3  A    between atoms: C_9  and  C_10 
ROOT
HETATM    1  C   UNL     1      43.492 -16.494   4.802  1.00  0.00     0.034 A 
HETATM    2  C   UNL     1      44.223 -16.457   5.993  1.00  0.00     0.032 A 
HETATM    3  C   UNL     1      44.262 -15.297   6.779  1.00  0.00     0.032 A 
HETATM    4  C   UNL     1      43.573 -14.152   6.384  1.00  0.00     0.035 A 
HETATM    5  C   UNL     1      42.856 -14.185   5.183  1.00  0.00     0.032 A 
HETATM    6  C   UNL     1      42.816 -15.344   4.399  1.00  0.00     0.032 A 
ENDROOT
BRANCH   4   7
HETATM    7  N   UNL     1      43.520 -12.960   7.135  1.00  0.00    -0.323 N 
HETATM    8  C   UNL     1      44.472 -11.957   7.179  1.00  0.00     0.257 C 
HETATM    9  O   UNL     1      45.471 -11.861   6.476  1.00  0.00    -0.267 OA
HETATM   10  H   UNL     1      42.672 -12.823   7.668  1.00  0.00     0.169 HD
BRANCH   8  11
HETATM   11  C   UNL     1      44.220 -10.884   8.174  1.00  0.00     0.050 A 
HETATM   12  C   UNL     1      43.020 -10.181   8.112  1.00  0.00     0.135 A 
HETATM   13  N   UNL     1      42.689  -9.175   8.959  1.00  0.00    -0.248 NA
HETATM   14  C   UNL     1      43.606  -8.847   9.890  1.00  0.00     0.125 A 
HETATM   15 CL   UNL     1      43.151  -7.563  10.930  1.00  0.00    -0.063 Cl
HETATM   16  C   UNL     1      44.837  -9.469  10.025  1.00  0.00     0.045 A 
HETATM   17  C   UNL     1      45.151 -10.506   9.146  1.00  0.00     0.022 A 
ENDBRANCH   8  11
ENDBRANCH   4   7
BRANCH   1  18
HETATM   18  N   UNL     1      43.480 -17.710   4.089  1.00  0.00    -0.328 N 
HETATM   19  C   UNL     1      43.405 -17.881   2.717  1.00  0.00     0.218 C 
HETATM   20  C   UNL     1      43.378 -19.339   2.335  1.00  0.00     0.117 C 
HETATM   21  O   UNL     1      43.363 -17.003   1.863  1.00  0.00    -0.274 OA
HETATM   22  H   UNL     1      43.512 -18.552   4.649  1.00  0.00     0.169 HD
ENDBRANCH   1  18
TORSDOF 3
ENDMDL
MODEL 5
REMARK VINA RESULT:      -7.0     11.286     12.997
REMARK  3 active torsions:
REMARK  status: ('A' for Active; 'I' for Inactive)
REMARK       I    between atoms: C_2  and  N_3 
REMARK    1  A    between atoms: N_3  and  C_4 
REMARK    2  A    between atoms: C_7  and  N_8 
REMARK       I    between atoms: N_8  and  C_9 
REMARK    3  A    between atoms: C_9  and  C_10 
ROOT
HETATM    1  C   UNL     1      42.080  -8.573  13.996  1.00  0.00     0.034 A 
HETATM    2  C   UNL     1      43.104  -7.943  13.281  1.00  0.00     0.032 A 
HETATM    3  C   UNL     1      43.462  -8.380  11.999  1.00  0.00     0.032 A 
HETATM    4  C   UNL     1      42.806  -9.460  11.412  1.00  0.00     0.035 A 
HETATM    5  C   UNL     1      41.795 -10.102  12.134  1.00  0.00     0.032 A 
HETATM    6  C   UNL     1      41.435  -9.663  13.415  1.00  0.00     0.032 A 
ENDROOT
BRANCH   4   7
HETATM    7  N   UNL     1      43.072  -9.936  10.111  1.00  0.00    -0.323 N 
HETATM    8  C   UNL     1      44.259 -10.473   9.643  1.00  0.00     0.257 C 
HETATM    9  O   UNL     1      45.251 -10.750  10.306  1.00  0.00    -0.267 OA
HETATM   10  H   UNL     1      42.288  -9.907   9.473  1.00  0.00     0.169 HD
BRANCH   8  11
HETATM   11  C   UNL     1      44.297 -10.754   8.186  1.00  0.00     0.050 A 
HETATM   12  C   UNL     1      43.121 -10.648   7.451  1.00  0.00     0.135 A 
HETATM   13  N   UNL     1      43.035 -10.893   6.120  1.00  0.00    -0.248 NA
HETATM   14  C   UNL     1      44.170 -11.281   5.506  1.00  0.00     0.125 A 
HETATM   15 CL   UNL     1      44.014 -11.593   3.829  1.00  0.00    -0.063 Cl
HETATM   16  C   UNL     1      45.389 -11.437   6.148  1.00  0.00     0.045 A 
HETATM   17  C   UNL     1      45.452 -11.171   7.516  1.00  0.00     0.022 A 
ENDBRANCH   8  11
ENDBRANCH   4   7
BRANCH   1  18
HETATM   18  N   UNL     1      41.761  -8.050  15.265  1.00  0.00    -0.328 N 
HETATM   19  C   UNL     1      40.712  -7.207  15.589  1.00  0.00     0.218 C 
HETATM   20  C   UNL     1      40.725  -6.831  17.050  1.00  0.00     0.117 C 
HETATM   21  O   UNL     1      39.846  -6.780  14.835  1.00  0.00    -0.274 OA
HETATM   22  H   UNL     1      42.385  -8.308  16.020  1.00  0.00     0.169 HD
ENDBRANCH   1  18
TORSDOF 3
ENDMDL
MODEL 6
REMARK VINA RESULT:      -6.8     14.610     17.888
REMARK  3 active torsions:
REMARK  status: ('A' for Active; 'I' for Inactive)
REMARK       I    between atoms: C_2  and  N_3 
REMARK    1  A    between atoms: N_3  and  C_4 
REMARK    2  A    between atoms: C_7  and  N_8 
REMARK       I    between atoms: N_8  and  C_9 
REMARK    3  A    between atoms: C_9  and  C_10 
ROOT
HETATM    1  C   UNL     1      50.654 -30.554   4.380  1.00  0.00     0.034 A 
HETATM    2  C   UNL     1      51.244 -30.281   3.142  1.00  0.00     0.032 A 
HETATM    3  C   UNL     1      50.459 -30.045   2.006  1.00  0.00     0.032 A 
HETATM    4  C   UNL     1      49.068 -30.082   2.088  1.00  0.00     0.035 A 
HETATM    5  C   UNL     1      48.479 -30.373   3.323  1.00  0.00     0.032 A 
HETATM    6  C   UNL     1      49.264 -30.607   4.458  1.00  0.00     0.032 A 
ENDROOT
BRANCH   4   7
HETATM    7  N   UNL     1      48.203 -29.813   1.007  1.00  0.00    -0.323 N 
HETATM    8  C   UNL     1      47.378 -28.713   0.850  1.00  0.00     0.257 C 
HETATM    9  O   UNL     1      47.346 -27.713   1.556  1.00  0.00    -0.267 OA
HETATM   10  H   UNL     1      48.226 -30.491   0.257  1.00  0.00     0.169 HD
BRANCH   8  11
HETATM   11  C   UNL     1      46.465 -28.766  -0.319  1.00  0.00     0.050 A 
HETATM   12  C   UNL     1      45.317 -29.548  -0.238  1.00  0.00     0.135 A 
HETATM   13  N   UNL     1      44.419 -29.682  -1.246  1.00  0.00    -0.248 NA
HETATM   14  C   UNL     1      44.696 -29.022  -2.388  1.00  0.00     0.125 A 
HETATM   15 CL   UNL     1      43.544 -29.229  -3.639  1.00  0.00    -0.063 Cl
HETATM   16  C   UNL     1      45.820 -28.234  -2.580  1.00  0.00     0.045 A 
HETATM   17  C   UNL     1      46.724 -28.106  -1.525  1.00  0.00     0.022 A 
ENDBRANCH   8  11
ENDBRANCH   4   7
BRANCH   1  18
HETATM   18  N   UNL     1      51.517 -30.748   5.478  1.00  0.00    -0.328 N 
HETATM   19  C   UNL     1      52.156 -31.918   5.850  1.00  0.00     0.218 C 
HETATM   20  C   UNL     1      52.966 -31.738   7.109  1.00  0.00     0.117 C 
HETATM   21  O   UNL     1      52.114 -32.999   5.275  1.00  0.00    -0.274 OA
HETATM   22  H   UNL     1      51.668 -29.941   6.071  1.00  0.00     0.169 HD
ENDBRANCH   1  18
TORSDOF 3
ENDMDL
MODEL 7
REMARK VINA RESULT:      -6.7      5.501      8.476
REMARK  3 active torsions:
REMARK  status: ('A' for Active; 'I' for Inactive)
REMARK       I    between atoms: C_2  and  N_3 
REMARK    1  A    between atoms: N_3  and  C_4 
REMARK    2  A    between atoms: C_7  and  N_8 
REMARK       I    between atoms: N_8  and  C_9 
REMARK    3  A    between atoms: C_9  and  C_10 
ROOT
HETATM    1  C   UNL     1      42.442 -17.037   2.953  1.00  0.00     0.034 A 
HETATM    2  C   UNL     1      41.183 -16.502   2.662  1.00  0.00     0.032 A 
HETATM    3  C   UNL     1      40.757 -15.303   3.248  1.00  0.00     0.032 A 
HETATM    4  C   UNL     1      41.580 -14.620   4.141  1.00  0.00     0.035 A 
HETATM    5  C   UNL     1      42.832 -15.165   4.446  1.00  0.00     0.032 A 
HETATM    6  C   UNL     1      43.259 -16.362   3.858  1.00  0.00     0.032 A 
ENDROOT
BRANCH   4   7
HETATM    7  N   UNL     1      41.250 -13.387   4.740  1.00  0.00    -0.323 N 
HETATM    8  C   UNL     1      40.398 -13.179   5.811  1.00  0.00     0.257 C 
HETATM    9  O   UNL     1      39.880 -14.038   6.514  1.00  0.00    -0.267 OA
HETATM   10  H   UNL     1      41.722 -12.580   4.355  1.00  0.00     0.169 HD
BRANCH   8  11
HETATM   11  C   UNL     1      40.121 -11.758   6.136  1.00  0.00     0.050 A 
HETATM   12  C   UNL     1      38.801 -11.319   6.154  1.00  0.00     0.135 A 
HETATM   13  N   UNL     1      38.431 -10.042   6.424  1.00  0.00    -0.248 NA
HETATM   14  C   UNL     1      39.427  -9.167   6.663  1.00  0.00     0.125 A 
HETATM   15 CL   UNL     1      38.916  -7.563   6.986  1.00  0.00    -0.063 Cl
HETATM   16  C   UNL     1      40.773  -9.495   6.649  1.00  0.00     0.045 A 
HETATM   17  C   UNL     1      41.127 -10.816   6.377  1.00  0.00     0.022 A 
ENDBRANCH   8  11
ENDBRANCH   4   7
BRANCH   1  18
HETATM   18  N   UNL     1      42.805 -18.230   2.296  1.00  0.00    -0.328 N 
HETATM   19  C   UNL     1      43.520 -19.294   2.817  1.00  0.00     0.218 C 
HETATM   20  C   UNL     1      43.745 -20.375   1.790  1.00  0.00     0.117 C 
HETATM   21  O   UNL     1      43.947 -19.410   3.960  1.00  0.00    -0.274 OA
HETATM   22  H   UNL     1      42.525 -18.304   1.326  1.00  0.00     0.169 HD
ENDBRANCH   1  18
TORSDOF 3
ENDMDL
MODEL 8
REMARK VINA RESULT:      -6.7      4.163      8.638
REMARK  3 active torsions:
REMARK  status: ('A' for Active; 'I' for Inactive)
REMARK       I    between atoms: C_2  and  N_3 
REMARK    1  A    between atoms: N_3  and  C_4 
REMARK    2  A    between atoms: C_7  and  N_8 
REMARK       I    between atoms: N_8  and  C_9 
REMARK    3  A    between atoms: C_9  and  C_10 
ROOT
HETATM    1  C   UNL     1      42.298 -16.444   2.958  1.00  0.00     0.034 A 
HETATM    2  C   UNL     1      40.917 -16.404   3.169  1.00  0.00     0.032 A 
HETATM    3  C   UNL     1      40.076 -15.688   2.306  1.00  0.00     0.032 A 
HETATM    4  C   UNL     1      40.605 -14.993   1.220  1.00  0.00     0.035 A 
HETATM    5  C   UNL     1      41.990 -15.018   1.020  1.00  0.00     0.032 A 
HETATM    6  C   UNL     1      42.829 -15.736   1.881  1.00  0.00     0.032 A 
ENDROOT
BRANCH   4   7
HETATM    7  N   UNL     1      39.830 -14.285   0.278  1.00  0.00    -0.323 N 
HETATM    8  C   UNL     1      39.638 -12.916   0.212  1.00  0.00     0.257 C 
HETATM    9  O   UNL     1      40.210 -12.062   0.879  1.00  0.00    -0.267 OA
HETATM   10  H   UNL     1      39.401 -14.853  -0.441  1.00  0.00     0.169 HD
BRANCH   8  11
HETATM   11  C   UNL     1      38.649 -12.462  -0.797  1.00  0.00     0.050 A 
HETATM   12  C   UNL     1      38.135 -11.172  -0.699  1.00  0.00     0.135 A 
HETATM   13  N   UNL     1      37.219 -10.655  -1.555  1.00  0.00    -0.248 NA
HETATM   14  C   UNL     1      36.785 -11.472  -2.534  1.00  0.00     0.125 A 
HETATM   15 CL   UNL     1      35.619 -10.784  -3.585  1.00  0.00    -0.063 Cl
HETATM   16  C   UNL     1      37.216 -12.778  -2.709  1.00  0.00     0.045 A 
HETATM   17  C   UNL     1      38.165 -13.283  -1.820  1.00  0.00     0.022 A 
ENDBRANCH   8  11
ENDBRANCH   4   7
BRANCH   1  18
HETATM   18  N   UNL     1      43.067 -17.214   3.854  1.00  0.00    -0.328 N 
HETATM   19  C   UNL     1      43.618 -18.464   3.632  1.00  0.00     0.218 C 
HETATM   20  C   UNL     1      44.341 -18.983   4.849  1.00  0.00     0.117 C 
HETATM   21  O   UNL     1      43.564 -19.124   2.600  1.00  0.00    -0.274 OA
HETATM   22  H   UNL     1      43.214 -16.811   4.771  1.00  0.00     0.169 HD
ENDBRANCH   1  18
TORSDOF 3
ENDMDL
MODEL 9
REMARK VINA RESULT:      -6.6      3.972      8.627
REMARK  3 active torsions:
REMARK  status: ('A' for Active; 'I' for Inactive)
REMARK       I    between atoms: C_2  and  N_3 
REMARK    1  A    between atoms: N_3  and  C_4 
REMARK    2  A    between atoms: C_7  and  N_8 
REMARK       I    between atoms: N_8  and  C_9 
REMARK    3  A    between atoms: C_9  and  C_10 
ROOT
HETATM    1  C   UNL     1      42.543 -16.989   2.882  1.00  0.00     0.034 A 
HETATM    2  C   UNL     1      41.288 -16.431   3.140  1.00  0.00     0.032 A 
HETATM    3  C   UNL     1      40.783 -15.393   2.346  1.00  0.00     0.032 A 
HETATM    4  C   UNL     1      41.530 -14.890   1.282  1.00  0.00     0.035 A 
HETATM    5  C   UNL     1      42.794 -15.437   1.035  1.00  0.00     0.032 A 
HETATM    6  C   UNL     1      43.296 -16.476   1.828  1.00  0.00     0.032 A 
ENDROOT
BRANCH   4   7
HETATM    7  N   UNL     1      41.081 -13.880   0.406  1.00  0.00    -0.323 N 
HETATM    8  C   UNL     1      40.154 -14.008  -0.614  1.00  0.00     0.257 C 
HETATM    9  O   UNL     1      39.460 -14.988  -0.856  1.00  0.00    -0.267 OA
HETATM   10  H   UNL     1      41.463 -12.960   0.577  1.00  0.00     0.169 HD
BRANCH   8  11
HETATM   11  C   UNL     1      39.985 -12.809  -1.472  1.00  0.00     0.050 A 
HETATM   12  C   UNL     1      40.937 -12.546  -2.452  1.00  0.00     0.135 A 
HETATM   13  N   UNL     1      40.893 -11.475  -3.283  1.00  0.00    -0.248 NA
HETATM   14  C   UNL     1      39.863 -10.623  -3.110  1.00  0.00     0.125 A 
HETATM   15 CL   UNL     1      39.852  -9.279  -4.172  1.00  0.00    -0.063 Cl
HETATM   16  C   UNL     1      38.873 -10.781  -2.152  1.00  0.00     0.045 A 
HETATM   17  C   UNL     1      38.938 -11.895  -1.315  1.00  0.00     0.022 A 
ENDBRANCH   8  11
ENDBRANCH   4   7
BRANCH   1  18
HETATM   18  N   UNL     1      42.961 -18.051   3.710  1.00  0.00    -0.328 N 
HETATM   19  C   UNL     1      43.855 -17.994   4.765  1.00  0.00     0.218 C 
HETATM   20  C   UNL     1      44.078 -19.352   5.384  1.00  0.00     0.117 C 
HETATM   21  O   UNL     1      44.430 -17.002   5.196  1.00  0.00    -0.274 OA
HETATM   22  H   UNL     1      42.575 -18.961   3.492  1.00  0.00     0.169 HD
ENDBRANCH   1  18
TORSDOF 3
ENDMDL
MODEL 10
REMARK VINA RESULT:      -6.5      4.339      5.077
REMARK  3 active torsions:
REMARK  status: ('A' for Active; 'I' for Inactive)
REMARK       I    between atoms: C_2  and  N_3 
REMARK    1  A    between atoms: N_3  and  C_4 
REMARK    2  A    between atoms: C_7  and  N_8 
REMARK       I    between atoms: N_8  and  C_9 
REMARK    3  A    between atoms: C_9  and  C_10 
ROOT
HETATM    1  C   UNL     1      39.244 -11.353   4.950  1.00  0.00     0.034 A 
HETATM    2  C   UNL     1      39.658 -12.149   6.023  1.00  0.00     0.032 A 
HETATM    3  C   UNL     1      40.278 -13.386   5.806  1.00  0.00     0.032 A 
HETATM    4  C   UNL     1      40.490 -13.853   4.509  1.00  0.00     0.035 A 
HETATM    5  C   UNL     1      40.058 -13.065   3.437  1.00  0.00     0.032 A 
HETATM    6  C   UNL     1      39.441 -11.827   3.655  1.00  0.00     0.032 A 
ENDROOT
BRANCH   4   7
HETATM    7  N   UNL     1      41.145 -15.063   4.199  1.00  0.00    -0.323 N 
HETATM    8  C   UNL     1      42.465 -15.388   4.454  1.00  0.00     0.257 C 
HETATM    9  O   UNL     1      43.269 -14.736   5.110  1.00  0.00    -0.267 OA
HETATM   10  H   UNL     1      40.562 -15.771   3.776  1.00  0.00     0.169 HD
BRANCH   8  11
HETATM   11  C   UNL     1      42.923 -16.679   3.882  1.00  0.00     0.050 A 
HETATM   12  C   UNL     1      42.317 -17.151   2.722  1.00  0.00     0.135 A 
HETATM   13  N   UNL     1      42.644 -18.321   2.119  1.00  0.00    -0.248 NA
HETATM   14  C   UNL     1      43.601 -19.057   2.717  1.00  0.00     0.125 A 
HETATM   15 CL   UNL     1      43.974 -20.533   1.930  1.00  0.00    -0.063 Cl
HETATM   16  C   UNL     1      44.253 -18.690   3.884  1.00  0.00     0.045 A 
HETATM   17  C   UNL     1      43.903 -17.478   4.480  1.00  0.00     0.022 A 
ENDBRANCH   8  11
ENDBRANCH   4   7
BRANCH   1  18
HETATM   18  N   UNL     1      38.658 -10.108   5.257  1.00  0.00    -0.328 N 
HETATM   19  C   UNL     1      39.304  -8.902   5.463  1.00  0.00     0.218 C 
HETATM   20  C   UNL     1      38.336  -7.799   5.811  1.00  0.00     0.117 C 
HETATM   21  O   UNL     1      40.508  -8.684   5.387  1.00  0.00    -0.274 OA
HETATM   22  H   UNL     1      37.651 -10.105   5.357  1.00  0.00     0.169 HD
ENDBRANCH   1  18
TORSDOF 3
ENDMDL
