MODEL 1
REMARK VINA RESULT:     -11.0      0.000      0.000
REMARK  9 active torsions:
REMARK  status: ('A' for Active; 'I' for Inactive)
REMARK    1  A    between atoms: N_2  and  C_5 
REMARK    2  A    between atoms: C_10  and  N_11 
REMARK       I    between atoms: N_11  and  C_12 
REMARK    3  A    between atoms: C_12  and  C_14 
REMARK    4  A    between atoms: C_18  and  C_19 
REMARK    5  A    between atoms: C_19  and  N_20 
REMARK       I    between atoms: N_20  and  C_21 
REMARK    6  A    between atoms: C_21  and  C_23 
REMARK    7  A    between atoms: N_26  and  C_34 
REMARK    8  A    between atoms: C_27  and  C_28 
REMARK    9  A    between atoms: C_38  and  N_39 
ROOT
HETATM    1  C   UNL     1      43.018 -11.870   5.315  1.00  0.00     0.161 C 
ENDROOT
BRANCH   1   2
HETATM    2  C   UNL     1      44.031 -11.441   6.344  1.00  0.00    -0.040 A 
HETATM    3  C   UNL     1      45.388 -11.358   6.001  1.00  0.00     0.009 A 
HETATM    4  C   UNL     1      46.330 -10.930   6.935  1.00  0.00     0.002 A 
HETATM    5  C   UNL     1      45.926 -10.592   8.226  1.00  0.00     0.017 A 
HETATM    6  C   UNL     1      44.576 -10.678   8.594  1.00  0.00     0.033 A 
HETATM    7  C   UNL     1      43.628 -11.082   7.642  1.00  0.00     0.026 A 
BRANCH   6   8
HETATM    8  C   UNL     1      44.214 -10.306   9.998  1.00  0.00     0.257 C 
HETATM    9  N   UNL     1      43.233  -9.347  10.126  1.00  0.00    -0.301 N 
HETATM   10  H   UNL     1      42.781  -8.961   9.311  1.00  0.00     0.171 HD
HETATM   11  O   UNL     1      44.783 -10.893  10.911  1.00  0.00    -0.267 OA
BRANCH   9  12
HETATM   12  C   UNL     1      42.708  -8.864  11.299  1.00  0.00     0.174 A 
HETATM   13  N   UNL     1      43.450  -8.190  12.154  1.00  0.00    -0.228 NA
HETATM   14  C   UNL     1      42.686  -7.818  13.236  1.00  0.00     0.050 A 
HETATM   15  C   UNL     1      43.261  -7.031  14.365  1.00  0.00     0.062 C 
HETATM   16  C   UNL     1      41.360  -8.189  13.169  1.00  0.00     0.013 A 
HETATM   17  C   UNL     1      42.307  -7.025  15.579  1.00  0.00     0.039 C 
HETATM   18  C   UNL     1      40.843  -6.782  15.138  1.00  0.00     0.192 C 
HETATM   19  C   UNL     1      40.324  -7.900  14.198  1.00  0.00     0.081 C 
HETATM   20  S   UNL     1      41.071  -9.070  11.748  1.00  0.00    -0.055 SA
BRANCH  18  21
HETATM   21  N   UNL     1      39.947  -6.571  16.362  1.00  0.00    -0.074 N 
HETATM   22  C   UNL     1      40.385  -7.397  17.549  1.00  0.00     0.269 C 
HETATM   23  H   UNL     1      39.026  -6.950  16.102  1.00  0.00     0.279 HD
HETATM   24  C   UNL     1      39.693  -5.141  16.768  1.00  0.00     0.269 C 
ENDBRANCH  18  21
ENDBRANCH   9  12
ENDBRANCH   6   8
ENDBRANCH   1   2
BRANCH   1  25
HETATM   25  N   UNL     1      43.220 -13.243   4.931  1.00  0.00    -0.351 N 
HETATM   26  C   UNL     1      42.780 -14.276   5.731  1.00  0.00     0.274 C 
HETATM   27  O   UNL     1      42.073 -14.093   6.716  1.00  0.00    -0.266 OA
HETATM   28  H   UNL     1      43.894 -13.469   4.207  1.00  0.00     0.163 HD
BRANCH  26  29
HETATM   29  C   UNL     1      43.263 -15.584   5.300  1.00  0.00     0.177 A 
HETATM   30  N   UNL     1      44.222 -16.262   6.007  1.00  0.00    -0.124 NA
HETATM   31  N   UNL     1      44.463 -17.404   5.390  1.00  0.00    -0.058 NA
HETATM   32  N   UNL     1      43.650 -17.504   4.296  1.00  0.00    -0.188 N 
HETATM   33  C   UNL     1      42.894 -16.330   4.189  1.00  0.00     0.109 A 
BRANCH  32  34
HETATM   34  C   UNL     1      43.643 -18.671   3.490  1.00  0.00     0.230 A 
HETATM   35  N   UNL     1      43.285 -18.629   2.207  1.00  0.00    -0.081 NA
HETATM   36  O   UNL     1      43.386 -19.951   1.780  1.00  0.00    -0.103 OA
HETATM   37  N   UNL     1      43.805 -20.784   2.812  1.00  0.00    -0.083 NA
HETATM   38  C   UNL     1      43.964 -19.989   3.869  1.00  0.00     0.201 A 
BRANCH  38  39
HETATM   39  N   UNL     1      44.374 -20.412   5.079  1.00  0.00    -0.379 N 
HETATM   40  H   UNL     1      43.802 -21.069   5.599  1.00  0.00     0.158 HD
HETATM   41  H   UNL     1      45.031 -19.875   5.642  1.00  0.00     0.158 HD
ENDBRANCH  38  39
ENDBRANCH  32  34
BRANCH  33  42
HETATM   42  C   UNL     1      41.964 -16.013   3.110  1.00  0.00    -0.005 A 
HETATM   43  C   UNL     1      40.598 -16.289   3.246  1.00  0.00     0.014 A 
HETATM   44  C   UNL     1      39.711 -15.977   2.214  1.00  0.00     0.001 A 
HETATM   45  C   UNL     1      40.181 -15.386   1.042  1.00  0.00     0.000 A 
HETATM   46  C   UNL     1      41.538 -15.100   0.902  1.00  0.00     0.001 A 
HETATM   47  C   UNL     1      42.426 -15.407   1.934  1.00  0.00     0.014 A 
ENDBRANCH  33  42
ENDBRANCH  26  29
ENDBRANCH   1  25
TORSDOF 9
ENDMDL
MODEL 2
REMARK VINA RESULT:     -10.2      2.910     12.632
REMARK  9 active torsions:
REMARK  status: ('A' for Active; 'I' for Inactive)
REMARK    1  A    between atoms: N_2  and  C_5 
REMARK    2  A    between atoms: C_10  and  N_11 
REMARK       I    between atoms: N_11  and  C_12 
REMARK    3  A    between atoms: C_12  and  C_14 
REMARK    4  A    between atoms: C_18  and  C_19 
REMARK    5  A    between atoms: C_19  and  N_20 
REMARK       I    between atoms: N_20  and  C_21 
REMARK    6  A    between atoms: C_21  and  C_23 
REMARK    7  A    between atoms: N_26  and  C_34 
REMARK    8  A    between atoms: C_27  and  C_28 
REMARK    9  A    between atoms: C_38  and  N_39 
ROOT
HETATM    1  C   UNL     1      44.735  -9.290  10.864  1.00  0.00     0.161 C 
ENDROOT
BRANCH   1   2
HETATM    2  C   UNL     1      44.044  -9.652   9.576  1.00  0.00    -0.040 A 
HETATM    3  C   UNL     1      43.013  -8.841   9.079  1.00  0.00     0.009 A 
HETATM    4  C   UNL     1      42.390  -9.147   7.871  1.00  0.00     0.002 A 
HETATM    5  C   UNL     1      42.783 -10.275   7.151  1.00  0.00     0.017 A 
HETATM    6  C   UNL     1      43.803 -11.107   7.634  1.00  0.00     0.033 A 
HETATM    7  C   UNL     1      44.447 -10.779   8.836  1.00  0.00     0.026 A 
BRANCH   6   8
HETATM    8  C   UNL     1      44.169 -12.304   6.815  1.00  0.00     0.257 C 
HETATM    9  N   UNL     1      43.210 -13.290   6.740  1.00  0.00    -0.301 N 
HETATM   10  H   UNL     1      42.315 -13.172   7.190  1.00  0.00     0.171 HD
HETATM   11  O   UNL     1      45.261 -12.306   6.257  1.00  0.00    -0.267 OA
BRANCH   9  12
HETATM   12  C   UNL     1      43.294 -14.463   6.030  1.00  0.00     0.174 A 
HETATM   13  N   UNL     1      43.003 -14.507   4.746  1.00  0.00    -0.228 NA
HETATM   14  C   UNL     1      43.172 -15.789   4.278  1.00  0.00     0.050 A 
HETATM   15  C   UNL     1      42.924 -16.139   2.849  1.00  0.00     0.062 C 
HETATM   16  C   UNL     1      43.623 -16.697   5.212  1.00  0.00     0.013 A 
HETATM   17  C   UNL     1      42.867 -17.669   2.655  1.00  0.00     0.039 C 
HETATM   18  C   UNL     1      44.004 -18.374   3.432  1.00  0.00     0.192 C 
HETATM   19  C   UNL     1      43.898 -18.139   4.961  1.00  0.00     0.081 C 
HETATM   20  S   UNL     1      43.789 -15.945   6.724  1.00  0.00    -0.055 SA
BRANCH  18  21
HETATM   21  N   UNL     1      44.060 -19.860   3.063  1.00  0.00    -0.074 N 
HETATM   22  C   UNL     1      43.883 -20.761   4.263  1.00  0.00     0.269 C 
HETATM   23  H   UNL     1      45.024 -20.031   2.744  1.00  0.00     0.279 HD
HETATM   24  C   UNL     1      43.175 -20.300   1.925  1.00  0.00     0.269 C 
ENDBRANCH  18  21
ENDBRANCH   9  12
ENDBRANCH   6   8
ENDBRANCH   1   2
BRANCH   1  25
HETATM   25  N   UNL     1      43.801  -8.752  11.819  1.00  0.00    -0.351 N 
HETATM   26  C   UNL     1      42.920  -9.573  12.491  1.00  0.00     0.274 C 
HETATM   27  O   UNL     1      42.983 -10.796  12.433  1.00  0.00    -0.266 OA
HETATM   28  H   UNL     1      43.609  -7.756  11.827  1.00  0.00     0.163 HD
BRANCH  26  29
HETATM   29  C   UNL     1      41.909  -8.838  13.243  1.00  0.00     0.177 A 
HETATM   30  N   UNL     1      41.951  -8.756  14.611  1.00  0.00    -0.124 NA
HETATM   31  N   UNL     1      40.920  -8.039  15.017  1.00  0.00    -0.058 NA
HETATM   32  N   UNL     1      40.210  -7.617  13.928  1.00  0.00    -0.188 N 
HETATM   33  C   UNL     1      40.798  -8.148  12.774  1.00  0.00     0.109 A 
BRANCH  32  34
HETATM   34  C   UNL     1      39.089  -6.759  14.069  1.00  0.00     0.230 A 
HETATM   35  N   UNL     1      37.960  -6.972  13.396  1.00  0.00    -0.081 NA
HETATM   36  O   UNL     1      37.127  -5.924  13.781  1.00  0.00    -0.103 OA
HETATM   37  N   UNL     1      37.764  -5.082  14.687  1.00  0.00    -0.083 NA
HETATM   38  C   UNL     1      38.978  -5.601  14.864  1.00  0.00     0.201 A 
BRANCH  38  39
HETATM   39  N   UNL     1      39.911  -5.082  15.683  1.00  0.00    -0.379 N 
HETATM   40  H   UNL     1      39.666  -4.310  16.294  1.00  0.00     0.158 HD
HETATM   41  H   UNL     1      40.907  -5.181  15.495  1.00  0.00     0.158 HD
ENDBRANCH  38  39
ENDBRANCH  32  34
BRANCH  33  42
HETATM   42  C   UNL     1      40.292  -7.996  11.414  1.00  0.00    -0.005 A 
HETATM   43  C   UNL     1      39.574  -9.032  10.804  1.00  0.00     0.014 A 
HETATM   44  C   UNL     1      39.084  -8.878   9.505  1.00  0.00     0.001 A 
HETATM   45  C   UNL     1      39.306  -7.691   8.809  1.00  0.00     0.000 A 
HETATM   46  C   UNL     1      40.012  -6.652   9.412  1.00  0.00     0.001 A 
HETATM   47  C   UNL     1      40.499  -6.801  10.712  1.00  0.00     0.014 A 
ENDBRANCH  33  42
ENDBRANCH  26  29
ENDBRANCH   1  25
TORSDOF 9
ENDMDL
MODEL 3
REMARK VINA RESULT:     -10.1      2.437      3.560
REMARK  9 active torsions:
REMARK  status: ('A' for Active; 'I' for Inactive)
REMARK    1  A    between atoms: N_2  and  C_5 
REMARK    2  A    between atoms: C_10  and  N_11 
REMARK       I    between atoms: N_11  and  C_12 
REMARK    3  A    between atoms: C_12  and  C_14 
REMARK    4  A    between atoms: C_18  and  C_19 
REMARK    5  A    between atoms: C_19  and  N_20 
REMARK       I    between atoms: N_20  and  C_21 
REMARK    6  A    between atoms: C_21  and  C_23 
REMARK    7  A    between atoms: N_26  and  C_34 
REMARK    8  A    between atoms: C_27  and  C_28 
REMARK    9  A    between atoms: C_38  and  N_39 
ROOT
HETATM    1  C   UNL     1      42.384 -11.675   2.971  1.00  0.00     0.161 C 
ENDROOT
BRANCH   1   2
HETATM    2  C   UNL     1      41.568 -11.510   4.226  1.00  0.00    -0.040 A 
HETATM    3  C   UNL     1      40.449 -12.325   4.449  1.00  0.00     0.009 A 
HETATM    4  C   UNL     1      39.706 -12.204   5.622  1.00  0.00     0.002 A 
HETATM    5  C   UNL     1      40.067 -11.257   6.580  1.00  0.00     0.017 A 
HETATM    6  C   UNL     1      41.176 -10.423   6.374  1.00  0.00     0.033 A 
HETATM    7  C   UNL     1      41.936 -10.568   5.204  1.00  0.00     0.026 A 
BRANCH   6   8
HETATM    8  C   UNL     1      41.502  -9.425   7.439  1.00  0.00     0.257 C 
HETATM    9  N   UNL     1      41.070  -9.744   8.707  1.00  0.00    -0.301 N 
HETATM   10  H   UNL     1      40.596 -10.617   8.885  1.00  0.00     0.171 HD
HETATM   11  O   UNL     1      42.143  -8.431   7.116  1.00  0.00    -0.267 OA
BRANCH   9  12
HETATM   12  C   UNL     1      41.272  -9.011   9.851  1.00  0.00     0.174 A 
HETATM   13  N   UNL     1      42.388  -9.117  10.543  1.00  0.00    -0.228 NA
HETATM   14  C   UNL     1      42.339  -8.278  11.631  1.00  0.00     0.050 A 
HETATM   15  C   UNL     1      43.473  -8.179  12.594  1.00  0.00     0.062 C 
HETATM   16  C   UNL     1      41.192  -7.520  11.731  1.00  0.00     0.013 A 
HETATM   17  C   UNL     1      43.048  -7.434  13.878  1.00  0.00     0.039 C 
HETATM   18  C   UNL     1      42.212  -6.175  13.542  1.00  0.00     0.192 C 
HETATM   19  C   UNL     1      40.896  -6.529  12.804  1.00  0.00     0.081 C 
HETATM   20  S   UNL     1      40.127  -7.901  10.467  1.00  0.00    -0.055 SA
BRANCH  18  21
HETATM   21  N   UNL     1      41.979  -5.339  14.804  1.00  0.00    -0.074 N 
HETATM   22  C   UNL     1      41.250  -4.047  14.516  1.00  0.00     0.269 C 
HETATM   23  H   UNL     1      42.914  -5.050  15.123  1.00  0.00     0.279 HD
HETATM   24  C   UNL     1      41.358  -6.056  15.976  1.00  0.00     0.269 C 
ENDBRANCH  18  21
ENDBRANCH   9  12
ENDBRANCH   6   8
ENDBRANCH   1   2
BRANCH   1  25
HETATM   25  N   UNL     1      42.874 -13.023   2.847  1.00  0.00    -0.351 N 
HETATM   26  C   UNL     1      42.267 -13.924   1.998  1.00  0.00     0.274 C 
HETATM   27  O   UNL     1      41.392 -13.596   1.204  1.00  0.00    -0.266 OA
HETATM   28  H   UNL     1      43.503 -13.395   3.550  1.00  0.00     0.163 HD
BRANCH  26  29
HETATM   29  C   UNL     1      42.753 -15.290   2.166  1.00  0.00     0.177 A 
HETATM   30  N   UNL     1      43.351 -15.969   1.136  1.00  0.00    -0.124 NA
HETATM   31  N   UNL     1      43.685 -17.170   1.569  1.00  0.00    -0.058 NA
HETATM   32  N   UNL     1      43.342 -17.284   2.887  1.00  0.00    -0.188 N 
HETATM   33  C   UNL     1      42.704 -16.105   3.289  1.00  0.00     0.109 A 
BRANCH  32  34
HETATM   34  C   UNL     1      43.658 -18.451   3.630  1.00  0.00     0.230 A 
HETATM   35  N   UNL     1      44.010 -18.384   4.913  1.00  0.00    -0.081 NA
HETATM   36  O   UNL     1      44.257 -19.708   5.270  1.00  0.00    -0.103 OA
HETATM   37  N   UNL     1      44.052 -20.566   4.194  1.00  0.00    -0.083 NA
HETATM   38  C   UNL     1      43.680 -19.786   3.182  1.00  0.00     0.201 A 
BRANCH  38  39
HETATM   39  N   UNL     1      43.376 -20.237   1.950  1.00  0.00    -0.379 N 
HETATM   40  H   UNL     1      43.297 -19.578   1.183  1.00  0.00     0.158 HD
HETATM   41  H   UNL     1      42.898 -21.124   1.806  1.00  0.00     0.158 HD
ENDBRANCH  38  39
ENDBRANCH  32  34
BRANCH  33  42
HETATM   42  C   UNL     1      42.116 -15.861   4.602  1.00  0.00    -0.005 A 
HETATM   43  C   UNL     1      42.829 -15.157   5.580  1.00  0.00     0.014 A 
HETATM   44  C   UNL     1      42.259 -14.919   6.832  1.00  0.00     0.001 A 
HETATM   45  C   UNL     1      40.975 -15.381   7.116  1.00  0.00     0.000 A 
HETATM   46  C   UNL     1      40.255 -16.075   6.145  1.00  0.00     0.001 A 
HETATM   47  C   UNL     1      40.820 -16.310   4.891  1.00  0.00     0.014 A 
ENDBRANCH  33  42
ENDBRANCH  26  29
ENDBRANCH   1  25
TORSDOF 9
ENDMDL
MODEL 4
REMARK VINA RESULT:     -10.0      2.973      4.335
REMARK  9 active torsions:
REMARK  status: ('A' for Active; 'I' for Inactive)
REMARK    1  A    between atoms: N_2  and  C_5 
REMARK    2  A    between atoms: C_10  and  N_11 
REMARK       I    between atoms: N_11  and  C_12 
REMARK    3  A    between atoms: C_12  and  C_14 
REMARK    4  A    between atoms: C_18  and  C_19 
REMARK    5  A    between atoms: C_19  and  N_20 
REMARK       I    between atoms: N_20  and  C_21 
REMARK    6  A    between atoms: C_21  and  C_23 
REMARK    7  A    between atoms: N_26  and  C_34 
REMARK    8  A    between atoms: C_27  and  C_28 
REMARK    9  A    between atoms: C_38  and  N_39 
ROOT
HETATM    1  C   UNL     1      42.643 -13.502   6.461  1.00  0.00     0.161 C 
ENDROOT
BRANCH   1   2
HETATM    2  C   UNL     1      43.702 -12.498   6.834  1.00  0.00    -0.040 A 
HETATM    3  C   UNL     1      44.826 -12.326   6.013  1.00  0.00     0.009 A 
HETATM    4  C   UNL     1      45.796 -11.376   6.329  1.00  0.00     0.002 A 
HETATM    5  C   UNL     1      45.659 -10.597   7.477  1.00  0.00     0.017 A 
HETATM    6  C   UNL     1      44.550 -10.760   8.319  1.00  0.00     0.033 A 
HETATM    7  C   UNL     1      43.562 -11.697   7.981  1.00  0.00     0.026 A 
BRANCH   6   8
HETATM    8  C   UNL     1      44.469  -9.896   9.539  1.00  0.00     0.257 C 
HETATM    9  N   UNL     1      43.198  -9.620   9.990  1.00  0.00    -0.301 N 
HETATM   10  H   UNL     1      42.391 -10.015   9.530  1.00  0.00     0.171 HD
HETATM   11  O   UNL     1      45.521  -9.531  10.052  1.00  0.00    -0.267 OA
BRANCH   9  12
HETATM   12  C   UNL     1      42.864  -8.882  11.099  1.00  0.00     0.174 A 
HETATM   13  N   UNL     1      42.617  -9.461  12.256  1.00  0.00    -0.228 NA
HETATM   14  C   UNL     1      42.315  -8.503  13.197  1.00  0.00     0.050 A 
HETATM   15  C   UNL     1      41.999  -8.866  14.608  1.00  0.00     0.062 C 
HETATM   16  C   UNL     1      42.371  -7.203  12.743  1.00  0.00     0.013 A 
HETATM   17  C   UNL     1      41.387  -7.668  15.365  1.00  0.00     0.039 C 
HETATM   18  C   UNL     1      42.159  -6.362  15.062  1.00  0.00     0.192 C 
HETATM   19  C   UNL     1      42.101  -5.986  13.559  1.00  0.00     0.081 C 
HETATM   20  S   UNL     1      42.756  -7.176  11.091  1.00  0.00    -0.055 SA
BRANCH  18  21
HETATM   21  N   UNL     1      41.674  -5.232  15.975  1.00  0.00    -0.074 N 
HETATM   22  C   UNL     1      40.361  -4.641  15.517  1.00  0.00     0.269 C 
HETATM   23  H   UNL     1      42.359  -4.471  15.865  1.00  0.00     0.279 HD
HETATM   24  C   UNL     1      41.642  -5.533  17.452  1.00  0.00     0.269 C 
ENDBRANCH  18  21
ENDBRANCH   9  12
ENDBRANCH   6   8
ENDBRANCH   1   2
BRANCH   1  25
HETATM   25  N   UNL     1      41.998 -13.139   5.226  1.00  0.00    -0.351 N 
HETATM   26  C   UNL     1      40.636 -13.280   5.068  1.00  0.00     0.274 C 
HETATM   27  O   UNL     1      39.890 -13.568   5.998  1.00  0.00    -0.266 OA
HETATM   28  H   UNL     1      42.555 -13.014   4.387  1.00  0.00     0.163 HD
BRANCH  26  29
HETATM   29  C   UNL     1      40.192 -13.077   3.693  1.00  0.00     0.177 A 
HETATM   30  N   UNL     1      39.255 -12.129   3.374  1.00  0.00    -0.124 NA
HETATM   31  N   UNL     1      39.047 -12.171   2.072  1.00  0.00    -0.058 NA
HETATM   32  N   UNL     1      39.862 -13.118   1.517  1.00  0.00    -0.188 N 
HETATM   33  C   UNL     1      40.582 -13.746   2.540  1.00  0.00     0.109 A 
BRANCH  32  34
HETATM   34  C   UNL     1      39.902 -13.321   0.114  1.00  0.00     0.230 A 
HETATM   35  N   UNL     1      39.545 -14.483  -0.432  1.00  0.00    -0.081 NA
HETATM   36  O   UNL     1      39.741 -14.295  -1.798  1.00  0.00    -0.103 OA
HETATM   37  N   UNL     1      40.219 -13.016  -2.067  1.00  0.00    -0.083 NA
HETATM   38  C   UNL     1      40.317 -12.416  -0.883  1.00  0.00     0.201 A 
BRANCH  38  39
HETATM   39  N   UNL     1      40.737 -11.149  -0.709  1.00  0.00    -0.379 N 
HETATM   40  H   UNL     1      40.921 -10.809   0.229  1.00  0.00     0.158 HD
HETATM   41  H   UNL     1      40.563 -10.425  -1.402  1.00  0.00     0.158 HD
ENDBRANCH  38  39
ENDBRANCH  32  34
BRANCH  33  42
HETATM   42  C   UNL     1      41.501 -14.867   2.368  1.00  0.00    -0.005 A 
HETATM   43  C   UNL     1      42.785 -14.660   1.850  1.00  0.00     0.014 A 
HETATM   44  C   UNL     1      43.663 -15.734   1.695  1.00  0.00     0.001 A 
HETATM   45  C   UNL     1      43.267 -17.020   2.058  1.00  0.00     0.000 A 
HETATM   46  C   UNL     1      41.993 -17.233   2.583  1.00  0.00     0.001 A 
HETATM   47  C   UNL     1      41.115 -16.161   2.744  1.00  0.00     0.014 A 
ENDBRANCH  33  42
ENDBRANCH  26  29
ENDBRANCH   1  25
TORSDOF 9
ENDMDL
MODEL 5
REMARK VINA RESULT:      -9.9      3.267     12.900
REMARK  9 active torsions:
REMARK  status: ('A' for Active; 'I' for Inactive)
REMARK    1  A    between atoms: N_2  and  C_5 
REMARK    2  A    between atoms: C_10  and  N_11 
REMARK       I    between atoms: N_11  and  C_12 
REMARK    3  A    between atoms: C_12  and  C_14 
REMARK    4  A    between atoms: C_18  and  C_19 
REMARK    5  A    between atoms: C_19  and  N_20 
REMARK       I    between atoms: N_20  and  C_21 
REMARK    6  A    between atoms: C_21  and  C_23 
REMARK    7  A    between atoms: N_26  and  C_34 
REMARK    8  A    between atoms: C_27  and  C_28 
REMARK    9  A    between atoms: C_38  and  N_39 
ROOT
HETATM    1  C   UNL     1      41.657  -7.417   7.742  1.00  0.00     0.161 C 
ENDROOT
BRANCH   1   2
HETATM    2  C   UNL     1      42.687  -8.393   8.249  1.00  0.00    -0.040 A 
HETATM    3  C   UNL     1      43.394  -8.118   9.429  1.00  0.00     0.009 A 
HETATM    4  C   UNL     1      44.324  -9.029   9.926  1.00  0.00     0.002 A 
HETATM    5  C   UNL     1      44.567 -10.219   9.242  1.00  0.00     0.017 A 
HETATM    6  C   UNL     1      43.879 -10.511   8.055  1.00  0.00     0.033 A 
HETATM    7  C   UNL     1      42.924  -9.604   7.574  1.00  0.00     0.026 A 
BRANCH   6   8
HETATM    8  C   UNL     1      44.194 -11.803   7.369  1.00  0.00     0.257 C 
HETATM    9  N   UNL     1      43.141 -12.682   7.244  1.00  0.00    -0.301 N 
HETATM   10  H   UNL     1      42.220 -12.432   7.572  1.00  0.00     0.171 HD
HETATM   11  O   UNL     1      45.334 -11.968   6.952  1.00  0.00    -0.267 OA
BRANCH   9  12
HETATM   12  C   UNL     1      43.167 -13.910   6.630  1.00  0.00     0.174 A 
HETATM   13  N   UNL     1      43.156 -14.019   5.318  1.00  0.00    -0.228 NA
HETATM   14  C   UNL     1      43.193 -15.347   4.963  1.00  0.00     0.050 A 
HETATM   15  C   UNL     1      43.200 -15.776   3.535  1.00  0.00     0.062 C 
HETATM   16  C   UNL     1      43.266 -16.231   6.019  1.00  0.00     0.013 A 
HETATM   17  C   UNL     1      42.918 -17.288   3.407  1.00  0.00     0.039 C 
HETATM   18  C   UNL     1      43.718 -18.096   4.456  1.00  0.00     0.192 C 
HETATM   19  C   UNL     1      43.329 -17.715   5.908  1.00  0.00     0.081 C 
HETATM   20  S   UNL     1      43.232 -15.387   7.490  1.00  0.00    -0.055 SA
BRANCH  18  21
HETATM   21  N   UNL     1      43.590 -19.598   4.182  1.00  0.00    -0.074 N 
HETATM   22  C   UNL     1      43.820 -19.943   2.729  1.00  0.00     0.269 C 
HETATM   23  H   UNL     1      42.602 -19.829   4.355  1.00  0.00     0.279 HD
HETATM   24  C   UNL     1      44.380 -20.512   5.083  1.00  0.00     0.269 C 
ENDBRANCH  18  21
ENDBRANCH   9  12
ENDBRANCH   6   8
ENDBRANCH   1   2
BRANCH   1  25
HETATM   25  N   UNL     1      40.868  -6.889   8.824  1.00  0.00    -0.351 N 
HETATM   26  C   UNL     1      41.064  -5.605   9.284  1.00  0.00     0.274 C 
HETATM   27  O   UNL     1      41.797  -4.804   8.714  1.00  0.00    -0.266 OA
HETATM   28  H   UNL     1      40.340  -7.521   9.415  1.00  0.00     0.163 HD
BRANCH  26  29
HETATM   29  C   UNL     1      40.338  -5.318  10.517  1.00  0.00     0.177 A 
HETATM   30  N   UNL     1      39.493  -4.243  10.618  1.00  0.00    -0.124 NA
HETATM   31  N   UNL     1      38.980  -4.230  11.834  1.00  0.00    -0.058 NA
HETATM   32  N   UNL     1      39.454  -5.305  12.533  1.00  0.00    -0.188 N 
HETATM   33  C   UNL     1      40.361  -6.002  11.726  1.00  0.00     0.109 A 
BRANCH  32  34
HETATM   34  C   UNL     1      39.005  -5.581  13.850  1.00  0.00     0.230 A 
HETATM   35  N   UNL     1      37.814  -6.135  14.077  1.00  0.00    -0.081 NA
HETATM   36  O   UNL     1      37.735  -6.221  15.464  1.00  0.00    -0.103 OA
HETATM   37  N   UNL     1      38.882  -5.714  16.067  1.00  0.00    -0.083 NA
HETATM   38  C   UNL     1      39.666  -5.320  15.065  1.00  0.00     0.201 A 
BRANCH  38  39
HETATM   39  N   UNL     1      40.887  -4.776  15.228  1.00  0.00    -0.379 N 
HETATM   40  H   UNL     1      41.129  -3.932  14.718  1.00  0.00     0.158 HD
HETATM   41  H   UNL     1      41.680  -5.322  15.556  1.00  0.00     0.158 HD
ENDBRANCH  38  39
ENDBRANCH  32  34
BRANCH  33  42
HETATM   42  C   UNL     1      41.144  -7.164  12.133  1.00  0.00    -0.005 A 
HETATM   43  C   UNL     1      42.361  -6.999  12.805  1.00  0.00     0.014 A 
HETATM   44  C   UNL     1      43.103  -8.115  13.200  1.00  0.00     0.001 A 
HETATM   45  C   UNL     1      42.634  -9.399  12.930  1.00  0.00     0.000 A 
HETATM   46  C   UNL     1      41.419  -9.571  12.269  1.00  0.00     0.001 A 
HETATM   47  C   UNL     1      40.673  -8.459  11.877  1.00  0.00     0.014 A 
ENDBRANCH  33  42
ENDBRANCH  26  29
ENDBRANCH   1  25
TORSDOF 9
ENDMDL
MODEL 6
REMARK VINA RESULT:      -9.9      4.292      7.472
REMARK  9 active torsions:
REMARK  status: ('A' for Active; 'I' for Inactive)
REMARK    1  A    between atoms: N_2  and  C_5 
REMARK    2  A    between atoms: C_10  and  N_11 
REMARK       I    between atoms: N_11  and  C_12 
REMARK    3  A    between atoms: C_12  and  C_14 
REMARK    4  A    between atoms: C_18  and  C_19 
REMARK    5  A    between atoms: C_19  and  N_20 
REMARK       I    between atoms: N_20  and  C_21 
REMARK    6  A    between atoms: C_21  and  C_23 
REMARK    7  A    between atoms: N_26  and  C_34 
REMARK    8  A    between atoms: C_27  and  C_28 
REMARK    9  A    between atoms: C_38  and  N_39 
ROOT
HETATM    1  C   UNL     1      42.737 -16.115   1.599  1.00  0.00     0.161 C 
ENDROOT
BRANCH   1   2
HETATM    2  C   UNL     1      43.141 -16.366   3.029  1.00  0.00    -0.040 A 
HETATM    3  C   UNL     1      43.654 -17.616   3.405  1.00  0.00     0.009 A 
HETATM    4  C   UNL     1      44.062 -17.848   4.716  1.00  0.00     0.002 A 
HETATM    5  C   UNL     1      43.951 -16.837   5.670  1.00  0.00     0.017 A 
HETATM    6  C   UNL     1      43.431 -15.583   5.320  1.00  0.00     0.033 A 
HETATM    7  C   UNL     1      43.047 -15.345   3.991  1.00  0.00     0.026 A 
BRANCH   6   8
HETATM    8  C   UNL     1      43.332 -14.546   6.394  1.00  0.00     0.257 C 
HETATM    9  N   UNL     1      43.612 -13.255   6.003  1.00  0.00    -0.301 N 
HETATM   10  H   UNL     1      43.832 -13.045   5.042  1.00  0.00     0.171 HD
HETATM   11  O   UNL     1      42.988 -14.911   7.512  1.00  0.00    -0.267 OA
BRANCH   9  12
HETATM   12  C   UNL     1      43.560 -12.132   6.791  1.00  0.00     0.174 A 
HETATM   13  N   UNL     1      44.474 -11.899   7.710  1.00  0.00    -0.228 NA
HETATM   14  C   UNL     1      44.195 -10.713   8.349  1.00  0.00     0.050 A 
HETATM   15  C   UNL     1      45.069 -10.186   9.437  1.00  0.00     0.062 C 
HETATM   16  C   UNL     1      43.086 -10.044   7.879  1.00  0.00     0.013 A 
HETATM   17  C   UNL     1      44.376  -9.036  10.198  1.00  0.00     0.039 C 
HETATM   18  C   UNL     1      43.690  -8.053   9.220  1.00  0.00     0.192 C 
HETATM   19  C   UNL     1      42.576  -8.740   8.388  1.00  0.00     0.081 C 
HETATM   20  S   UNL     1      42.341 -10.942   6.647  1.00  0.00    -0.055 SA
BRANCH  18  21
HETATM   21  N   UNL     1      43.191  -6.815   9.971  1.00  0.00    -0.074 N 
HETATM   22  C   UNL     1      42.298  -5.942   9.120  1.00  0.00     0.269 C 
HETATM   23  H   UNL     1      44.027  -6.243  10.151  1.00  0.00     0.279 HD
HETATM   24  C   UNL     1      42.571  -7.058  11.324  1.00  0.00     0.269 C 
ENDBRANCH  18  21
ENDBRANCH   9  12
ENDBRANCH   6   8
ENDBRANCH   1   2
BRANCH   1  25
HETATM   25  N   UNL     1      42.488 -14.715   1.369  1.00  0.00    -0.351 N 
HETATM   26  C   UNL     1      41.204 -14.237   1.228  1.00  0.00     0.274 C 
HETATM   27  O   UNL     1      40.214 -14.930   1.437  1.00  0.00    -0.266 OA
HETATM   28  H   UNL     1      43.247 -14.114   1.066  1.00  0.00     0.163 HD
BRANCH  26  29
HETATM   29  C   UNL     1      41.153 -12.848   0.783  1.00  0.00     0.177 A 
HETATM   30  N   UNL     1      41.807 -11.853   1.464  1.00  0.00    -0.124 NA
HETATM   31  N   UNL     1      41.586 -10.710   0.842  1.00  0.00    -0.058 NA
HETATM   32  N   UNL     1      40.816 -10.941  -0.264  1.00  0.00    -0.188 N 
HETATM   33  C   UNL     1      40.488 -12.301  -0.307  1.00  0.00     0.109 A 
BRANCH  32  34
HETATM   34  C   UNL     1      40.490  -9.894  -1.163  1.00  0.00     0.230 A 
HETATM   35  N   UNL     1      40.709 -10.009  -2.473  1.00  0.00    -0.081 NA
HETATM   36  O   UNL     1      40.287  -8.790  -2.999  1.00  0.00    -0.103 OA
HETATM   37  N   UNL     1      39.817  -7.945  -1.998  1.00  0.00    -0.083 NA
HETATM   38  C   UNL     1      39.943  -8.631  -0.864  1.00  0.00     0.201 A 
BRANCH  38  39
HETATM   39  N   UNL     1      39.587  -8.164   0.347  1.00  0.00    -0.379 N 
HETATM   40  H   UNL     1      40.273  -7.682   0.918  1.00  0.00     0.158 HD
HETATM   41  H   UNL     1      38.795  -8.547   0.859  1.00  0.00     0.158 HD
ENDBRANCH  38  39
ENDBRANCH  32  34
BRANCH  33  42
HETATM   42  C   UNL     1      39.615 -12.935  -1.290  1.00  0.00    -0.005 A 
HETATM   43  C   UNL     1      40.111 -13.926  -2.145  1.00  0.00     0.014 A 
HETATM   44  C   UNL     1      39.269 -14.534  -3.079  1.00  0.00     0.001 A 
HETATM   45  C   UNL     1      37.929 -14.160  -3.162  1.00  0.00     0.000 A 
HETATM   46  C   UNL     1      37.426 -13.180  -2.307  1.00  0.00     0.001 A 
HETATM   47  C   UNL     1      38.263 -12.573  -1.370  1.00  0.00     0.014 A 
ENDBRANCH  33  42
ENDBRANCH  26  29
ENDBRANCH   1  25
TORSDOF 9
ENDMDL
MODEL 7
REMARK VINA RESULT:      -9.8      1.438      1.966
REMARK  9 active torsions:
REMARK  status: ('A' for Active; 'I' for Inactive)
REMARK    1  A    between atoms: N_2  and  C_5 
REMARK    2  A    between atoms: C_10  and  N_11 
REMARK       I    between atoms: N_11  and  C_12 
REMARK    3  A    between atoms: C_12  and  C_14 
REMARK    4  A    between atoms: C_18  and  C_19 
REMARK    5  A    between atoms: C_19  and  N_20 
REMARK       I    between atoms: N_20  and  C_21 
REMARK    6  A    between atoms: C_21  and  C_23 
REMARK    7  A    between atoms: N_26  and  C_34 
REMARK    8  A    between atoms: C_27  and  C_28 
REMARK    9  A    between atoms: C_38  and  N_39 
ROOT
HETATM    1  C   UNL     1      43.197 -10.989   5.977  1.00  0.00     0.161 C 
ENDROOT
BRANCH   1   2
HETATM    2  C   UNL     1      43.743 -10.592   7.323  1.00  0.00    -0.040 A 
HETATM    3  C   UNL     1      45.111 -10.734   7.596  1.00  0.00     0.009 A 
HETATM    4  C   UNL     1      45.634 -10.338   8.825  1.00  0.00     0.002 A 
HETATM    5  C   UNL     1      44.791  -9.808   9.802  1.00  0.00     0.017 A 
HETATM    6  C   UNL     1      43.418  -9.668   9.556  1.00  0.00     0.033 A 
HETATM    7  C   UNL     1      42.901 -10.041   8.306  1.00  0.00     0.026 A 
BRANCH   6   8
HETATM    8  C   UNL     1      42.570  -9.099  10.650  1.00  0.00     0.257 C 
HETATM    9  N   UNL     1      43.238  -8.346  11.591  1.00  0.00    -0.301 N 
HETATM   10  H   UNL     1      44.229  -8.177  11.505  1.00  0.00     0.171 HD
HETATM   11  O   UNL     1      41.365  -9.316  10.613  1.00  0.00    -0.267 OA
BRANCH   9  12
HETATM   12  C   UNL     1      42.683  -7.697  12.666  1.00  0.00     0.174 A 
HETATM   13  N   UNL     1      42.462  -8.323  13.803  1.00  0.00    -0.228 NA
HETATM   14  C   UNL     1      41.909  -7.451  14.711  1.00  0.00     0.050 A 
HETATM   15  C   UNL     1      41.559  -7.881  16.096  1.00  0.00     0.062 C 
HETATM   16  C   UNL     1      41.748  -6.160  14.256  1.00  0.00     0.013 A 
HETATM   17  C   UNL     1      40.670  -6.830  16.795  1.00  0.00     0.039 C 
HETATM   18  C   UNL     1      41.197  -5.397  16.546  1.00  0.00     0.192 C 
HETATM   19  C   UNL     1      41.186  -5.025  15.040  1.00  0.00     0.081 C 
HETATM   20  S   UNL     1      42.248  -6.044  12.639  1.00  0.00    -0.055 SA
BRANCH  18  21
HETATM   21  N   UNL     1      40.434  -4.390  17.412  1.00  0.00    -0.074 N 
HETATM   22  C   UNL     1      40.436  -4.768  18.875  1.00  0.00     0.269 C 
HETATM   23  H   UNL     1      39.449  -4.464  17.121  1.00  0.00     0.279 HD
HETATM   24  C   UNL     1      40.799  -2.939  17.231  1.00  0.00     0.269 C 
ENDBRANCH  18  21
ENDBRANCH   9  12
ENDBRANCH   6   8
ENDBRANCH   1   2
BRANCH   1  25
HETATM   25  N   UNL     1      43.532 -12.354   5.664  1.00  0.00    -0.351 N 
HETATM   26  C   UNL     1      42.621 -13.371   5.859  1.00  0.00     0.274 C 
HETATM   27  O   UNL     1      41.450 -13.160   6.155  1.00  0.00    -0.266 OA
HETATM   28  H   UNL     1      44.503 -12.616   5.536  1.00  0.00     0.163 HD
BRANCH  26  29
HETATM   29  C   UNL     1      43.201 -14.700   5.702  1.00  0.00     0.177 A 
HETATM   30  N   UNL     1      44.127 -15.188   6.587  1.00  0.00    -0.124 NA
HETATM   31  N   UNL     1      44.474 -16.401   6.200  1.00  0.00    -0.058 NA
HETATM   32  N   UNL     1      43.764 -16.736   5.082  1.00  0.00    -0.188 N 
HETATM   33  C   UNL     1      42.965 -15.647   4.713  1.00  0.00     0.109 A 
BRANCH  32  34
HETATM   34  C   UNL     1      43.883 -18.022   4.494  1.00  0.00     0.230 A 
HETATM   35  N   UNL     1      44.119 -18.173   3.192  1.00  0.00    -0.081 NA
HETATM   36  O   UNL     1      44.143 -19.553   3.005  1.00  0.00    -0.103 OA
HETATM   37  N   UNL     1      43.919 -20.227   4.202  1.00  0.00    -0.083 NA
HETATM   38  C   UNL     1      43.759 -19.277   5.121  1.00  0.00     0.201 A 
BRANCH  38  39
HETATM   39  N   UNL     1      43.528 -19.517   6.426  1.00  0.00    -0.379 N 
HETATM   40  H   UNL     1      44.075 -20.223   6.907  1.00  0.00     0.158 HD
HETATM   41  H   UNL     1      42.640 -19.287   6.866  1.00  0.00     0.158 HD
ENDBRANCH  38  39
ENDBRANCH  32  34
BRANCH  33  42
HETATM   42  C   UNL     1      42.118 -15.577   3.527  1.00  0.00    -0.005 A 
HETATM   43  C   UNL     1      42.640 -15.133   2.307  1.00  0.00     0.014 A 
HETATM   44  C   UNL     1      41.827 -15.075   1.173  1.00  0.00     0.001 A 
HETATM   45  C   UNL     1      40.490 -15.461   1.250  1.00  0.00     0.000 A 
HETATM   46  C   UNL     1      39.965 -15.913   2.459  1.00  0.00     0.001 A 
HETATM   47  C   UNL     1      40.776 -15.977   3.593  1.00  0.00     0.014 A 
ENDBRANCH  33  42
ENDBRANCH  26  29
ENDBRANCH   1  25
TORSDOF 9
ENDMDL
MODEL 8
REMARK VINA RESULT:      -9.6      3.160      4.317
REMARK  9 active torsions:
REMARK  status: ('A' for Active; 'I' for Inactive)
REMARK    1  A    between atoms: N_2  and  C_5 
REMARK    2  A    between atoms: C_10  and  N_11 
REMARK       I    between atoms: N_11  and  C_12 
REMARK    3  A    between atoms: C_12  and  C_14 
REMARK    4  A    between atoms: C_18  and  C_19 
REMARK    5  A    between atoms: C_19  and  N_20 
REMARK       I    between atoms: N_20  and  C_21 
REMARK    6  A    between atoms: C_21  and  C_23 
REMARK    7  A    between atoms: N_26  and  C_34 
REMARK    8  A    between atoms: C_27  and  C_28 
REMARK    9  A    between atoms: C_38  and  N_39 
ROOT
HETATM    1  C   UNL     1      41.981 -13.123   5.941  1.00  0.00     0.161 C 
ENDROOT
BRANCH   1   2
HETATM    2  C   UNL     1      43.081 -12.228   6.450  1.00  0.00    -0.040 A 
HETATM    3  C   UNL     1      44.321 -12.198   5.796  1.00  0.00     0.009 A 
HETATM    4  C   UNL     1      45.334 -11.349   6.237  1.00  0.00     0.002 A 
HETATM    5  C   UNL     1      45.123 -10.530   7.345  1.00  0.00     0.017 A 
HETATM    6  C   UNL     1      43.895 -10.551   8.022  1.00  0.00     0.033 A 
HETATM    7  C   UNL     1      42.868 -11.387   7.557  1.00  0.00     0.026 A 
BRANCH   6   8
HETATM    8  C   UNL     1      43.739  -9.652   9.208  1.00  0.00     0.257 C 
HETATM    9  N   UNL     1      42.667  -9.929  10.028  1.00  0.00    -0.301 N 
HETATM   10  H   UNL     1      42.062 -10.713   9.838  1.00  0.00     0.171 HD
HETATM   11  O   UNL     1      44.576  -8.773   9.374  1.00  0.00    -0.267 OA
BRANCH   9  12
HETATM   12  C   UNL     1      42.331  -9.272  11.186  1.00  0.00     0.174 A 
HETATM   13  N   UNL     1      43.230  -8.602  11.878  1.00  0.00    -0.228 NA
HETATM   14  C   UNL     1      42.636  -8.038  12.983  1.00  0.00     0.050 A 
HETATM   15  C   UNL     1      43.412  -7.209  13.950  1.00  0.00     0.062 C 
HETATM   16  C   UNL     1      41.281  -8.264  13.096  1.00  0.00     0.013 A 
HETATM   17  C   UNL     1      42.609  -6.973  15.247  1.00  0.00     0.039 C 
HETATM   18  C   UNL     1      41.137  -6.614  14.936  1.00  0.00     0.192 C 
HETATM   19  C   UNL     1      40.404  -7.757  14.188  1.00  0.00     0.081 C 
HETATM   20  S   UNL     1      40.744  -9.248  11.823  1.00  0.00    -0.055 SA
BRANCH  18  21
HETATM   21  N   UNL     1      40.412  -6.181  16.214  1.00  0.00    -0.074 N 
HETATM   22  C   UNL     1      41.182  -5.136  16.989  1.00  0.00     0.269 C 
HETATM   23  H   UNL     1      40.405  -7.010  16.824  1.00  0.00     0.279 HD
HETATM   24  C   UNL     1      38.967  -5.781  16.062  1.00  0.00     0.269 C 
ENDBRANCH  18  21
ENDBRANCH   9  12
ENDBRANCH   6   8
ENDBRANCH   1   2
BRANCH   1  25
HETATM   25  N   UNL     1      41.609 -12.772   4.595  1.00  0.00    -0.351 N 
HETATM   26  C   UNL     1      40.285 -12.633   4.238  1.00  0.00     0.274 C 
HETATM   27  O   UNL     1      39.375 -12.648   5.060  1.00  0.00    -0.266 OA
HETATM   28  H   UNL     1      42.287 -12.864   3.847  1.00  0.00     0.163 HD
BRANCH  26  29
HETATM   29  C   UNL     1      40.089 -12.495   2.799  1.00  0.00     0.177 A 
HETATM   30  N   UNL     1      39.311 -11.496   2.274  1.00  0.00    -0.124 NA
HETATM   31  N   UNL     1      39.311 -11.616   0.959  1.00  0.00    -0.058 NA
HETATM   32  N   UNL     1      40.109 -12.669   0.605  1.00  0.00    -0.188 N 
HETATM   33  C   UNL     1      40.591 -13.279   1.768  1.00  0.00     0.109 A 
BRANCH  32  34
HETATM   34  C   UNL     1      40.353 -12.978  -0.758  1.00  0.00     0.230 A 
HETATM   35  N   UNL     1      41.124 -12.203  -1.520  1.00  0.00    -0.081 NA
HETATM   36  O   UNL     1      41.099 -12.817  -2.770  1.00  0.00    -0.103 OA
HETATM   37  N   UNL     1      40.308 -13.962  -2.753  1.00  0.00    -0.083 NA
HETATM   38  C   UNL     1      39.849 -14.059  -1.506  1.00  0.00     0.201 A 
BRANCH  38  39
HETATM   39  N   UNL     1      39.046 -15.047  -1.070  1.00  0.00    -0.379 N 
HETATM   40  H   UNL     1      39.416 -15.751  -0.440  1.00  0.00     0.158 HD
HETATM   41  H   UNL     1      38.210 -15.325  -1.581  1.00  0.00     0.158 HD
ENDBRANCH  38  39
ENDBRANCH  32  34
BRANCH  33  42
HETATM   42  C   UNL     1      41.412 -14.484   1.818  1.00  0.00    -0.005 A 
HETATM   43  C   UNL     1      40.828 -15.732   2.069  1.00  0.00     0.014 A 
HETATM   44  C   UNL     1      41.617 -16.883   2.108  1.00  0.00     0.001 A 
HETATM   45  C   UNL     1      42.992 -16.797   1.896  1.00  0.00     0.000 A 
HETATM   46  C   UNL     1      43.580 -15.560   1.637  1.00  0.00     0.001 A 
HETATM   47  C   UNL     1      42.794 -14.408   1.592  1.00  0.00     0.014 A 
ENDBRANCH  33  42
ENDBRANCH  26  29
ENDBRANCH   1  25
TORSDOF 9
ENDMDL
MODEL 9
REMARK VINA RESULT:      -9.5      3.546      4.762
REMARK  9 active torsions:
REMARK  status: ('A' for Active; 'I' for Inactive)
REMARK    1  A    between atoms: N_2  and  C_5 
REMARK    2  A    between atoms: C_10  and  N_11 
REMARK       I    between atoms: N_11  and  C_12 
REMARK    3  A    between atoms: C_12  and  C_14 
REMARK    4  A    between atoms: C_18  and  C_19 
REMARK    5  A    between atoms: C_19  and  N_20 
REMARK       I    between atoms: N_20  and  C_21 
REMARK    6  A    between atoms: C_21  and  C_23 
REMARK    7  A    between atoms: N_26  and  C_34 
REMARK    8  A    between atoms: C_27  and  C_28 
REMARK    9  A    between atoms: C_38  and  N_39 
ROOT
HETATM    1  C   UNL     1      42.194 -12.818   6.234  1.00  0.00     0.161 C 
ENDROOT
BRANCH   1   2
HETATM    2  C   UNL     1      43.395 -11.989   6.609  1.00  0.00    -0.040 A 
HETATM    3  C   UNL     1      44.676 -12.384   6.199  1.00  0.00     0.009 A 
HETATM    4  C   UNL     1      45.791 -11.608   6.511  1.00  0.00     0.002 A 
HETATM    5  C   UNL     1      45.637 -10.434   7.247  1.00  0.00     0.017 A 
HETATM    6  C   UNL     1      44.367 -10.025   7.677  1.00  0.00     0.033 A 
HETATM    7  C   UNL     1      43.245 -10.795   7.337  1.00  0.00     0.026 A 
BRANCH   6   8
HETATM    8  C   UNL     1      44.276  -8.759   8.470  1.00  0.00     0.257 C 
HETATM    9  N   UNL     1      43.139  -8.616   9.235  1.00  0.00    -0.301 N 
HETATM   10  H   UNL     1      42.445  -9.347   9.267  1.00  0.00     0.171 HD
HETATM   11  O   UNL     1      45.214  -7.973   8.404  1.00  0.00    -0.267 OA
BRANCH   9  12
HETATM   12  C   UNL     1      42.839  -7.566  10.067  1.00  0.00     0.174 A 
HETATM   13  N   UNL     1      42.817  -7.716  11.376  1.00  0.00    -0.228 NA
HETATM   14  C   UNL     1      42.495  -6.519  11.973  1.00  0.00     0.050 A 
HETATM   15  C   UNL     1      42.405  -6.384  13.456  1.00  0.00     0.062 C 
HETATM   16  C   UNL     1      42.310  -5.465  11.104  1.00  0.00     0.013 A 
HETATM   17  C   UNL     1      41.723  -5.058  13.852  1.00  0.00     0.039 C 
HETATM   18  C   UNL     1      42.259  -3.879  13.004  1.00  0.00     0.192 C 
HETATM   19  C   UNL     1      41.969  -4.069  11.493  1.00  0.00     0.081 C 
HETATM   20  S   UNL     1      42.487  -5.992   9.501  1.00  0.00    -0.055 SA
BRANCH  18  21
HETATM   21  N   UNL     1      41.730  -2.548  13.548  1.00  0.00    -0.074 N 
HETATM   22  C   UNL     1      41.535  -2.572  15.046  1.00  0.00     0.269 C 
HETATM   23  H   UNL     1      40.783  -2.446  13.159  1.00  0.00     0.279 HD
HETATM   24  C   UNL     1      42.476  -1.308  13.123  1.00  0.00     0.269 C 
ENDBRANCH  18  21
ENDBRANCH   9  12
ENDBRANCH   6   8
ENDBRANCH   1   2
BRANCH   1  25
HETATM   25  N   UNL     1      41.735 -12.494   4.908  1.00  0.00    -0.351 N 
HETATM   26  C   UNL     1      40.425 -12.707   4.539  1.00  0.00     0.274 C 
HETATM   27  O   UNL     1      39.557 -13.031   5.342  1.00  0.00    -0.266 OA
HETATM   28  H   UNL     1      42.410 -12.342   4.167  1.00  0.00     0.163 HD
BRANCH  26  29
HETATM   29  C   UNL     1      40.194 -12.533   3.108  1.00  0.00     0.177 A 
HETATM   30  N   UNL     1      39.419 -11.510   2.626  1.00  0.00    -0.124 NA
HETATM   31  N   UNL     1      39.385 -11.599   1.310  1.00  0.00    -0.058 NA
HETATM   32  N   UNL     1      40.157 -12.655   0.911  1.00  0.00    -0.188 N 
HETATM   33  C   UNL     1      40.659 -13.300   2.047  1.00  0.00     0.109 A 
BRANCH  32  34
HETATM   34  C   UNL     1      40.362 -12.936  -0.464  1.00  0.00     0.230 A 
HETATM   35  N   UNL     1      41.056 -12.110  -1.247  1.00  0.00    -0.081 NA
HETATM   36  O   UNL     1      41.014 -12.712  -2.503  1.00  0.00    -0.103 OA
HETATM   37  N   UNL     1      40.291 -13.900  -2.468  1.00  0.00    -0.083 NA
HETATM   38  C   UNL     1      39.890 -14.036  -1.205  1.00  0.00     0.201 A 
BRANCH  38  39
HETATM   39  N   UNL     1      39.163 -15.073  -0.750  1.00  0.00    -0.379 N 
HETATM   40  H   UNL     1      38.350 -15.381  -1.273  1.00  0.00     0.158 HD
HETATM   41  H   UNL     1      39.171 -15.346   0.231  1.00  0.00     0.158 HD
ENDBRANCH  38  39
ENDBRANCH  32  34
BRANCH  33  42
HETATM   42  C   UNL     1      41.462 -14.518   2.049  1.00  0.00    -0.005 A 
HETATM   43  C   UNL     1      42.821 -14.473   1.718  1.00  0.00     0.014 A 
HETATM   44  C   UNL     1      43.587 -15.640   1.728  1.00  0.00     0.001 A 
HETATM   45  C   UNL     1      43.002 -16.858   2.070  1.00  0.00     0.000 A 
HETATM   46  C   UNL     1      41.651 -16.910   2.410  1.00  0.00     0.001 A 
HETATM   47  C   UNL     1      40.884 -15.745   2.405  1.00  0.00     0.014 A 
ENDBRANCH  33  42
ENDBRANCH  26  29
ENDBRANCH   1  25
TORSDOF 9
ENDMDL
MODEL 10
REMARK VINA RESULT:      -9.4      6.225     11.035
REMARK  9 active torsions:
REMARK  status: ('A' for Active; 'I' for Inactive)
REMARK    1  A    between atoms: N_2  and  C_5 
REMARK    2  A    between atoms: C_10  and  N_11 
REMARK       I    between atoms: N_11  and  C_12 
REMARK    3  A    between atoms: C_12  and  C_14 
REMARK    4  A    between atoms: C_18  and  C_19 
REMARK    5  A    between atoms: C_19  and  N_20 
REMARK       I    between atoms: N_20  and  C_21 
REMARK    6  A    between atoms: C_21  and  C_23 
REMARK    7  A    between atoms: N_26  and  C_34 
REMARK    8  A    between atoms: C_27  and  C_28 
REMARK    9  A    between atoms: C_38  and  N_39 
ROOT
HETATM    1  C   UNL     1      40.555 -14.346   1.531  1.00  0.00     0.161 C 
ENDROOT
BRANCH   1   2
HETATM    2  C   UNL     1      40.376 -13.736   0.165  1.00  0.00    -0.040 A 
HETATM    3  C   UNL     1      39.958 -14.533  -0.911  1.00  0.00     0.009 A 
HETATM    4  C   UNL     1      39.757 -13.972  -2.170  1.00  0.00     0.002 A 
HETATM    5  C   UNL     1      39.983 -12.611  -2.372  1.00  0.00     0.017 A 
HETATM    6  C   UNL     1      40.413 -11.798  -1.313  1.00  0.00     0.033 A 
HETATM    7  C   UNL     1      40.587 -12.361  -0.040  1.00  0.00     0.026 A 
BRANCH   6   8
HETATM    8  C   UNL     1      40.644 -10.348  -1.601  1.00  0.00     0.257 C 
HETATM    9  N   UNL     1      41.474  -9.691  -0.719  1.00  0.00    -0.301 N 
HETATM   10  H   UNL     1      41.912 -10.187   0.042  1.00  0.00     0.171 HD
HETATM   11  O   UNL     1      40.114  -9.869  -2.597  1.00  0.00    -0.267 OA
BRANCH   9  12
HETATM   12  C   UNL     1      41.863  -8.376  -0.785  1.00  0.00     0.174 A 
HETATM   13  N   UNL     1      43.085  -8.041  -1.147  1.00  0.00    -0.228 NA
HETATM   14  C   UNL     1      43.212  -6.672  -1.136  1.00  0.00     0.050 A 
HETATM   15  C   UNL     1      44.491  -6.002  -1.512  1.00  0.00     0.062 C 
HETATM   16  C   UNL     1      42.068  -5.983  -0.796  1.00  0.00     0.013 A 
HETATM   17  C   UNL     1      44.476  -4.512  -1.111  1.00  0.00     0.039 C 
HETATM   18  C   UNL     1      43.125  -3.849  -1.473  1.00  0.00     0.192 C 
HETATM   19  C   UNL     1      41.936  -4.501  -0.722  1.00  0.00     0.081 C 
HETATM   20  S   UNL     1      40.818  -7.070  -0.429  1.00  0.00    -0.055 SA
BRANCH  18  21
HETATM   21  N   UNL     1      43.202  -2.334  -1.261  1.00  0.00    -0.074 N 
HETATM   22  C   UNL     1      44.624  -1.825  -1.237  1.00  0.00     0.269 C 
HETATM   23  H   UNL     1      42.845  -2.167  -0.310  1.00  0.00     0.279 HD
HETATM   24  C   UNL     1      42.344  -1.488  -2.167  1.00  0.00     0.269 C 
ENDBRANCH  18  21
ENDBRANCH   9  12
ENDBRANCH   6   8
ENDBRANCH   1   2
BRANCH   1  25
HETATM   25  N   UNL     1      41.352 -13.497   2.377  1.00  0.00    -0.351 N 
HETATM   26  C   UNL     1      42.675 -13.789   2.632  1.00  0.00     0.274 C 
HETATM   27  O   UNL     1      43.279 -14.681   2.045  1.00  0.00    -0.266 OA
HETATM   28  H   UNL     1      40.898 -12.825   2.985  1.00  0.00     0.163 HD
BRANCH  26  29
HETATM   29  C   UNL     1      43.258 -12.953   3.676  1.00  0.00     0.177 A 
HETATM   30  N   UNL     1      43.708 -11.686   3.412  1.00  0.00    -0.124 NA
HETATM   31  N   UNL     1      44.181 -11.171   4.531  1.00  0.00    -0.058 NA
HETATM   32  N   UNL     1      44.021 -12.074   5.545  1.00  0.00    -0.188 N 
HETATM   33  C   UNL     1      43.467 -13.247   5.018  1.00  0.00     0.109 A 
BRANCH  32  34
HETATM   34  C   UNL     1      44.374 -11.751   6.880  1.00  0.00     0.230 A 
HETATM   35  N   UNL     1      43.519 -11.924   7.887  1.00  0.00    -0.081 NA
HETATM   36  O   UNL     1      44.216 -11.478   9.008  1.00  0.00    -0.103 OA
HETATM   37  N   UNL     1      45.490 -11.037   8.667  1.00  0.00    -0.083 NA
HETATM   38  C   UNL     1      45.586 -11.208   7.350  1.00  0.00     0.201 A 
BRANCH  38  39
HETATM   39  N   UNL     1      46.680 -10.908   6.625  1.00  0.00    -0.379 N 
HETATM   40  H   UNL     1      47.600 -11.037   7.032  1.00  0.00     0.158 HD
HETATM   41  H   UNL     1      46.644 -10.258   5.841  1.00  0.00     0.158 HD
ENDBRANCH  38  39
ENDBRANCH  32  34
BRANCH  33  42
HETATM   42  C   UNL     1      43.214 -14.477   5.761  1.00  0.00    -0.005 A 
HETATM   43  C   UNL     1      44.269 -15.337   6.089  1.00  0.00     0.014 A 
HETATM   44  C   UNL     1      44.024 -16.509   6.807  1.00  0.00     0.001 A 
HETATM   45  C   UNL     1      42.726 -16.828   7.204  1.00  0.00     0.000 A 
HETATM   46  C   UNL     1      41.672 -15.973   6.889  1.00  0.00     0.001 A 
HETATM   47  C   UNL     1      41.915 -14.798   6.175  1.00  0.00     0.014 A 
ENDBRANCH  33  42
ENDBRANCH  26  29
ENDBRANCH   1  25
TORSDOF 9
ENDMDL
