MODEL 1
REMARK VINA RESULT:      -8.1      0.000      0.000
REMARK  3 active torsions:
REMARK  status: ('A' for Active; 'I' for Inactive)
REMARK    1  A    between atoms: C_7  and  N_8 
REMARK    2  A    between atoms: N_8  and  C_9 
REMARK    3  A    between atoms: C_9  and  C_10 
ROOT
HETATM    1  C   UNL     1      40.917 -16.051   2.378  1.00  0.00    -0.041 A 
HETATM    2  C   UNL     1      41.912 -17.024   2.206  1.00  0.00     0.035 A 
HETATM    3  C   UNL     1      42.876 -17.235   3.197  1.00  0.00     0.070 A 
HETATM    4 CL   UNL     1      44.088 -18.434   2.917  1.00  0.00    -0.081 Cl
HETATM    5  C   UNL     1      42.839 -16.502   4.388  1.00  0.00     0.123 A 
HETATM    6  C   UNL     1      41.840 -15.542   4.568  1.00  0.00     0.104 A 
HETATM    7  O   UNL     1      41.783 -14.725   5.666  1.00  0.00    -0.348 OA
HETATM    8  C   UNL     1      41.548 -15.459   6.870  1.00  0.00     0.178 C 
HETATM    9  C   UNL     1      42.830 -16.054   7.435  1.00  0.00     0.053 C 
HETATM   10  C   UNL     1      43.356 -17.173   6.548  1.00  0.00     0.178 C 
HETATM   11  O   UNL     1      43.844 -16.672   5.305  1.00  0.00    -0.346 OA
HETATM   12  C   UNL     1      40.894 -15.308   3.567  1.00  0.00     0.048 A 
ENDROOT
BRANCH   1  13
HETATM   13  C   UNL     1      39.866 -15.825   1.316  1.00  0.00     0.132 C 
BRANCH  13  14
HETATM   14  N   UNL     1      39.921 -14.435   0.900  1.00  0.00    -0.272 NA
HETATM   15  H   UNL     1      39.344 -13.808   1.446  1.00  0.00     0.129 HD
BRANCH  14  16
HETATM   16  C   UNL     1      39.804 -14.210  -0.471  1.00  0.00     0.117 A 
HETATM   17  C   UNL     1      40.315 -13.042  -1.077  1.00  0.00     0.040 A 
HETATM   18  C   UNL     1      41.022 -11.899  -0.562  1.00  0.00     0.025 A 
HETATM   19  C   UNL     1      40.130 -12.926  -2.445  1.00  0.00     0.112 A 
HETATM   20  C   UNL     1      41.328 -10.980  -1.541  1.00  0.00     0.053 A 
HETATM   21  S   UNL     1      40.773 -11.479  -3.079  1.00  0.00    -0.081 SA
HETATM   22  N   UNL     1      39.522 -13.815  -3.247  1.00  0.00    -0.234 NA
HETATM   23  C   UNL     1      39.093 -14.886  -2.576  1.00  0.00     0.236 A 
HETATM   24  N   UNL     1      39.198 -15.127  -1.259  1.00  0.00    -0.229 NA
ENDBRANCH  14  16
ENDBRANCH  13  14
ENDBRANCH   1  13
TORSDOF 3
ENDMDL
MODEL 2
REMARK VINA RESULT:      -8.0      1.588      2.149
REMARK  3 active torsions:
REMARK  status: ('A' for Active; 'I' for Inactive)
REMARK    1  A    between atoms: C_7  and  N_8 
REMARK    2  A    between atoms: N_8  and  C_9 
REMARK    3  A    between atoms: C_9  and  C_10 
ROOT
HETATM    1  C   UNL     1      41.246 -16.171   2.494  1.00  0.00    -0.041 A 
HETATM    2  C   UNL     1      42.170 -17.213   2.334  1.00  0.00     0.035 A 
HETATM    3  C   UNL     1      43.120 -17.476   3.327  1.00  0.00     0.070 A 
HETATM    4 CL   UNL     1      44.244 -18.761   3.063  1.00  0.00    -0.081 Cl
HETATM    5  C   UNL     1      43.137 -16.726   4.507  1.00  0.00     0.123 A 
HETATM    6  C   UNL     1      42.207 -15.695   4.675  1.00  0.00     0.104 A 
HETATM    7  O   UNL     1      42.210 -14.861   5.761  1.00  0.00    -0.348 OA
HETATM    8  C   UNL     1      41.928 -15.559   6.976  1.00  0.00     0.178 C 
HETATM    9  C   UNL     1      43.166 -16.234   7.547  1.00  0.00     0.053 C 
HETATM   10  C   UNL     1      43.611 -17.400   6.677  1.00  0.00     0.178 C 
HETATM   11  O   UNL     1      44.130 -16.952   5.425  1.00  0.00    -0.346 OA
HETATM   12  C   UNL     1      41.278 -15.411   3.672  1.00  0.00     0.048 A 
ENDROOT
BRANCH   1  13
HETATM   13  C   UNL     1      40.211 -15.887   1.430  1.00  0.00     0.132 C 
BRANCH  13  14
HETATM   14  N   UNL     1      40.759 -14.918   0.498  1.00  0.00    -0.272 NA
HETATM   15  H   UNL     1      41.685 -14.582   0.733  1.00  0.00     0.129 HD
BRANCH  14  16
HETATM   16  C   UNL     1      39.898 -13.887   0.123  1.00  0.00     0.117 A 
HETATM   17  C   UNL     1      39.161 -13.938  -1.080  1.00  0.00     0.040 A 
HETATM   18  C   UNL     1      39.063 -14.918  -2.130  1.00  0.00     0.025 A 
HETATM   19  C   UNL     1      38.346 -12.850  -1.349  1.00  0.00     0.112 A 
HETATM   20  C   UNL     1      38.202 -14.535  -3.134  1.00  0.00     0.053 A 
HETATM   21  S   UNL     1      37.507 -13.003  -2.826  1.00  0.00    -0.081 SA
HETATM   22  N   UNL     1      38.184 -11.763  -0.578  1.00  0.00    -0.234 NA
HETATM   23  C   UNL     1      38.912 -11.826   0.539  1.00  0.00     0.236 A 
HETATM   24  N   UNL     1      39.743 -12.808   0.923  1.00  0.00    -0.229 NA
ENDBRANCH  14  16
ENDBRANCH  13  14
ENDBRANCH   1  13
TORSDOF 3
ENDMDL
MODEL 3
REMARK VINA RESULT:      -7.9      2.303      3.106
REMARK  3 active torsions:
REMARK  status: ('A' for Active; 'I' for Inactive)
REMARK    1  A    between atoms: C_7  and  N_8 
REMARK    2  A    between atoms: N_8  and  C_9 
REMARK    3  A    between atoms: C_9  and  C_10 
ROOT
HETATM    1  C   UNL     1      43.230 -16.516   2.483  1.00  0.00    -0.041 A 
HETATM    2  C   UNL     1      43.333 -17.814   1.964  1.00  0.00     0.035 A 
HETATM    3  C   UNL     1      43.697 -18.881   2.792  1.00  0.00     0.070 A 
HETATM    4 CL   UNL     1      43.827 -20.454   2.089  1.00  0.00    -0.081 Cl
HETATM    5  C   UNL     1      43.929 -18.673   4.155  1.00  0.00     0.123 A 
HETATM    6  C   UNL     1      43.813 -17.381   4.679  1.00  0.00     0.104 A 
HETATM    7  O   UNL     1      44.103 -17.078   5.982  1.00  0.00    -0.348 OA
HETATM    8  C   UNL     1      43.214 -17.725   6.895  1.00  0.00     0.178 C 
HETATM    9  C   UNL     1      43.634 -19.159   7.182  1.00  0.00     0.053 C 
HETATM   10  C   UNL     1      43.439 -20.045   5.961  1.00  0.00     0.178 C 
HETATM   11  O   UNL     1      44.364 -19.721   4.924  1.00  0.00    -0.346 OA
HETATM   12  C   UNL     1      43.479 -16.309   3.848  1.00  0.00     0.048 A 
ENDROOT
BRANCH   1  13
HETATM   13  C   UNL     1      42.828 -15.360   1.597  1.00  0.00     0.132 C 
BRANCH  13  14
HETATM   14  N   UNL     1      41.394 -15.421   1.378  1.00  0.00    -0.272 NA
HETATM   15  H   UNL     1      41.106 -16.055   0.642  1.00  0.00     0.129 HD
BRANCH  14  16
HETATM   16  C   UNL     1      40.740 -14.192   1.310  1.00  0.00     0.117 A 
HETATM   17  C   UNL     1      39.929 -13.844   0.208  1.00  0.00     0.040 A 
HETATM   18  C   UNL     1      39.561 -14.538  -0.998  1.00  0.00     0.025 A 
HETATM   19  C   UNL     1      39.338 -12.591   0.251  1.00  0.00     0.112 A 
HETATM   20  C   UNL     1      38.732 -13.793  -1.806  1.00  0.00     0.053 A 
HETATM   21  S   UNL     1      38.389 -12.262  -1.127  1.00  0.00    -0.081 SA
HETATM   22  N   UNL     1      39.455 -11.685   1.235  1.00  0.00    -0.234 NA
HETATM   23  C   UNL     1      40.227 -12.122   2.232  1.00  0.00     0.236 A 
HETATM   24  N   UNL     1      40.863 -13.302   2.321  1.00  0.00    -0.229 NA
ENDBRANCH  14  16
ENDBRANCH  13  14
ENDBRANCH   1  13
TORSDOF 3
ENDMDL
MODEL 4
REMARK VINA RESULT:      -7.7      6.005      8.322
REMARK  3 active torsions:
REMARK  status: ('A' for Active; 'I' for Inactive)
REMARK    1  A    between atoms: C_7  and  N_8 
REMARK    2  A    between atoms: N_8  and  C_9 
REMARK    3  A    between atoms: C_9  and  C_10 
ROOT
HETATM    1  C   UNL     1      43.029 -13.419   5.914  1.00  0.00    -0.041 A 
HETATM    2  C   UNL     1      43.430 -14.403   6.829  1.00  0.00     0.035 A 
HETATM    3  C   UNL     1      43.420 -15.753   6.466  1.00  0.00     0.070 A 
HETATM    4 CL   UNL     1      43.905 -16.920   7.644  1.00  0.00    -0.081 Cl
HETATM    5  C   UNL     1      43.044 -16.137   5.175  1.00  0.00     0.123 A 
HETATM    6  C   UNL     1      42.658 -15.157   4.256  1.00  0.00     0.104 A 
HETATM    7  O   UNL     1      42.197 -15.454   3.001  1.00  0.00    -0.348 OA
HETATM    8  C   UNL     1      43.199 -16.074   2.193  1.00  0.00     0.178 C 
HETATM    9  C   UNL     1      43.302 -17.569   2.460  1.00  0.00     0.053 C 
HETATM   10  C   UNL     1      43.877 -17.844   3.841  1.00  0.00     0.178 C 
HETATM   11  O   UNL     1      42.964 -17.472   4.873  1.00  0.00    -0.346 OA
HETATM   12  C   UNL     1      42.638 -13.810   4.625  1.00  0.00     0.048 A 
ENDROOT
BRANCH   1  13
HETATM   13  C   UNL     1      43.046 -11.957   6.296  1.00  0.00     0.132 C 
BRANCH  13  14
HETATM   14  N   UNL     1      43.633 -11.830   7.618  1.00  0.00    -0.272 NA
HETATM   15  H   UNL     1      43.029 -12.121   8.377  1.00  0.00     0.129 HD
BRANCH  14  16
HETATM   16  C   UNL     1      44.276 -10.621   7.880  1.00  0.00     0.117 A 
HETATM   17  C   UNL     1      43.573  -9.498   8.365  1.00  0.00     0.040 A 
HETATM   18  C   UNL     1      42.192  -9.277   8.707  1.00  0.00     0.025 A 
HETATM   19  C   UNL     1      44.319  -8.350   8.580  1.00  0.00     0.112 A 
HETATM   20  C   UNL     1      41.954  -7.994   9.147  1.00  0.00     0.053 A 
HETATM   21  S   UNL     1      43.379  -7.049   9.155  1.00  0.00    -0.081 SA
HETATM   22  N   UNL     1      45.639  -8.206   8.379  1.00  0.00    -0.234 NA
HETATM   23  C   UNL     1      46.206  -9.330   7.938  1.00  0.00     0.236 A 
HETATM   24  N   UNL     1      45.609 -10.506   7.682  1.00  0.00    -0.229 NA
ENDBRANCH  14  16
ENDBRANCH  13  14
ENDBRANCH   1  13
TORSDOF 3
ENDMDL
MODEL 5
REMARK VINA RESULT:      -7.6      4.954      6.072
REMARK  3 active torsions:
REMARK  status: ('A' for Active; 'I' for Inactive)
REMARK    1  A    between atoms: C_7  and  N_8 
REMARK    2  A    between atoms: N_8  and  C_9 
REMARK    3  A    between atoms: C_9  and  C_10 
ROOT
HETATM    1  C   UNL     1      41.471 -15.910   5.556  1.00  0.00    -0.041 A 
HETATM    2  C   UNL     1      41.754 -15.778   4.189  1.00  0.00     0.035 A 
HETATM    3  C   UNL     1      42.705 -16.604   3.580  1.00  0.00     0.070 A 
HETATM    4 CL   UNL     1      43.025 -16.379   1.897  1.00  0.00    -0.081 Cl
HETATM    5  C   UNL     1      43.359 -17.596   4.319  1.00  0.00     0.123 A 
HETATM    6  C   UNL     1      43.067 -17.739   5.679  1.00  0.00     0.104 A 
HETATM    7  O   UNL     1      43.722 -18.627   6.490  1.00  0.00    -0.348 OA
HETATM    8  C   UNL     1      43.479 -19.983   6.109  1.00  0.00     0.178 C 
HETATM    9  C   UNL     1      44.385 -20.426   4.969  1.00  0.00     0.053 C 
HETATM   10  C   UNL     1      44.020 -19.723   3.670  1.00  0.00     0.178 C 
HETATM   11  O   UNL     1      44.344 -18.334   3.715  1.00  0.00    -0.346 OA
HETATM   12  C   UNL     1      42.141 -16.895   6.296  1.00  0.00     0.048 A 
ENDROOT
BRANCH   1  13
HETATM   13  C   UNL     1      40.439 -15.028   6.219  1.00  0.00     0.132 C 
BRANCH  13  14
HETATM   14  N   UNL     1      40.057 -13.982   5.287  1.00  0.00    -0.272 NA
HETATM   15  H   UNL     1      40.527 -14.022   4.391  1.00  0.00     0.129 HD
BRANCH  14  16
HETATM   16  C   UNL     1      40.017 -12.690   5.812  1.00  0.00     0.117 A 
HETATM   17  C   UNL     1      41.190 -11.924   5.984  1.00  0.00     0.040 A 
HETATM   18  C   UNL     1      42.578 -12.179   5.705  1.00  0.00     0.025 A 
HETATM   19  C   UNL     1      41.024 -10.658   6.523  1.00  0.00     0.112 A 
HETATM   20  C   UNL     1      43.391 -11.121   6.046  1.00  0.00     0.053 A 
HETATM   21  S   UNL     1      42.498  -9.818   6.700  1.00  0.00    -0.081 SA
HETATM   22  N   UNL     1      39.863 -10.091   6.888  1.00  0.00    -0.234 NA
HETATM   23  C   UNL     1      38.820 -10.892   6.666  1.00  0.00     0.236 A 
HETATM   24  N   UNL     1      38.833 -12.136   6.159  1.00  0.00    -0.229 NA
ENDBRANCH  14  16
ENDBRANCH  13  14
ENDBRANCH   1  13
TORSDOF 3
ENDMDL
MODEL 6
REMARK VINA RESULT:      -7.6      4.348      7.909
REMARK  3 active torsions:
REMARK  status: ('A' for Active; 'I' for Inactive)
REMARK    1  A    between atoms: C_7  and  N_8 
REMARK    2  A    between atoms: N_8  and  C_9 
REMARK    3  A    between atoms: C_9  and  C_10 
ROOT
HETATM    1  C   UNL     1      40.369 -14.460   0.680  1.00  0.00    -0.041 A 
HETATM    2  C   UNL     1      39.770 -14.974  -0.479  1.00  0.00     0.035 A 
HETATM    3  C   UNL     1      39.461 -14.131  -1.552  1.00  0.00     0.070 A 
HETATM    4 CL   UNL     1      38.706 -14.822  -2.943  1.00  0.00    -0.081 Cl
HETATM    5  C   UNL     1      39.778 -12.770  -1.496  1.00  0.00     0.123 A 
HETATM    6  C   UNL     1      40.389 -12.257  -0.347  1.00  0.00     0.104 A 
HETATM    7  O   UNL     1      40.655 -10.924  -0.179  1.00  0.00    -0.348 OA
HETATM    8  C   UNL     1      41.614 -10.444  -1.124  1.00  0.00     0.178 C 
HETATM    9  C   UNL     1      40.975 -10.102  -2.462  1.00  0.00     0.053 C 
HETATM   10  C   UNL     1      40.505 -11.354  -3.185  1.00  0.00     0.178 C 
HETATM   11  O   UNL     1      39.390 -11.953  -2.527  1.00  0.00    -0.346 OA
HETATM   12  C   UNL     1      40.670 -13.091   0.737  1.00  0.00     0.048 A 
ENDROOT
BRANCH   1  13
HETATM   13  C   UNL     1      40.714 -15.366   1.838  1.00  0.00     0.132 C 
BRANCH  13  14
HETATM   14  N   UNL     1      42.136 -15.655   1.792  1.00  0.00    -0.272 NA
HETATM   15  H   UNL     1      42.427 -16.218   1.003  1.00  0.00     0.129 HD
BRANCH  14  16
HETATM   16  C   UNL     1      42.704 -16.083   2.992  1.00  0.00     0.117 A 
HETATM   17  C   UNL     1      43.177 -17.402   3.158  1.00  0.00     0.040 A 
HETATM   18  C   UNL     1      43.233 -18.543   2.282  1.00  0.00     0.025 A 
HETATM   19  C   UNL     1      43.714 -17.712   4.398  1.00  0.00     0.112 A 
HETATM   20  C   UNL     1      43.788 -19.649   2.886  1.00  0.00     0.053 A 
HETATM   21  S   UNL     1      44.247 -19.329   4.501  1.00  0.00    -0.081 SA
HETATM   22  N   UNL     1      43.832 -16.882   5.447  1.00  0.00    -0.234 NA
HETATM   23  C   UNL     1      43.372 -15.660   5.176  1.00  0.00     0.236 A 
HETATM   24  N   UNL     1      42.825 -15.224   4.029  1.00  0.00    -0.229 NA
ENDBRANCH  14  16
ENDBRANCH  13  14
ENDBRANCH   1  13
TORSDOF 3
ENDMDL
MODEL 7
REMARK VINA RESULT:      -7.5      2.353      2.994
REMARK  3 active torsions:
REMARK  status: ('A' for Active; 'I' for Inactive)
REMARK    1  A    between atoms: C_7  and  N_8 
REMARK    2  A    between atoms: N_8  and  C_9 
REMARK    3  A    between atoms: C_9  and  C_10 
ROOT
HETATM    1  C   UNL     1      43.048 -16.594   2.446  1.00  0.00    -0.041 A 
HETATM    2  C   UNL     1      43.199 -17.867   1.878  1.00  0.00     0.035 A 
HETATM    3  C   UNL     1      43.634 -18.943   2.658  1.00  0.00     0.070 A 
HETATM    4 CL   UNL     1      43.820 -20.482   1.896  1.00  0.00    -0.081 Cl
HETATM    5  C   UNL     1      43.889 -18.772   4.023  1.00  0.00     0.123 A 
HETATM    6  C   UNL     1      43.725 -17.506   4.595  1.00  0.00     0.104 A 
HETATM    7  O   UNL     1      44.033 -17.235   5.902  1.00  0.00    -0.348 OA
HETATM    8  C   UNL     1      43.199 -17.955   6.811  1.00  0.00     0.178 C 
HETATM    9  C   UNL     1      43.693 -19.377   7.036  1.00  0.00     0.053 C 
HETATM   10  C   UNL     1      43.510 -20.228   5.789  1.00  0.00     0.178 C 
HETATM   11  O   UNL     1      44.393 -19.824   4.744  1.00  0.00    -0.346 OA
HETATM   12  C   UNL     1      43.320 -16.423   3.812  1.00  0.00     0.048 A 
ENDROOT
BRANCH   1  13
HETATM   13  C   UNL     1      42.569 -15.428   1.612  1.00  0.00     0.132 C 
BRANCH  13  14
HETATM   14  N   UNL     1      41.266 -15.014   2.100  1.00  0.00    -0.272 NA
HETATM   15  H   UNL     1      40.721 -15.752   2.527  1.00  0.00     0.129 HD
BRANCH  14  16
HETATM   16  C   UNL     1      40.513 -14.232   1.224  1.00  0.00     0.117 A 
HETATM   17  C   UNL     1      39.814 -13.089   1.666  1.00  0.00     0.040 A 
HETATM   18  C   UNL     1      39.686 -12.452   2.950  1.00  0.00     0.025 A 
HETATM   19  C   UNL     1      39.094 -12.398   0.704  1.00  0.00     0.112 A 
HETATM   20  C   UNL     1      38.882 -11.334   2.910  1.00  0.00     0.053 A 
HETATM   21  S   UNL     1      38.278 -11.041   1.338  1.00  0.00    -0.081 SA
HETATM   22  N   UNL     1      39.003 -12.706  -0.600  1.00  0.00    -0.234 NA
HETATM   23  C   UNL     1      39.714 -13.791  -0.911  1.00  0.00     0.236 A 
HETATM   24  N   UNL     1      40.448 -14.556  -0.087  1.00  0.00    -0.229 NA
ENDBRANCH  14  16
ENDBRANCH  13  14
ENDBRANCH   1  13
TORSDOF 3
ENDMDL
MODEL 8
REMARK VINA RESULT:      -7.5      3.188      4.186
REMARK  3 active torsions:
REMARK  status: ('A' for Active; 'I' for Inactive)
REMARK    1  A    between atoms: C_7  and  N_8 
REMARK    2  A    between atoms: N_8  and  C_9 
REMARK    3  A    between atoms: C_9  and  C_10 
ROOT
HETATM    1  C   UNL     1      41.179 -15.475   2.670  1.00  0.00    -0.041 A 
HETATM    2  C   UNL     1      41.667 -16.687   2.161  1.00  0.00     0.035 A 
HETATM    3  C   UNL     1      42.584 -17.446   2.895  1.00  0.00     0.070 A 
HETATM    4 CL   UNL     1      43.163 -18.920   2.204  1.00  0.00    -0.081 Cl
HETATM    5  C   UNL     1      43.000 -17.024   4.162  1.00  0.00     0.123 A 
HETATM    6  C   UNL     1      42.504 -15.823   4.679  1.00  0.00     0.104 A 
HETATM    7  O   UNL     1      42.923 -15.298   5.872  1.00  0.00    -0.348 OA
HETATM    8  C   UNL     1      42.570 -16.130   6.979  1.00  0.00     0.178 C 
HETATM    9  C   UNL     1      43.566 -17.264   7.180  1.00  0.00     0.053 C 
HETATM   10  C   UNL     1      43.477 -18.282   6.053  1.00  0.00     0.178 C 
HETATM   11  O   UNL     1      43.961 -17.745   4.822  1.00  0.00    -0.346 OA
HETATM   12  C   UNL     1      41.611 -15.048   3.935  1.00  0.00     0.048 A 
ENDROOT
BRANCH   1  13
HETATM   13  C   UNL     1      40.181 -14.654   1.887  1.00  0.00     0.132 C 
BRANCH  13  14
HETATM   14  N   UNL     1      39.154 -14.182   2.799  1.00  0.00    -0.272 NA
HETATM   15  H   UNL     1      38.267 -14.664   2.721  1.00  0.00     0.129 HD
BRANCH  14  16
HETATM   16  C   UNL     1      39.004 -12.798   2.876  1.00  0.00     0.117 A 
HETATM   17  C   UNL     1      39.148 -12.105   4.097  1.00  0.00     0.040 A 
HETATM   18  C   UNL     1      39.460 -12.529   5.436  1.00  0.00     0.025 A 
HETATM   19  C   UNL     1      38.967 -10.731   4.050  1.00  0.00     0.112 A 
HETATM   20  C   UNL     1      39.493 -11.482   6.330  1.00  0.00     0.053 A 
HETATM   21  S   UNL     1      39.151  -9.988   5.573  1.00  0.00    -0.081 SA
HETATM   22  N   UNL     1      38.678 -10.001   2.961  1.00  0.00    -0.234 NA
HETATM   23  C   UNL     1      38.583 -10.752   1.862  1.00  0.00     0.236 A 
HETATM   24  N   UNL     1      38.726 -12.083   1.762  1.00  0.00    -0.229 NA
ENDBRANCH  14  16
ENDBRANCH  13  14
ENDBRANCH   1  13
TORSDOF 3
ENDMDL
MODEL 9
REMARK VINA RESULT:      -7.4      4.257      7.698
REMARK  3 active torsions:
REMARK  status: ('A' for Active; 'I' for Inactive)
REMARK    1  A    between atoms: C_7  and  N_8 
REMARK    2  A    between atoms: N_8  and  C_9 
REMARK    3  A    between atoms: C_9  and  C_10 
ROOT
HETATM    1  C   UNL     1      40.398 -13.149   2.338  1.00  0.00    -0.041 A 
HETATM    2  C   UNL     1      40.895 -11.885   1.991  1.00  0.00     0.035 A 
HETATM    3  C   UNL     1      41.081 -11.541   0.648  1.00  0.00     0.070 A 
HETATM    4 CL   UNL     1      41.716  -9.976   0.285  1.00  0.00    -0.081 Cl
HETATM    5  C   UNL     1      40.741 -12.441  -0.367  1.00  0.00     0.123 A 
HETATM    6  C   UNL     1      40.232 -13.698  -0.024  1.00  0.00     0.104 A 
HETATM    7  O   UNL     1      39.953 -14.666  -0.952  1.00  0.00    -0.348 OA
HETATM    8  C   UNL     1      38.898 -14.277  -1.834  1.00  0.00     0.178 C 
HETATM    9  C   UNL     1      39.399 -13.396  -2.969  1.00  0.00     0.053 C 
HETATM   10  C   UNL     1      39.826 -12.028  -2.459  1.00  0.00     0.178 C 
HETATM   11  O   UNL     1      41.012 -12.109  -1.669  1.00  0.00    -0.346 OA
HETATM   12  C   UNL     1      40.073 -14.054   1.317  1.00  0.00     0.048 A 
ENDROOT
BRANCH   1  13
HETATM   13  C   UNL     1      40.185 -13.524   3.786  1.00  0.00     0.132 C 
BRANCH  13  14
HETATM   14  N   UNL     1      40.051 -14.967   3.876  1.00  0.00    -0.272 NA
HETATM   15  H   UNL     1      39.100 -15.297   3.985  1.00  0.00     0.129 HD
BRANCH  14  16
HETATM   16  C   UNL     1      40.939 -15.604   4.743  1.00  0.00     0.117 A 
HETATM   17  C   UNL     1      41.959 -16.454   4.265  1.00  0.00     0.040 A 
HETATM   18  C   UNL     1      42.360 -16.860   2.943  1.00  0.00     0.025 A 
HETATM   19  C   UNL     1      42.774 -17.036   5.223  1.00  0.00     0.112 A 
HETATM   20  C   UNL     1      43.433 -17.723   2.956  1.00  0.00     0.053 A 
HETATM   21  S   UNL     1      43.967 -18.051   4.547  1.00  0.00    -0.081 SA
HETATM   22  N   UNL     1      42.692 -16.866   6.552  1.00  0.00    -0.234 NA
HETATM   23  C   UNL     1      41.707 -16.032   6.892  1.00  0.00     0.236 A 
HETATM   24  N   UNL     1      40.844 -15.405   6.077  1.00  0.00    -0.229 NA
ENDBRANCH  14  16
ENDBRANCH  13  14
ENDBRANCH   1  13
TORSDOF 3
ENDMDL
MODEL 10
REMARK VINA RESULT:      -7.3      5.512      7.699
REMARK  3 active torsions:
REMARK  status: ('A' for Active; 'I' for Inactive)
REMARK    1  A    between atoms: C_7  and  N_8 
REMARK    2  A    between atoms: N_8  and  C_9 
REMARK    3  A    between atoms: C_9  and  C_10 
ROOT
HETATM    1  C   UNL     1      42.982 -12.345   5.448  1.00  0.00    -0.041 A 
HETATM    2  C   UNL     1      41.935 -11.441   5.677  1.00  0.00     0.035 A 
HETATM    3  C   UNL     1      42.027 -10.497   6.705  1.00  0.00     0.070 A 
HETATM    4 CL   UNL     1      40.696  -9.424   6.951  1.00  0.00    -0.081 Cl
HETATM    5  C   UNL     1      43.180 -10.419   7.494  1.00  0.00     0.123 A 
HETATM    6  C   UNL     1      44.231 -11.309   7.258  1.00  0.00     0.104 A 
HETATM    7  O   UNL     1      45.357 -11.355   8.037  1.00  0.00    -0.348 OA
HETATM    8  C   UNL     1      46.118 -10.149   7.952  1.00  0.00     0.178 C 
HETATM    9  C   UNL     1      45.578  -9.066   8.874  1.00  0.00     0.053 C 
HETATM   10  C   UNL     1      44.229  -8.554   8.392  1.00  0.00     0.178 C 
HETATM   11  O   UNL     1      43.208  -9.539   8.546  1.00  0.00    -0.346 OA
HETATM   12  C   UNL     1      44.129 -12.273   6.252  1.00  0.00     0.048 A 
ENDROOT
BRANCH   1  13
HETATM   13  C   UNL     1      42.894 -13.362   4.334  1.00  0.00     0.132 C 
BRANCH  13  14
HETATM   14  N   UNL     1      42.018 -14.439   4.758  1.00  0.00    -0.272 NA
HETATM   15  H   UNL     1      41.291 -14.162   5.406  1.00  0.00     0.129 HD
BRANCH  14  16
HETATM   16  C   UNL     1      42.655 -15.619   5.145  1.00  0.00     0.117 A 
HETATM   17  C   UNL     1      42.974 -16.628   4.211  1.00  0.00     0.040 A 
HETATM   18  C   UNL     1      42.791 -16.743   2.788  1.00  0.00     0.025 A 
HETATM   19  C   UNL     1      43.598 -17.758   4.716  1.00  0.00     0.112 A 
HETATM   20  C   UNL     1      43.265 -17.935   2.287  1.00  0.00     0.053 A 
HETATM   21  S   UNL     1      43.932 -18.921   3.514  1.00  0.00    -0.081 SA
HETATM   22  N   UNL     1      43.932 -17.981   5.998  1.00  0.00    -0.234 NA
HETATM   23  C   UNL     1      43.602 -16.958   6.789  1.00  0.00     0.236 A 
HETATM   24  N   UNL     1      42.993 -15.813   6.439  1.00  0.00    -0.229 NA
ENDBRANCH  14  16
ENDBRANCH  13  14
ENDBRANCH   1  13
TORSDOF 3
ENDMDL
