MODEL 1
REMARK VINA RESULT:      -9.6      0.000      0.000
REMARK  9 active torsions:
REMARK  status: ('A' for Active; 'I' for Inactive)
REMARK       I    between atoms: N_2  and  C_3 
REMARK    1  A    between atoms: N_2  and  C_28 
REMARK    2  A    between atoms: C_3  and  C_4 
REMARK    3  A    between atoms: C_6  and  N_7 
REMARK       I    between atoms: N_7  and  C_8 
REMARK    4  A    between atoms: C_8  and  C_9 
REMARK    5  A    between atoms: C_9  and  O_10 
REMARK    6  A    between atoms: N_17  and  C_18 
REMARK    7  A    between atoms: C_18  and  C_19 
REMARK    8  A    between atoms: C_19  and  C_20 
REMARK    9  A    between atoms: C_28  and  C_29 
ROOT
HETATM    1  C   UNL     1      42.602 -11.543   4.140  1.00  0.00     0.036 C 
HETATM    2  C   UNL     1      41.695 -11.101   5.106  1.00  0.00     0.049 C 
HETATM    3  C   UNL     1      42.097 -10.778   6.414  1.00  0.00     0.065 C 
HETATM    4  C   UNL     1      43.485 -10.797   6.668  1.00  0.00     0.091 C 
HETATM    5  C   UNL     1      44.389 -11.310   5.727  1.00  0.00     0.088 C 
HETATM    6  N   UNL     1      45.663 -11.359   6.223  1.00  0.00    -0.242 NA
HETATM    7  C   UNL     1      45.585 -10.816   7.409  1.00  0.00     0.210 C 
HETATM    8  N   UNL     1      44.313 -10.379   7.696  1.00  0.00    -0.337 N 
HETATM    9  C   UNL     1      43.955 -11.684   4.449  1.00  0.00     0.051 C 
ENDROOT
BRANCH   1  10
HETATM   10  C   UNL     1      42.180 -11.739   2.732  1.00  0.00     0.253 C 
HETATM   11  N   UNL     1      41.433 -12.863   2.371  1.00  0.00    -0.350 N 
HETATM   12  C   UNL     1      40.872 -12.876   1.024  1.00  0.00     0.153 C 
HETATM   13  O   UNL     1      42.476 -10.843   1.942  1.00  0.00    -0.267 OA
BRANCH  11  14
HETATM   14  C   UNL     1      41.512 -14.164   3.068  1.00  0.00     0.158 C 
BRANCH  14  15
HETATM   15  C   UNL     1      42.825 -14.940   2.844  1.00  0.00     0.151 A 
HETATM   16  O   UNL     1      43.298 -15.469   4.117  1.00  0.00    -0.343 OA
HETATM   17  C   UNL     1      43.537 -16.793   3.902  1.00  0.00     0.075 A 
HETATM   18  C   UNL     1      43.183 -17.233   2.642  1.00  0.00    -0.022 A 
HETATM   19  C   UNL     1      44.070 -17.641   4.851  1.00  0.00     0.037 A 
HETATM   20  C   UNL     1      42.624 -16.110   1.859  1.00  0.00     0.075 A 
HETATM   21  C   UNL     1      43.346 -18.562   2.286  1.00  0.00     0.010 A 
HETATM   22  C   UNL     1      43.884 -19.441   3.232  1.00  0.00     0.001 A 
HETATM   23  C   UNL     1      44.246 -18.984   4.509  1.00  0.00     0.003 A 
ENDBRANCH  14  15
ENDBRANCH  11  14
ENDBRANCH   1  10
BRANCH   3  24
HETATM   24  N   UNL     1      41.167 -10.485   7.427  1.00  0.00    -0.323 N 
HETATM   25  C   UNL     1      40.571  -9.258   7.675  1.00  0.00     0.246 C 
HETATM   26  O   UNL     1      40.796  -8.200   7.091  1.00  0.00    -0.271 OA
HETATM   27  H   UNL     1      40.712 -11.255   7.900  1.00  0.00     0.169 HD
BRANCH  25  28
HETATM   28  C   UNL     1      39.493  -9.331   8.763  1.00  0.00     0.270 C 
BRANCH  28  29
HETATM   29  O   UNL     1      40.049  -9.357  10.077  1.00  0.00    -0.387 OA
HETATM   30  C   UNL     1      40.290  -8.040  10.563  1.00  0.00     0.202 C 
ENDBRANCH  28  29
ENDBRANCH  25  28
ENDBRANCH   3  24
BRANCH   8  31
HETATM   31  C   UNL     1      44.087  -9.314   8.655  1.00  0.00     0.134 C 
BRANCH  31  32
HETATM   32  C   UNL     1      44.752  -9.405  10.031  1.00  0.00     0.058 C 
BRANCH  32  33
HETATM   33  C   UNL     1      43.863  -9.363  11.243  1.00  0.00    -0.057 A 
HETATM   34  C   UNL     1      43.135 -10.485  11.656  1.00  0.00     0.007 A 
HETATM   35  C   UNL     1      42.333 -10.425  12.797  1.00  0.00     0.001 A 
HETATM   36  C   UNL     1      42.268  -9.253  13.547  1.00  0.00     0.000 A 
HETATM   37  C   UNL     1      43.003  -8.136  13.158  1.00  0.00     0.001 A 
HETATM   38  C   UNL     1      43.794  -8.190  12.011  1.00  0.00     0.007 A 
ENDBRANCH  32  33
ENDBRANCH  31  32
ENDBRANCH   8  31
TORSDOF 9
ENDMDL
MODEL 2
REMARK VINA RESULT:      -9.2      3.022      6.481
REMARK  9 active torsions:
REMARK  status: ('A' for Active; 'I' for Inactive)
REMARK       I    between atoms: N_2  and  C_3 
REMARK    1  A    between atoms: N_2  and  C_28 
REMARK    2  A    between atoms: C_3  and  C_4 
REMARK    3  A    between atoms: C_6  and  N_7 
REMARK       I    between atoms: N_7  and  C_8 
REMARK    4  A    between atoms: C_8  and  C_9 
REMARK    5  A    between atoms: C_9  and  O_10 
REMARK    6  A    between atoms: N_17  and  C_18 
REMARK    7  A    between atoms: C_18  and  C_19 
REMARK    8  A    between atoms: C_19  and  C_20 
REMARK    9  A    between atoms: C_28  and  C_29 
ROOT
HETATM    1  C   UNL     1      40.062 -11.722   5.102  1.00  0.00     0.036 C 
HETATM    2  C   UNL     1      41.406 -11.446   5.359  1.00  0.00     0.049 C 
HETATM    3  C   UNL     1      42.242 -12.362   6.021  1.00  0.00     0.065 C 
HETATM    4  C   UNL     1      41.690 -13.631   6.297  1.00  0.00     0.091 C 
HETATM    5  C   UNL     1      40.324 -13.886   6.108  1.00  0.00     0.088 C 
HETATM    6  N   UNL     1      39.973 -15.129   6.559  1.00  0.00    -0.242 NA
HETATM    7  C   UNL     1      41.095 -15.677   6.946  1.00  0.00     0.210 C 
HETATM    8  N   UNL     1      42.176 -14.854   6.729  1.00  0.00    -0.337 N 
HETATM    9  C   UNL     1      39.497 -12.933   5.502  1.00  0.00     0.051 C 
ENDROOT
BRANCH   1  10
HETATM   10  C   UNL     1      39.240 -10.803   4.278  1.00  0.00     0.253 C 
HETATM   11  N   UNL     1      39.357 -10.810   2.886  1.00  0.00    -0.350 N 
HETATM   12  C   UNL     1      38.368 -10.042   2.138  1.00  0.00     0.153 C 
HETATM   13  O   UNL     1      38.435 -10.096   4.884  1.00  0.00    -0.267 OA
BRANCH  11  14
HETATM   14  C   UNL     1      40.594 -11.179   2.165  1.00  0.00     0.158 C 
BRANCH  14  15
HETATM   15  C   UNL     1      40.510 -12.495   1.367  1.00  0.00     0.151 A 
HETATM   16  O   UNL     1      41.855 -12.996   1.117  1.00  0.00    -0.343 OA
HETATM   17  C   UNL     1      41.848 -14.297   1.522  1.00  0.00     0.075 A 
HETATM   18  C   UNL     1      40.663 -14.698   2.109  1.00  0.00    -0.022 A 
HETATM   19  C   UNL     1      42.922 -15.151   1.384  1.00  0.00     0.037 A 
HETATM   20  C   UNL     1      39.710 -13.568   2.135  1.00  0.00     0.075 A 
HETATM   21  C   UNL     1      40.515 -15.988   2.591  1.00  0.00     0.010 A 
HETATM   22  C   UNL     1      41.592 -16.872   2.462  1.00  0.00     0.001 A 
HETATM   23  C   UNL     1      42.790 -16.457   1.860  1.00  0.00     0.003 A 
ENDBRANCH  14  15
ENDBRANCH  11  14
ENDBRANCH   1  10
BRANCH   3  24
HETATM   24  N   UNL     1      43.548 -12.026   6.420  1.00  0.00    -0.323 N 
HETATM   25  C   UNL     1      43.905 -11.174   7.455  1.00  0.00     0.246 C 
HETATM   26  O   UNL     1      43.142 -10.519   8.163  1.00  0.00    -0.271 OA
HETATM   27  H   UNL     1      44.314 -12.595   6.088  1.00  0.00     0.169 HD
BRANCH  25  28
HETATM   28  C   UNL     1      45.416 -11.152   7.711  1.00  0.00     0.270 C 
BRANCH  28  29
HETATM   29  O   UNL     1      46.015  -9.916   7.320  1.00  0.00    -0.387 OA
HETATM   30  C   UNL     1      46.021  -8.982   8.396  1.00  0.00     0.202 C 
ENDBRANCH  28  29
ENDBRANCH  25  28
ENDBRANCH   3  24
BRANCH   8  31
HETATM   31  C   UNL     1      43.510 -15.400   6.566  1.00  0.00     0.134 C 
BRANCH  31  32
HETATM   32  C   UNL     1      43.836 -16.187   5.294  1.00  0.00     0.058 C 
BRANCH  32  33
HETATM   33  C   UNL     1      43.874 -17.687   5.389  1.00  0.00    -0.057 A 
HETATM   34  C   UNL     1      43.365 -18.364   6.504  1.00  0.00     0.007 A 
HETATM   35  C   UNL     1      43.394 -19.759   6.558  1.00  0.00     0.001 A 
HETATM   36  C   UNL     1      43.912 -20.490   5.490  1.00  0.00     0.000 A 
HETATM   37  C   UNL     1      44.404 -19.829   4.368  1.00  0.00     0.001 A 
HETATM   38  C   UNL     1      44.387 -18.436   4.318  1.00  0.00     0.007 A 
ENDBRANCH  32  33
ENDBRANCH  31  32
ENDBRANCH   8  31
TORSDOF 9
ENDMDL
MODEL 3
REMARK VINA RESULT:      -9.2      3.826      8.226
REMARK  9 active torsions:
REMARK  status: ('A' for Active; 'I' for Inactive)
REMARK       I    between atoms: N_2  and  C_3 
REMARK    1  A    between atoms: N_2  and  C_28 
REMARK    2  A    between atoms: C_3  and  C_4 
REMARK    3  A    between atoms: C_6  and  N_7 
REMARK       I    between atoms: N_7  and  C_8 
REMARK    4  A    between atoms: C_8  and  C_9 
REMARK    5  A    between atoms: C_9  and  O_10 
REMARK    6  A    between atoms: N_17  and  C_18 
REMARK    7  A    between atoms: C_18  and  C_19 
REMARK    8  A    between atoms: C_19  and  C_20 
REMARK    9  A    between atoms: C_28  and  C_29 
ROOT
HETATM    1  C   UNL     1      39.885 -11.704   2.611  1.00  0.00     0.036 C 
HETATM    2  C   UNL     1      40.994 -11.734   3.460  1.00  0.00     0.049 C 
HETATM    3  C   UNL     1      41.675 -12.928   3.754  1.00  0.00     0.065 C 
HETATM    4  C   UNL     1      41.264 -14.077   3.046  1.00  0.00     0.091 C 
HETATM    5  C   UNL     1      40.109 -14.067   2.253  1.00  0.00     0.088 C 
HETATM    6  N   UNL     1      39.818 -15.313   1.765  1.00  0.00    -0.242 NA
HETATM    7  C   UNL     1      40.803 -16.071   2.167  1.00  0.00     0.210 C 
HETATM    8  N   UNL     1      41.750 -15.362   2.869  1.00  0.00    -0.337 N 
HETATM    9  C   UNL     1      39.410 -12.876   2.023  1.00  0.00     0.051 C 
ENDROOT
BRANCH   1  10
HETATM   10  C   UNL     1      39.273 -10.416   2.203  1.00  0.00     0.253 C 
HETATM   11  N   UNL     1      39.610  -9.833   0.979  1.00  0.00    -0.350 N 
HETATM   12  C   UNL     1      38.811  -8.690   0.552  1.00  0.00     0.153 C 
HETATM   13  O   UNL     1      38.433  -9.943   2.968  1.00  0.00    -0.267 OA
BRANCH  11  14
HETATM   14  C   UNL     1      40.917 -10.014   0.313  1.00  0.00     0.158 C 
BRANCH  14  15
HETATM   15  C   UNL     1      40.854 -10.722  -1.054  1.00  0.00     0.151 A 
HETATM   16  O   UNL     1      41.135 -12.142  -0.878  1.00  0.00    -0.343 OA
HETATM   17  C   UNL     1      40.122 -12.801  -1.506  1.00  0.00     0.075 A 
HETATM   18  C   UNL     1      39.134 -11.974  -2.005  1.00  0.00    -0.022 A 
HETATM   19  C   UNL     1      40.058 -14.173  -1.629  1.00  0.00     0.037 A 
HETATM   20  C   UNL     1      39.464 -10.564  -1.705  1.00  0.00     0.075 A 
HETATM   21  C   UNL     1      38.028 -12.503  -2.649  1.00  0.00     0.010 A 
HETATM   22  C   UNL     1      37.941 -13.892  -2.785  1.00  0.00     0.001 A 
HETATM   23  C   UNL     1      38.952 -14.725  -2.280  1.00  0.00     0.003 A 
ENDBRANCH  14  15
ENDBRANCH  11  14
ENDBRANCH   1  10
BRANCH   3  24
HETATM   24  N   UNL     1      42.689 -12.986   4.727  1.00  0.00    -0.323 N 
HETATM   25  C   UNL     1      42.615 -13.606   5.965  1.00  0.00     0.246 C 
HETATM   26  O   UNL     1      41.631 -14.160   6.452  1.00  0.00    -0.271 OA
HETATM   27  H   UNL     1      43.634 -12.752   4.452  1.00  0.00     0.169 HD
BRANCH  25  28
HETATM   28  C   UNL     1      43.955 -13.606   6.710  1.00  0.00     0.270 C 
BRANCH  28  29
HETATM   29  O   UNL     1      44.097 -12.477   7.571  1.00  0.00    -0.387 OA
HETATM   30  C   UNL     1      45.083 -11.573   7.080  1.00  0.00     0.202 C 
ENDBRANCH  28  29
ENDBRANCH  25  28
ENDBRANCH   3  24
BRANCH   8  31
HETATM   31  C   UNL     1      43.124 -15.822   2.945  1.00  0.00     0.134 C 
BRANCH  31  32
HETATM   32  C   UNL     1      43.543 -16.708   4.120  1.00  0.00     0.058 C 
BRANCH  32  33
HETATM   33  C   UNL     1      43.645 -18.189   3.880  1.00  0.00    -0.057 A 
HETATM   34  C   UNL     1      43.412 -18.743   2.616  1.00  0.00     0.007 A 
HETATM   35  C   UNL     1      43.533 -20.120   2.416  1.00  0.00     0.001 A 
HETATM   36  C   UNL     1      43.909 -20.950   3.469  1.00  0.00     0.000 A 
HETATM   37  C   UNL     1      44.162 -20.409   4.726  1.00  0.00     0.001 A 
HETATM   38  C   UNL     1      44.029 -19.036   4.932  1.00  0.00     0.007 A 
ENDBRANCH  32  33
ENDBRANCH  31  32
ENDBRANCH   8  31
TORSDOF 9
ENDMDL
MODEL 4
REMARK VINA RESULT:      -8.9      2.216      8.724
REMARK  9 active torsions:
REMARK  status: ('A' for Active; 'I' for Inactive)
REMARK       I    between atoms: N_2  and  C_3 
REMARK    1  A    between atoms: N_2  and  C_28 
REMARK    2  A    between atoms: C_3  and  C_4 
REMARK    3  A    between atoms: C_6  and  N_7 
REMARK       I    between atoms: N_7  and  C_8 
REMARK    4  A    between atoms: C_8  and  C_9 
REMARK    5  A    between atoms: C_9  and  O_10 
REMARK    6  A    between atoms: N_17  and  C_18 
REMARK    7  A    between atoms: C_18  and  C_19 
REMARK    8  A    between atoms: C_19  and  C_20 
REMARK    9  A    between atoms: C_28  and  C_29 
ROOT
HETATM    1  C   UNL     1      40.017  -9.685   6.454  1.00  0.00     0.036 C 
HETATM    2  C   UNL     1      41.403  -9.658   6.281  1.00  0.00     0.049 C 
HETATM    3  C   UNL     1      42.155 -10.834   6.106  1.00  0.00     0.065 C 
HETATM    4  C   UNL     1      41.425 -12.035   5.982  1.00  0.00     0.091 C 
HETATM    5  C   UNL     1      40.045 -12.075   6.229  1.00  0.00     0.088 C 
HETATM    6  N   UNL     1      39.559 -13.354   6.185  1.00  0.00    -0.242 NA
HETATM    7  C   UNL     1      40.582 -14.091   5.839  1.00  0.00     0.210 C 
HETATM    8  N   UNL     1      41.712 -13.339   5.617  1.00  0.00    -0.337 N 
HETATM    9  C   UNL     1      39.327 -10.896   6.462  1.00  0.00     0.051 C 
ENDROOT
BRANCH   1  10
HETATM   10  C   UNL     1      39.231  -8.428   6.492  1.00  0.00     0.253 C 
HETATM   11  N   UNL     1      39.022  -7.765   7.704  1.00  0.00    -0.350 N 
HETATM   12  C   UNL     1      38.432  -6.433   7.633  1.00  0.00     0.153 C 
HETATM   13  O   UNL     1      38.837  -7.996   5.410  1.00  0.00    -0.267 OA
BRANCH  11  14
HETATM   14  C   UNL     1      38.969  -8.444   9.016  1.00  0.00     0.158 C 
BRANCH  14  15
HETATM   15  C   UNL     1      40.043  -7.989  10.024  1.00  0.00     0.151 A 
HETATM   16  O   UNL     1      40.303  -9.065  10.973  1.00  0.00    -0.343 OA
HETATM   17  C   UNL     1      41.656  -9.229  10.984  1.00  0.00     0.075 A 
HETATM   18  C   UNL     1      42.328  -8.442  10.070  1.00  0.00    -0.022 A 
HETATM   19  C   UNL     1      42.315 -10.112  11.815  1.00  0.00     0.037 A 
HETATM   20  C   UNL     1      41.361  -7.619   9.312  1.00  0.00     0.075 A 
HETATM   21  C   UNL     1      43.706  -8.517   9.951  1.00  0.00     0.010 A 
HETATM   22  C   UNL     1      44.396  -9.405  10.783  1.00  0.00     0.001 A 
HETATM   23  C   UNL     1      43.705 -10.198  11.712  1.00  0.00     0.003 A 
ENDBRANCH  14  15
ENDBRANCH  11  14
ENDBRANCH   1  10
BRANCH   3  24
HETATM   24  N   UNL     1      43.561 -10.822   6.089  1.00  0.00    -0.323 N 
HETATM   25  C   UNL     1      44.405 -11.343   7.059  1.00  0.00     0.246 C 
HETATM   26  O   UNL     1      44.071 -11.849   8.128  1.00  0.00    -0.271 OA
HETATM   27  H   UNL     1      44.030 -10.618   5.217  1.00  0.00     0.169 HD
BRANCH  25  28
HETATM   28  C   UNL     1      45.881 -11.294   6.649  1.00  0.00     0.270 C 
BRANCH  28  29
HETATM   29  O   UNL     1      46.705 -10.706   7.655  1.00  0.00    -0.387 OA
HETATM   30  C   UNL     1      46.441  -9.314   7.792  1.00  0.00     0.202 C 
ENDBRANCH  28  29
ENDBRANCH  25  28
ENDBRANCH   3  24
BRANCH   8  31
HETATM   31  C   UNL     1      42.767 -13.817   4.744  1.00  0.00     0.134 C 
BRANCH  31  32
HETATM   32  C   UNL     1      42.395 -14.690   3.543  1.00  0.00     0.058 C 
BRANCH  32  33
HETATM   33  C   UNL     1      42.928 -16.096   3.506  1.00  0.00    -0.057 A 
HETATM   34  C   UNL     1      43.649 -16.633   4.579  1.00  0.00     0.007 A 
HETATM   35  C   UNL     1      44.116 -17.948   4.528  1.00  0.00     0.001 A 
HETATM   36  C   UNL     1      43.848 -18.743   3.415  1.00  0.00     0.000 A 
HETATM   37  C   UNL     1      43.116 -18.226   2.350  1.00  0.00     0.001 A 
HETATM   38  C   UNL     1      42.660 -16.909   2.394  1.00  0.00     0.007 A 
ENDBRANCH  32  33
ENDBRANCH  31  32
ENDBRANCH   8  31
TORSDOF 9
ENDMDL
MODEL 5
REMARK VINA RESULT:      -8.9      3.142      7.395
REMARK  9 active torsions:
REMARK  status: ('A' for Active; 'I' for Inactive)
REMARK       I    between atoms: N_2  and  C_3 
REMARK    1  A    between atoms: N_2  and  C_28 
REMARK    2  A    between atoms: C_3  and  C_4 
REMARK    3  A    between atoms: C_6  and  N_7 
REMARK       I    between atoms: N_7  and  C_8 
REMARK    4  A    between atoms: C_8  and  C_9 
REMARK    5  A    between atoms: C_9  and  O_10 
REMARK    6  A    between atoms: N_17  and  C_18 
REMARK    7  A    between atoms: C_18  and  C_19 
REMARK    8  A    between atoms: C_19  and  C_20 
REMARK    9  A    between atoms: C_28  and  C_29 
ROOT
HETATM    1  C   UNL     1      40.055 -10.965   6.123  1.00  0.00     0.036 C 
HETATM    2  C   UNL     1      41.442 -10.843   6.234  1.00  0.00     0.049 C 
HETATM    3  C   UNL     1      42.277 -11.960   6.413  1.00  0.00     0.065 C 
HETATM    4  C   UNL     1      41.657 -13.226   6.344  1.00  0.00     0.091 C 
HETATM    5  C   UNL     1      40.261 -13.350   6.308  1.00  0.00     0.088 C 
HETATM    6  N   UNL     1      39.866 -14.659   6.379  1.00  0.00    -0.242 NA
HETATM    7  C   UNL     1      40.977 -15.347   6.376  1.00  0.00     0.210 C 
HETATM    8  N   UNL     1      42.086 -14.540   6.267  1.00  0.00    -0.337 N 
HETATM    9  C   UNL     1      39.446 -12.218   6.192  1.00  0.00     0.051 C 
ENDROOT
BRANCH   1  10
HETATM   10  C   UNL     1      39.212  -9.791   5.792  1.00  0.00     0.253 C 
HETATM   11  N   UNL     1      38.764  -9.593   4.483  1.00  0.00    -0.350 N 
HETATM   12  C   UNL     1      37.767  -8.548   4.280  1.00  0.00     0.153 C 
HETATM   13  O   UNL     1      38.899  -9.059   6.730  1.00  0.00    -0.267 OA
BRANCH  11  14
HETATM   14  C   UNL     1      39.492 -10.057   3.284  1.00  0.00     0.158 C 
BRANCH  14  15
HETATM   15  C   UNL     1      38.760 -11.132   2.456  1.00  0.00     0.151 A 
HETATM   16  O   UNL     1      39.087 -10.963   1.046  1.00  0.00    -0.343 OA
HETATM   17  C   UNL     1      39.485 -12.191   0.609  1.00  0.00     0.075 A 
HETATM   18  C   UNL     1      39.552 -13.149   1.601  1.00  0.00    -0.022 A 
HETATM   19  C   UNL     1      39.813 -12.470  -0.702  1.00  0.00     0.037 A 
HETATM   20  C   UNL     1      39.165 -12.554   2.898  1.00  0.00     0.075 A 
HETATM   21  C   UNL     1      39.964 -14.439   1.311  1.00  0.00     0.010 A 
HETATM   22  C   UNL     1      40.302 -14.746  -0.011  1.00  0.00     0.001 A 
HETATM   23  C   UNL     1      40.226 -13.767  -1.014  1.00  0.00     0.003 A 
ENDBRANCH  14  15
ENDBRANCH  11  14
ENDBRANCH   1  10
BRANCH   3  24
HETATM   24  N   UNL     1      43.651 -11.828   6.681  1.00  0.00    -0.323 N 
HETATM   25  C   UNL     1      44.640 -11.466   5.778  1.00  0.00     0.246 C 
HETATM   26  O   UNL     1      44.496 -11.257   4.575  1.00  0.00    -0.271 OA
HETATM   27  H   UNL     1      43.950 -11.778   7.645  1.00  0.00     0.169 HD
BRANCH  25  28
HETATM   28  C   UNL     1      46.008 -11.272   6.443  1.00  0.00     0.270 C 
BRANCH  28  29
HETATM   29  O   UNL     1      45.896 -10.832   7.796  1.00  0.00    -0.387 OA
HETATM   30  C   UNL     1      46.149  -9.435   7.907  1.00  0.00     0.202 C 
ENDBRANCH  28  29
ENDBRANCH  25  28
ENDBRANCH   3  24
BRANCH   8  31
HETATM   31  C   UNL     1      43.329 -15.049   5.718  1.00  0.00     0.134 C 
BRANCH  31  32
HETATM   32  C   UNL     1      43.619 -16.549   5.813  1.00  0.00     0.058 C 
BRANCH  32  33
HETATM   33  C   UNL     1      43.501 -17.367   4.557  1.00  0.00    -0.057 A 
HETATM   34  C   UNL     1      44.087 -18.634   4.452  1.00  0.00     0.007 A 
HETATM   35  C   UNL     1      43.945 -19.383   3.282  1.00  0.00     0.001 A 
HETATM   36  C   UNL     1      43.200 -18.882   2.216  1.00  0.00     0.000 A 
HETATM   37  C   UNL     1      42.597 -17.631   2.316  1.00  0.00     0.001 A 
HETATM   38  C   UNL     1      42.748 -16.877   3.479  1.00  0.00     0.007 A 
ENDBRANCH  32  33
ENDBRANCH  31  32
ENDBRANCH   8  31
TORSDOF 9
ENDMDL
MODEL 6
REMARK VINA RESULT:      -8.7      3.402      7.295
REMARK  9 active torsions:
REMARK  status: ('A' for Active; 'I' for Inactive)
REMARK       I    between atoms: N_2  and  C_3 
REMARK    1  A    between atoms: N_2  and  C_28 
REMARK    2  A    between atoms: C_3  and  C_4 
REMARK    3  A    between atoms: C_6  and  N_7 
REMARK       I    between atoms: N_7  and  C_8 
REMARK    4  A    between atoms: C_8  and  C_9 
REMARK    5  A    between atoms: C_9  and  O_10 
REMARK    6  A    between atoms: N_17  and  C_18 
REMARK    7  A    between atoms: C_18  and  C_19 
REMARK    8  A    between atoms: C_19  and  C_20 
REMARK    9  A    between atoms: C_28  and  C_29 
ROOT
HETATM    1  C   UNL     1      40.478  -9.871   3.808  1.00  0.00     0.036 C 
HETATM    2  C   UNL     1      41.825  -9.999   4.155  1.00  0.00     0.049 C 
HETATM    3  C   UNL     1      42.281 -11.016   5.012  1.00  0.00     0.065 C 
HETATM    4  C   UNL     1      41.329 -11.982   5.402  1.00  0.00     0.091 C 
HETATM    5  C   UNL     1      39.966 -11.817   5.118  1.00  0.00     0.088 C 
HETATM    6  N   UNL     1      39.205 -12.795   5.698  1.00  0.00    -0.242 NA
HETATM    7  C   UNL     1      40.065 -13.603   6.262  1.00  0.00     0.210 C 
HETATM    8  N   UNL     1      41.365 -13.211   6.041  1.00  0.00    -0.337 N 
HETATM    9  C   UNL     1      39.528 -10.760   4.312  1.00  0.00     0.051 C 
ENDROOT
BRANCH   1  10
HETATM   10  C   UNL     1      40.044  -8.883   2.792  1.00  0.00     0.253 C 
HETATM   11  N   UNL     1      39.693  -9.302   1.506  1.00  0.00    -0.350 N 
HETATM   12  C   UNL     1      39.072  -8.310   0.636  1.00  0.00     0.153 C 
HETATM   13  O   UNL     1      39.964  -7.712   3.165  1.00  0.00    -0.267 OA
BRANCH  11  14
HETATM   14  C   UNL     1      40.254 -10.501   0.849  1.00  0.00     0.158 C 
BRANCH  14  15
HETATM   15  C   UNL     1      39.268 -11.676   0.695  1.00  0.00     0.151 A 
HETATM   16  O   UNL     1      38.416 -11.445  -0.464  1.00  0.00    -0.343 OA
HETATM   17  C   UNL     1      38.482 -12.586  -1.206  1.00  0.00     0.075 A 
HETATM   18  C   UNL     1      39.367 -13.527  -0.717  1.00  0.00    -0.022 A 
HETATM   19  C   UNL     1      37.753 -12.797  -2.358  1.00  0.00     0.037 A 
HETATM   20  C   UNL     1      40.014 -13.014   0.510  1.00  0.00     0.075 A 
HETATM   21  C   UNL     1      39.559 -14.728  -1.379  1.00  0.00     0.010 A 
HETATM   22  C   UNL     1      38.829 -14.965  -2.549  1.00  0.00     0.001 A 
HETATM   23  C   UNL     1      37.929 -14.005  -3.037  1.00  0.00     0.003 A 
ENDBRANCH  14  15
ENDBRANCH  11  14
ENDBRANCH   1  10
BRANCH   3  24
HETATM   24  N   UNL     1      43.604 -11.053   5.486  1.00  0.00    -0.323 N 
HETATM   25  C   UNL     1      44.019 -10.879   6.798  1.00  0.00     0.246 C 
HETATM   26  O   UNL     1      43.309 -10.604   7.763  1.00  0.00    -0.271 OA
HETATM   27  H   UNL     1      44.318 -11.445   4.888  1.00  0.00     0.169 HD
BRANCH  25  28
HETATM   28  C   UNL     1      45.519 -11.132   6.984  1.00  0.00     0.270 C 
BRANCH  28  29
HETATM   29  O   UNL     1      46.017 -10.577   8.201  1.00  0.00    -0.387 OA
HETATM   30  C   UNL     1      46.391  -9.213   8.032  1.00  0.00     0.202 C 
ENDBRANCH  28  29
ENDBRANCH  25  28
ENDBRANCH   3  24
BRANCH   8  31
HETATM   31  C   UNL     1      42.452 -14.171   6.083  1.00  0.00     0.134 C 
BRANCH  31  32
HETATM   32  C   UNL     1      42.237 -15.558   5.472  1.00  0.00     0.058 C 
BRANCH  32  33
HETATM   33  C   UNL     1      42.619 -15.756   4.031  1.00  0.00    -0.057 A 
HETATM   34  C   UNL     1      42.875 -14.670   3.186  1.00  0.00     0.007 A 
HETATM   35  C   UNL     1      43.249 -14.882   1.857  1.00  0.00     0.001 A 
HETATM   36  C   UNL     1      43.391 -16.179   1.369  1.00  0.00     0.000 A 
HETATM   37  C   UNL     1      43.158 -17.268   2.205  1.00  0.00     0.001 A 
HETATM   38  C   UNL     1      42.772 -17.058   3.528  1.00  0.00     0.007 A 
ENDBRANCH  32  33
ENDBRANCH  31  32
ENDBRANCH   8  31
TORSDOF 9
ENDMDL
MODEL 7
REMARK VINA RESULT:      -8.5      1.990      9.316
REMARK  9 active torsions:
REMARK  status: ('A' for Active; 'I' for Inactive)
REMARK       I    between atoms: N_2  and  C_3 
REMARK    1  A    between atoms: N_2  and  C_28 
REMARK    2  A    between atoms: C_3  and  C_4 
REMARK    3  A    between atoms: C_6  and  N_7 
REMARK       I    between atoms: N_7  and  C_8 
REMARK    4  A    between atoms: C_8  and  C_9 
REMARK    5  A    between atoms: C_9  and  O_10 
REMARK    6  A    between atoms: N_17  and  C_18 
REMARK    7  A    between atoms: C_18  and  C_19 
REMARK    8  A    between atoms: C_19  and  C_20 
REMARK    9  A    between atoms: C_28  and  C_29 
ROOT
HETATM    1  C   UNL     1      41.895  -9.175   6.991  1.00  0.00     0.036 C 
HETATM    2  C   UNL     1      41.154  -9.878   6.038  1.00  0.00     0.049 C 
HETATM    3  C   UNL     1      41.552 -11.143   5.570  1.00  0.00     0.065 C 
HETATM    4  C   UNL     1      42.668 -11.726   6.206  1.00  0.00     0.091 C 
HETATM    5  C   UNL     1      43.455 -10.996   7.108  1.00  0.00     0.088 C 
HETATM    6  N   UNL     1      44.558 -11.701   7.505  1.00  0.00    -0.242 NA
HETATM    7  C   UNL     1      44.431 -12.873   6.940  1.00  0.00     0.210 C 
HETATM    8  N   UNL     1      43.266 -12.976   6.216  1.00  0.00    -0.337 N 
HETATM    9  C   UNL     1      43.071  -9.712   7.513  1.00  0.00     0.051 C 
ENDROOT
BRANCH   1  10
HETATM   10  C   UNL     1      41.381  -7.912   7.573  1.00  0.00     0.253 C 
HETATM   11  N   UNL     1      40.787  -7.910   8.838  1.00  0.00    -0.350 N 
HETATM   12  C   UNL     1      40.508  -6.607   9.432  1.00  0.00     0.153 C 
HETATM   13  O   UNL     1      41.559  -6.891   6.909  1.00  0.00    -0.267 OA
BRANCH  11  14
HETATM   14  C   UNL     1      40.074  -9.068   9.415  1.00  0.00     0.158 C 
BRANCH  14  15
HETATM   15  C   UNL     1      40.661  -9.597  10.738  1.00  0.00     0.151 A 
HETATM   16  O   UNL     1      42.037  -9.136  10.877  1.00  0.00    -0.343 OA
HETATM   17  C   UNL     1      42.117  -8.574  12.115  1.00  0.00     0.075 A 
HETATM   18  C   UNL     1      40.913  -8.521  12.790  1.00  0.00    -0.022 A 
HETATM   19  C   UNL     1      43.284  -8.079  12.660  1.00  0.00     0.037 A 
HETATM   20  C   UNL     1      39.844  -9.104  11.951  1.00  0.00     0.075 A 
HETATM   21  C   UNL     1      40.834  -7.955  14.052  1.00  0.00     0.010 A 
HETATM   22  C   UNL     1      42.005  -7.446  14.624  1.00  0.00     0.001 A 
HETATM   23  C   UNL     1      43.225  -7.509  13.934  1.00  0.00     0.003 A 
ENDBRANCH  14  15
ENDBRANCH  11  14
ENDBRANCH   1  10
BRANCH   3  24
HETATM   24  N   UNL     1      40.898 -11.781   4.501  1.00  0.00    -0.323 N 
HETATM   25  C   UNL     1      39.742 -12.545   4.574  1.00  0.00     0.246 C 
HETATM   26  O   UNL     1      39.125 -12.846   5.594  1.00  0.00    -0.271 OA
HETATM   27  H   UNL     1      41.139 -11.509   3.558  1.00  0.00     0.169 HD
BRANCH  25  28
HETATM   28  C   UNL     1      39.221 -12.965   3.195  1.00  0.00     0.270 C 
BRANCH  28  29
HETATM   29  O   UNL     1      39.733 -14.232   2.784  1.00  0.00    -0.387 OA
HETATM   30  C   UNL     1      40.457 -14.124   1.562  1.00  0.00     0.202 C 
ENDBRANCH  28  29
ENDBRANCH  25  28
ENDBRANCH   3  24
BRANCH   8  31
HETATM   31  C   UNL     1      42.654 -14.267   5.964  1.00  0.00     0.134 C 
BRANCH  31  32
HETATM   32  C   UNL     1      43.525 -15.523   6.033  1.00  0.00     0.058 C 
BRANCH  32  33
HETATM   33  C   UNL     1      43.510 -16.453   4.852  1.00  0.00    -0.057 A 
HETATM   34  C   UNL     1      42.925 -16.081   3.636  1.00  0.00     0.007 A 
HETATM   35  C   UNL     1      42.943 -16.955   2.547  1.00  0.00     0.001 A 
HETATM   36  C   UNL     1      43.564 -18.198   2.657  1.00  0.00     0.000 A 
HETATM   37  C   UNL     1      44.166 -18.572   3.855  1.00  0.00     0.001 A 
HETATM   38  C   UNL     1      44.138 -17.705   4.947  1.00  0.00     0.007 A 
ENDBRANCH  32  33
ENDBRANCH  31  32
ENDBRANCH   8  31
TORSDOF 9
ENDMDL
MODEL 8
REMARK VINA RESULT:      -8.4      2.140      9.948
REMARK  9 active torsions:
REMARK  status: ('A' for Active; 'I' for Inactive)
REMARK       I    between atoms: N_2  and  C_3 
REMARK    1  A    between atoms: N_2  and  C_28 
REMARK    2  A    between atoms: C_3  and  C_4 
REMARK    3  A    between atoms: C_6  and  N_7 
REMARK       I    between atoms: N_7  and  C_8 
REMARK    4  A    between atoms: C_8  and  C_9 
REMARK    5  A    between atoms: C_9  and  O_10 
REMARK    6  A    between atoms: N_17  and  C_18 
REMARK    7  A    between atoms: C_18  and  C_19 
REMARK    8  A    between atoms: C_19  and  C_20 
REMARK    9  A    between atoms: C_28  and  C_29 
ROOT
HETATM    1  C   UNL     1      43.743 -12.398   6.040  1.00  0.00     0.036 C 
HETATM    2  C   UNL     1      43.883 -13.784   6.130  1.00  0.00     0.049 C 
HETATM    3  C   UNL     1      42.855 -14.665   5.749  1.00  0.00     0.065 C 
HETATM    4  C   UNL     1      41.720 -14.082   5.147  1.00  0.00     0.091 C 
HETATM    5  C   UNL     1      41.543 -12.691   5.122  1.00  0.00     0.088 C 
HETATM    6  N   UNL     1      40.321 -12.344   4.614  1.00  0.00    -0.242 NA
HETATM    7  C   UNL     1      39.773 -13.474   4.251  1.00  0.00     0.210 C 
HETATM    8  N   UNL     1      40.606 -14.547   4.466  1.00  0.00    -0.337 N 
HETATM    9  C   UNL     1      42.558 -11.835   5.565  1.00  0.00     0.051 C 
ENDROOT
BRANCH   1  10
HETATM   10  C   UNL     1      44.889 -11.497   6.311  1.00  0.00     0.253 C 
HETATM   11  N   UNL     1      45.172 -11.091   7.618  1.00  0.00    -0.350 N 
HETATM   12  C   UNL     1      46.433 -10.391   7.831  1.00  0.00     0.153 C 
HETATM   13  O   UNL     1      45.583 -11.189   5.343  1.00  0.00    -0.267 OA
BRANCH  11  14
HETATM   14  C   UNL     1      44.150 -10.955   8.677  1.00  0.00     0.158 C 
BRANCH  14  15
HETATM   15  C   UNL     1      43.947  -9.519   9.200  1.00  0.00     0.151 A 
HETATM   16  O   UNL     1      42.520  -9.232   9.283  1.00  0.00    -0.343 OA
HETATM   17  C   UNL     1      42.312  -8.751  10.540  1.00  0.00     0.075 A 
HETATM   18  C   UNL     1      43.433  -8.775  11.347  1.00  0.00    -0.022 A 
HETATM   19  C   UNL     1      41.093  -8.293  10.996  1.00  0.00     0.037 A 
HETATM   20  C   UNL     1      44.578  -9.335  10.596  1.00  0.00     0.075 A 
HETATM   21  C   UNL     1      43.369  -8.339  12.660  1.00  0.00     0.010 A 
HETATM   22  C   UNL     1      42.143  -7.869  13.144  1.00  0.00     0.001 A 
HETATM   23  C   UNL     1      41.010  -7.844  12.316  1.00  0.00     0.003 A 
ENDBRANCH  14  15
ENDBRANCH  11  14
ENDBRANCH   1  10
BRANCH   3  24
HETATM   24  N   UNL     1      42.933 -16.048   5.985  1.00  0.00    -0.323 N 
HETATM   25  C   UNL     1      43.497 -17.001   5.148  1.00  0.00     0.246 C 
HETATM   26  O   UNL     1      43.970 -16.809   4.030  1.00  0.00    -0.271 OA
HETATM   27  H   UNL     1      42.768 -16.387   6.923  1.00  0.00     0.169 HD
BRANCH  25  28
HETATM   28  C   UNL     1      43.545 -18.395   5.785  1.00  0.00     0.270 C 
BRANCH  28  29
HETATM   29  O   UNL     1      44.511 -19.242   5.163  1.00  0.00    -0.387 OA
HETATM   30  C   UNL     1      43.942 -20.496   4.802  1.00  0.00     0.202 C 
ENDBRANCH  28  29
ENDBRANCH  25  28
ENDBRANCH   3  24
BRANCH   8  31
HETATM   31  C   UNL     1      40.471 -15.766   3.691  1.00  0.00     0.134 C 
BRANCH  31  32
HETATM   32  C   UNL     1      41.222 -15.884   2.363  1.00  0.00     0.058 C 
BRANCH  32  33
HETATM   33  C   UNL     1      40.850 -14.933   1.259  1.00  0.00    -0.057 A 
HETATM   34  C   UNL     1      41.462 -13.681   1.135  1.00  0.00     0.007 A 
HETATM   35  C   UNL     1      41.113 -12.825   0.089  1.00  0.00     0.001 A 
HETATM   36  C   UNL     1      40.167 -13.221  -0.854  1.00  0.00     0.000 A 
HETATM   37  C   UNL     1      39.565 -14.472  -0.752  1.00  0.00     0.001 A 
HETATM   38  C   UNL     1      39.903 -15.323   0.299  1.00  0.00     0.007 A 
ENDBRANCH  32  33
ENDBRANCH  31  32
ENDBRANCH   8  31
TORSDOF 9
ENDMDL
MODEL 9
REMARK VINA RESULT:      -8.4      2.125      3.401
REMARK  9 active torsions:
REMARK  status: ('A' for Active; 'I' for Inactive)
REMARK       I    between atoms: N_2  and  C_3 
REMARK    1  A    between atoms: N_2  and  C_28 
REMARK    2  A    between atoms: C_3  and  C_4 
REMARK    3  A    between atoms: C_6  and  N_7 
REMARK       I    between atoms: N_7  and  C_8 
REMARK    4  A    between atoms: C_8  and  C_9 
REMARK    5  A    between atoms: C_9  and  O_10 
REMARK    6  A    between atoms: N_17  and  C_18 
REMARK    7  A    between atoms: C_18  and  C_19 
REMARK    8  A    between atoms: C_19  and  C_20 
REMARK    9  A    between atoms: C_28  and  C_29 
ROOT
HETATM    1  C   UNL     1      40.711 -11.795   3.915  1.00  0.00     0.036 C 
HETATM    2  C   UNL     1      41.645 -12.028   4.927  1.00  0.00     0.049 C 
HETATM    3  C   UNL     1      42.219 -10.980   5.669  1.00  0.00     0.065 C 
HETATM    4  C   UNL     1      41.707  -9.687   5.429  1.00  0.00     0.091 C 
HETATM    5  C   UNL     1      40.827  -9.439   4.366  1.00  0.00     0.088 C 
HETATM    6  N   UNL     1      40.560  -8.104   4.230  1.00  0.00    -0.242 NA
HETATM    7  C   UNL     1      41.184  -7.532   5.226  1.00  0.00     0.210 C 
HETATM    8  N   UNL     1      41.820  -8.446   6.033  1.00  0.00    -0.337 N 
HETATM    9  C   UNL     1      40.316 -10.495   3.601  1.00  0.00     0.051 C 
ENDROOT
BRANCH   1  10
HETATM   10  C   UNL     1      40.015 -12.921   3.247  1.00  0.00     0.253 C 
HETATM   11  N   UNL     1      40.737 -13.843   2.485  1.00  0.00    -0.350 N 
HETATM   12  C   UNL     1      40.023 -15.036   2.045  1.00  0.00     0.153 C 
HETATM   13  O   UNL     1      38.805 -13.014   3.451  1.00  0.00    -0.267 OA
BRANCH  11  14
HETATM   14  C   UNL     1      41.991 -13.519   1.772  1.00  0.00     0.158 C 
BRANCH  14  15
HETATM   15  C   UNL     1      43.221 -14.328   2.228  1.00  0.00     0.151 A 
HETATM   16  O   UNL     1      43.117 -14.608   3.654  1.00  0.00    -0.343 OA
HETATM   17  C   UNL     1      43.316 -15.949   3.785  1.00  0.00     0.075 A 
HETATM   18  C   UNL     1      43.448 -16.620   2.584  1.00  0.00    -0.022 A 
HETATM   19  C   UNL     1      43.367 -16.604   4.998  1.00  0.00     0.037 A 
HETATM   20  C   UNL     1      43.330 -15.664   1.462  1.00  0.00     0.075 A 
HETATM   21  C   UNL     1      43.632 -17.992   2.558  1.00  0.00     0.010 A 
HETATM   22  C   UNL     1      43.687 -18.678   3.776  1.00  0.00     0.001 A 
HETATM   23  C   UNL     1      43.557 -17.988   4.991  1.00  0.00     0.003 A 
ENDBRANCH  14  15
ENDBRANCH  11  14
ENDBRANCH   1  10
BRANCH   3  24
HETATM   24  N   UNL     1      43.270 -11.199   6.576  1.00  0.00    -0.323 N 
HETATM   25  C   UNL     1      44.625 -11.239   6.281  1.00  0.00     0.246 C 
HETATM   26  O   UNL     1      45.136 -11.152   5.166  1.00  0.00    -0.271 OA
HETATM   27  H   UNL     1      43.078 -11.112   7.565  1.00  0.00     0.169 HD
BRANCH  25  28
HETATM   28  C   UNL     1      45.502 -11.348   7.533  1.00  0.00     0.270 C 
BRANCH  28  29
HETATM   29  O   UNL     1      46.561 -10.391   7.538  1.00  0.00    -0.387 OA
HETATM   30  C   UNL     1      46.138  -9.154   8.102  1.00  0.00     0.202 C 
ENDBRANCH  28  29
ENDBRANCH  25  28
ENDBRANCH   3  24
BRANCH   8  31
HETATM   31  C   UNL     1      42.101  -8.146   7.424  1.00  0.00     0.134 C 
BRANCH  31  32
HETATM   32  C   UNL     1      41.267  -8.827   8.511  1.00  0.00     0.058 C 
BRANCH  32  33
HETATM   33  C   UNL     1      41.875  -8.964   9.880  1.00  0.00    -0.057 A 
HETATM   34  C   UNL     1      43.176  -8.525  10.149  1.00  0.00     0.007 A 
HETATM   35  C   UNL     1      43.710  -8.645  11.434  1.00  0.00     0.001 A 
HETATM   36  C   UNL     1      42.941  -9.184  12.464  1.00  0.00     0.000 A 
HETATM   37  C   UNL     1      41.639  -9.607  12.212  1.00  0.00     0.001 A 
HETATM   38  C   UNL     1      41.109  -9.499  10.927  1.00  0.00     0.007 A 
ENDBRANCH  32  33
ENDBRANCH  31  32
ENDBRANCH   8  31
TORSDOF 9
ENDMDL
MODEL 10
REMARK VINA RESULT:      -8.4      2.442      4.991
REMARK  9 active torsions:
REMARK  status: ('A' for Active; 'I' for Inactive)
REMARK       I    between atoms: N_2  and  C_3 
REMARK    1  A    between atoms: N_2  and  C_28 
REMARK    2  A    between atoms: C_3  and  C_4 
REMARK    3  A    between atoms: C_6  and  N_7 
REMARK       I    between atoms: N_7  and  C_8 
REMARK    4  A    between atoms: C_8  and  C_9 
REMARK    5  A    between atoms: C_9  and  O_10 
REMARK    6  A    between atoms: N_17  and  C_18 
REMARK    7  A    between atoms: C_18  and  C_19 
REMARK    8  A    between atoms: C_19  and  C_20 
REMARK    9  A    between atoms: C_28  and  C_29 
ROOT
HETATM    1  C   UNL     1      41.273 -13.736   4.793  1.00  0.00     0.036 C 
HETATM    2  C   UNL     1      42.479 -13.168   5.211  1.00  0.00     0.049 C 
HETATM    3  C   UNL     1      42.537 -11.898   5.812  1.00  0.00     0.065 C 
HETATM    4  C   UNL     1      41.301 -11.278   6.091  1.00  0.00     0.091 C 
HETATM    5  C   UNL     1      40.096 -11.809   5.609  1.00  0.00     0.088 C 
HETATM    6  N   UNL     1      39.036 -10.986   5.878  1.00  0.00    -0.242 NA
HETATM    7  C   UNL     1      39.539 -10.007   6.583  1.00  0.00     0.210 C 
HETATM    8  N   UNL     1      40.884 -10.175   6.818  1.00  0.00    -0.337 N 
HETATM    9  C   UNL     1      40.071 -13.048   4.958  1.00  0.00     0.051 C 
ENDROOT
BRANCH   1  10
HETATM   10  C   UNL     1      41.221 -15.131   4.296  1.00  0.00     0.253 C 
HETATM   11  N   UNL     1      41.858 -15.478   3.102  1.00  0.00    -0.350 N 
HETATM   12  C   UNL     1      41.949 -16.900   2.793  1.00  0.00     0.153 C 
HETATM   13  O   UNL     1      40.644 -15.947   5.015  1.00  0.00    -0.267 OA
BRANCH  11  14
HETATM   14  C   UNL     1      42.068 -14.541   1.979  1.00  0.00     0.158 C 
BRANCH  14  15
HETATM   15  C   UNL     1      40.776 -13.969   1.362  1.00  0.00     0.151 A 
HETATM   16  O   UNL     1      41.114 -12.880   0.454  1.00  0.00    -0.343 OA
HETATM   17  C   UNL     1      40.473 -13.160  -0.715  1.00  0.00     0.075 A 
HETATM   18  C   UNL     1      39.816 -14.375  -0.722  1.00  0.00    -0.022 A 
HETATM   19  C   UNL     1      40.480 -12.327  -1.815  1.00  0.00     0.037 A 
HETATM   20  C   UNL     1      40.001 -15.051   0.580  1.00  0.00     0.075 A 
HETATM   21  C   UNL     1      39.138 -14.807  -1.851  1.00  0.00     0.010 A 
HETATM   22  C   UNL     1      39.133 -13.978  -2.978  1.00  0.00     0.001 A 
HETATM   23  C   UNL     1      39.799 -12.743  -2.961  1.00  0.00     0.003 A 
ENDBRANCH  14  15
ENDBRANCH  11  14
ENDBRANCH   1  10
BRANCH   3  24
HETATM   24  N   UNL     1      43.759 -11.260   6.088  1.00  0.00    -0.323 N 
HETATM   25  C   UNL     1      44.505 -11.367   7.253  1.00  0.00     0.246 C 
HETATM   26  O   UNL     1      44.197 -11.990   8.267  1.00  0.00    -0.271 OA
HETATM   27  H   UNL     1      44.273 -10.850   5.320  1.00  0.00     0.169 HD
BRANCH  25  28
HETATM   28  C   UNL     1      45.859 -10.656   7.158  1.00  0.00     0.270 C 
BRANCH  28  29
HETATM   29  O   UNL     1      46.197  -9.967   8.362  1.00  0.00    -0.387 OA
HETATM   30  C   UNL     1      45.517  -8.719   8.451  1.00  0.00     0.202 C 
ENDBRANCH  28  29
ENDBRANCH  25  28
ENDBRANCH   3  24
BRANCH   8  31
HETATM   31  C   UNL     1      41.525  -9.559   7.965  1.00  0.00     0.134 C 
BRANCH  31  32
HETATM   32  C   UNL     1      40.677  -9.230   9.196  1.00  0.00     0.058 C 
BRANCH  32  33
HETATM   33  C   UNL     1      41.336  -9.321  10.545  1.00  0.00    -0.057 A 
HETATM   34  C   UNL     1      42.674  -8.955  10.732  1.00  0.00     0.007 A 
HETATM   35  C   UNL     1      43.256  -9.029  11.999  1.00  0.00     0.001 A 
HETATM   36  C   UNL     1      42.501  -9.448  13.093  1.00  0.00     0.000 A 
HETATM   37  C   UNL     1      41.164  -9.796  12.923  1.00  0.00     0.001 A 
HETATM   38  C   UNL     1      40.585  -9.735  11.656  1.00  0.00     0.007 A 
ENDBRANCH  32  33
ENDBRANCH  31  32
ENDBRANCH   8  31
TORSDOF 9
ENDMDL
