MODEL 1
REMARK VINA RESULT:      -8.7      0.000      0.000
REMARK  8 active torsions:
REMARK  status: ('A' for Active; 'I' for Inactive)
REMARK    1  A    between atoms: C_5  and  S_6 
REMARK    2  A    between atoms: S_6  and  C_7 
REMARK    3  A    between atoms: C_7  and  C_8 
REMARK       I    between atoms: C_8  and  N_9 
REMARK    4  A    between atoms: N_9  and  N_10 
REMARK       I    between atoms: N_10  and  C_11 
REMARK    5  A    between atoms: C_11  and  C_12 
REMARK    6  A    between atoms: C_15  and  O_16 
REMARK    7  A    between atoms: C_23  and  C_24 
REMARK    8  A    between atoms: C_24  and  C_25 
ROOT
HETATM    1  C   UNL     1      44.620 -11.979   6.884  1.00  0.00     0.187 C 
ENDROOT
BRANCH   1   2
HETATM    2  S   UNL     1      43.620 -11.484   5.458  1.00  0.00    -0.083 SA
BRANCH   2   3
HETATM    3  C   UNL     1      42.603 -12.863   5.255  1.00  0.00     0.167 A 
HETATM    4  N   UNL     1      41.848 -13.355   6.276  1.00  0.00    -0.337 N 
HETATM    5  C   UNL     1      41.202 -14.476   5.818  1.00  0.00     0.032 A 
HETATM    6  H   UNL     1      41.755 -12.929   7.191  1.00  0.00     0.168 HD
HETATM    7  C   UNL     1      40.286 -15.273   6.661  1.00  0.00     0.070 C 
HETATM    8  C   UNL     1      41.631 -14.617   4.506  1.00  0.00     0.063 A 
HETATM    9  N   UNL     1      42.483 -13.581   4.167  1.00  0.00    -0.227 NA
BRANCH   8  10
HETATM   10  C   UNL     1      41.268 -15.659   3.503  1.00  0.00     0.100 C 
BRANCH  10  11
HETATM   11  C   UNL     1      42.334 -16.724   3.591  1.00  0.00    -0.052 A 
HETATM   12  C   UNL     1      42.626 -17.545   2.493  1.00  0.00     0.007 A 
HETATM   13  C   UNL     1      43.614 -18.528   2.583  1.00  0.00     0.001 A 
HETATM   14  C   UNL     1      44.323 -18.699   3.772  1.00  0.00     0.000 A 
HETATM   15  C   UNL     1      44.042 -17.891   4.871  1.00  0.00     0.001 A 
HETATM   16  C   UNL     1      43.054 -16.911   4.783  1.00  0.00     0.007 A 
ENDBRANCH  10  11
ENDBRANCH   8  10
ENDBRANCH   2   3
ENDBRANCH   1   2
BRANCH   1  17
HETATM   17  C   UNL     1      44.487 -10.953   7.992  1.00  0.00     0.245 C 
HETATM   18  N   UNL     1      43.558 -11.264   8.966  1.00  0.00    -0.267 N 
HETATM   19  H   UNL     1      42.773 -11.886   8.760  1.00  0.00     0.190 HD
HETATM   20  O   UNL     1      45.144  -9.909   8.028  1.00  0.00    -0.271 OA
BRANCH  18  21
HETATM   21  N   UNL     1      43.275 -10.255   9.908  1.00  0.00    -0.263 N 
HETATM   22  C   UNL     1      43.528 -10.542  11.237  1.00  0.00     0.270 C 
HETATM   23  O   UNL     1      44.126 -11.555  11.588  1.00  0.00    -0.266 OA
HETATM   24  H   UNL     1      42.526  -9.617   9.643  1.00  0.00     0.190 HD
BRANCH  22  25
HETATM   25  C   UNL     1      42.992  -9.573  12.233  1.00  0.00     0.033 A 
HETATM   26  C   UNL     1      41.910  -9.962  13.029  1.00  0.00     0.020 A 
HETATM   27  C   UNL     1      41.377  -9.076  13.968  1.00  0.00     0.038 A 
HETATM   28  C   UNL     1      41.917  -7.797  14.131  1.00  0.00     0.068 A 
HETATM   29  C   UNL     1      43.006  -7.412  13.348  1.00  0.00     0.038 A 
HETATM   30  C   UNL     1      43.546  -8.297  12.405  1.00  0.00     0.020 A 
BRANCH  28  31
HETATM   31  O   UNL     1      41.301  -7.032  15.080  1.00  0.00    -0.356 OA
HETATM   32  C   UNL     1      42.083  -6.637  16.201  1.00  0.00     0.210 C 
ENDBRANCH  28  31
ENDBRANCH  22  25
ENDBRANCH  18  21
ENDBRANCH   1  17
TORSDOF 8
ENDMDL
MODEL 2
REMARK VINA RESULT:      -8.7      3.413      5.651
REMARK  8 active torsions:
REMARK  status: ('A' for Active; 'I' for Inactive)
REMARK    1  A    between atoms: C_5  and  S_6 
REMARK    2  A    between atoms: S_6  and  C_7 
REMARK    3  A    between atoms: C_7  and  C_8 
REMARK       I    between atoms: C_8  and  N_9 
REMARK    4  A    between atoms: N_9  and  N_10 
REMARK       I    between atoms: N_10  and  C_11 
REMARK    5  A    between atoms: C_11  and  C_12 
REMARK    6  A    between atoms: C_15  and  O_16 
REMARK    7  A    between atoms: C_23  and  C_24 
REMARK    8  A    between atoms: C_24  and  C_25 
ROOT
HETATM    1  C   UNL     1      40.748 -13.590   0.988  1.00  0.00     0.187 C 
ENDROOT
BRANCH   1   2
HETATM    2  S   UNL     1      40.052 -15.241   1.248  1.00  0.00    -0.083 SA
BRANCH   2   3
HETATM    3  C   UNL     1      40.932 -15.771   2.635  1.00  0.00     0.167 A 
HETATM    4  N   UNL     1      40.370 -15.798   3.876  1.00  0.00    -0.337 N 
HETATM    5  C   UNL     1      41.334 -16.208   4.763  1.00  0.00     0.032 A 
HETATM    6  H   UNL     1      39.399 -15.593   4.081  1.00  0.00     0.168 HD
HETATM    7  C   UNL     1      41.075 -16.359   6.211  1.00  0.00     0.070 C 
HETATM    8  C   UNL     1      42.469 -16.395   3.989  1.00  0.00     0.063 A 
HETATM    9  N   UNL     1      42.186 -16.144   2.657  1.00  0.00    -0.227 NA
BRANCH   8  10
HETATM   10  C   UNL     1      43.831 -16.837   4.404  1.00  0.00     0.100 C 
BRANCH  10  11
HETATM   11  C   UNL     1      43.855 -18.339   4.253  1.00  0.00    -0.052 A 
HETATM   12  C   UNL     1      43.916 -19.176   5.377  1.00  0.00     0.007 A 
HETATM   13  C   UNL     1      43.938 -20.564   5.227  1.00  0.00     0.001 A 
HETATM   14  C   UNL     1      43.898 -21.131   3.954  1.00  0.00     0.000 A 
HETATM   15  C   UNL     1      43.840 -20.312   2.829  1.00  0.00     0.001 A 
HETATM   16  C   UNL     1      43.820 -18.924   2.976  1.00  0.00     0.007 A 
ENDBRANCH  10  11
ENDBRANCH   8  10
ENDBRANCH   2   3
ENDBRANCH   1   2
BRANCH   1  17
HETATM   17  C   UNL     1      40.909 -12.879   2.317  1.00  0.00     0.245 C 
HETATM   18  N   UNL     1      42.199 -12.485   2.615  1.00  0.00    -0.267 N 
HETATM   19  H   UNL     1      43.001 -12.966   2.202  1.00  0.00     0.190 HD
HETATM   20  O   UNL     1      39.969 -12.671   3.091  1.00  0.00    -0.271 OA
BRANCH  18  21
HETATM   21  N   UNL     1      42.419 -11.989   3.915  1.00  0.00    -0.263 N 
HETATM   22  C   UNL     1      43.703 -11.578   4.226  1.00  0.00     0.270 C 
HETATM   23  O   UNL     1      44.585 -11.482   3.379  1.00  0.00    -0.266 OA
HETATM   24  H   UNL     1      41.803 -12.370   4.631  1.00  0.00     0.190 HD
BRANCH  22  25
HETATM   25  C   UNL     1      43.975 -11.298   5.663  1.00  0.00     0.033 A 
HETATM   26  C   UNL     1      45.276 -11.471   6.144  1.00  0.00     0.020 A 
HETATM   27  C   UNL     1      45.565 -11.226   7.489  1.00  0.00     0.038 A 
HETATM   28  C   UNL     1      44.566 -10.800   8.368  1.00  0.00     0.068 A 
HETATM   29  C   UNL     1      43.269 -10.613   7.887  1.00  0.00     0.038 A 
HETATM   30  C   UNL     1      42.973 -10.856   6.539  1.00  0.00     0.020 A 
BRANCH  28  31
HETATM   31  O   UNL     1      44.982 -10.599   9.654  1.00  0.00    -0.356 OA
HETATM   32  C   UNL     1      43.974 -10.375  10.632  1.00  0.00     0.210 C 
ENDBRANCH  28  31
ENDBRANCH  22  25
ENDBRANCH  18  21
ENDBRANCH   1  17
TORSDOF 8
ENDMDL
MODEL 3
REMARK VINA RESULT:      -8.5      1.422      2.206
REMARK  8 active torsions:
REMARK  status: ('A' for Active; 'I' for Inactive)
REMARK    1  A    between atoms: C_5  and  S_6 
REMARK    2  A    between atoms: S_6  and  C_7 
REMARK    3  A    between atoms: C_7  and  C_8 
REMARK       I    between atoms: C_8  and  N_9 
REMARK    4  A    between atoms: N_9  and  N_10 
REMARK       I    between atoms: N_10  and  C_11 
REMARK    5  A    between atoms: C_11  and  C_12 
REMARK    6  A    between atoms: C_15  and  O_16 
REMARK    7  A    between atoms: C_23  and  C_24 
REMARK    8  A    between atoms: C_24  and  C_25 
ROOT
HETATM    1  C   UNL     1      43.600 -12.318   6.039  1.00  0.00     0.187 C 
ENDROOT
BRANCH   1   2
HETATM    2  S   UNL     1      42.938 -13.899   6.624  1.00  0.00    -0.083 SA
BRANCH   2   3
HETATM    3  C   UNL     1      42.579 -14.694   5.136  1.00  0.00     0.167 A 
HETATM    4  N   UNL     1      41.304 -14.800   4.667  1.00  0.00    -0.337 N 
HETATM    5  C   UNL     1      41.344 -15.529   3.505  1.00  0.00     0.032 A 
HETATM    6  H   UNL     1      40.489 -14.372   5.090  1.00  0.00     0.168 HD
HETATM    7  C   UNL     1      40.136 -15.838   2.712  1.00  0.00     0.070 C 
HETATM    8  C   UNL     1      42.683 -15.850   3.337  1.00  0.00     0.063 A 
HETATM    9  N   UNL     1      43.440 -15.293   4.353  1.00  0.00    -0.227 NA
BRANCH   8  10
HETATM   10  C   UNL     1      43.335 -16.634   2.249  1.00  0.00     0.100 C 
BRANCH  10  11
HETATM   11  C   UNL     1      43.528 -18.031   2.788  1.00  0.00    -0.052 A 
HETATM   12  C   UNL     1      44.064 -18.243   4.067  1.00  0.00     0.007 A 
HETATM   13  C   UNL     1      44.238 -19.539   4.558  1.00  0.00     0.001 A 
HETATM   14  C   UNL     1      43.877 -20.637   3.776  1.00  0.00     0.000 A 
HETATM   15  C   UNL     1      43.346 -20.440   2.504  1.00  0.00     0.001 A 
HETATM   16  C   UNL     1      43.173 -19.146   2.012  1.00  0.00     0.007 A 
ENDBRANCH  10  11
ENDBRANCH   8  10
ENDBRANCH   2   3
ENDBRANCH   1   2
BRANCH   1  17
HETATM   17  C   UNL     1      43.255 -11.216   7.019  1.00  0.00     0.245 C 
HETATM   18  N   UNL     1      43.717 -11.415   8.306  1.00  0.00    -0.267 N 
HETATM   19  H   UNL     1      43.903 -12.358   8.654  1.00  0.00     0.190 HD
HETATM   20  O   UNL     1      42.602 -10.215   6.710  1.00  0.00    -0.271 OA
BRANCH  18  21
HETATM   21  N   UNL     1      43.262 -10.508   9.284  1.00  0.00    -0.263 N 
HETATM   22  C   UNL     1      43.999 -10.414  10.451  1.00  0.00     0.270 C 
HETATM   23  O   UNL     1      45.091 -10.957  10.583  1.00  0.00    -0.266 OA
HETATM   24  H   UNL     1      42.256 -10.346   9.284  1.00  0.00     0.190 HD
BRANCH  22  25
HETATM   25  C   UNL     1      43.372  -9.650  11.565  1.00  0.00     0.033 A 
HETATM   26  C   UNL     1      43.463  -8.254  11.553  1.00  0.00     0.020 A 
HETATM   27  C   UNL     1      42.894  -7.506  12.587  1.00  0.00     0.038 A 
HETATM   28  C   UNL     1      42.222  -8.136  13.637  1.00  0.00     0.068 A 
HETATM   29  C   UNL     1      42.116  -9.527  13.643  1.00  0.00     0.038 A 
HETATM   30  C   UNL     1      42.685 -10.283  12.609  1.00  0.00     0.020 A 
BRANCH  28  31
HETATM   31  O   UNL     1      41.715  -7.288  14.582  1.00  0.00    -0.356 OA
HETATM   32  C   UNL     1      41.386  -7.852  15.846  1.00  0.00     0.210 C 
ENDBRANCH  28  31
ENDBRANCH  22  25
ENDBRANCH  18  21
ENDBRANCH   1  17
TORSDOF 8
ENDMDL
MODEL 4
REMARK VINA RESULT:      -8.4      1.404      1.958
REMARK  8 active torsions:
REMARK  status: ('A' for Active; 'I' for Inactive)
REMARK    1  A    between atoms: C_5  and  S_6 
REMARK    2  A    between atoms: S_6  and  C_7 
REMARK    3  A    between atoms: C_7  and  C_8 
REMARK       I    between atoms: C_8  and  N_9 
REMARK    4  A    between atoms: N_9  and  N_10 
REMARK       I    between atoms: N_10  and  C_11 
REMARK    5  A    between atoms: C_11  and  C_12 
REMARK    6  A    between atoms: C_15  and  O_16 
REMARK    7  A    between atoms: C_23  and  C_24 
REMARK    8  A    between atoms: C_24  and  C_25 
ROOT
HETATM    1  C   UNL     1      43.786 -10.414   7.298  1.00  0.00     0.187 C 
ENDROOT
BRANCH   1   2
HETATM    2  S   UNL     1      44.747 -11.922   7.015  1.00  0.00    -0.083 SA
BRANCH   2   3
HETATM    3  C   UNL     1      43.499 -13.072   6.704  1.00  0.00     0.167 A 
HETATM    4  N   UNL     1      42.219 -12.688   6.436  1.00  0.00    -0.337 N 
HETATM    5  C   UNL     1      41.462 -13.825   6.293  1.00  0.00     0.032 A 
HETATM    6  H   UNL     1      41.909 -11.731   6.321  1.00  0.00     0.168 HD
HETATM    7  C   UNL     1      40.017 -13.789   5.988  1.00  0.00     0.070 C 
HETATM    8  C   UNL     1      42.351 -14.868   6.508  1.00  0.00     0.063 A 
HETATM    9  N   UNL     1      43.623 -14.375   6.734  1.00  0.00    -0.227 NA
BRANCH   8  10
HETATM   10  C   UNL     1      42.101 -16.338   6.484  1.00  0.00     0.100 C 
BRANCH  10  11
HETATM   11  C   UNL     1      42.478 -16.811   5.100  1.00  0.00    -0.052 A 
HETATM   12  C   UNL     1      41.716 -16.446   3.981  1.00  0.00     0.007 A 
HETATM   13  C   UNL     1      42.072 -16.887   2.705  1.00  0.00     0.001 A 
HETATM   14  C   UNL     1      43.195 -17.697   2.533  1.00  0.00     0.000 A 
HETATM   15  C   UNL     1      43.959 -18.068   3.636  1.00  0.00     0.001 A 
HETATM   16  C   UNL     1      43.603 -17.630   4.912  1.00  0.00     0.007 A 
ENDBRANCH  10  11
ENDBRANCH   8  10
ENDBRANCH   2   3
ENDBRANCH   1   2
BRANCH   1  17
HETATM   17  C   UNL     1      43.957  -9.951   8.731  1.00  0.00     0.245 C 
HETATM   18  N   UNL     1      43.314 -10.730   9.675  1.00  0.00    -0.267 N 
HETATM   19  H   UNL     1      42.498 -11.291   9.421  1.00  0.00     0.190 HD
HETATM   20  O   UNL     1      44.608  -8.951   9.046  1.00  0.00    -0.271 OA
BRANCH  18  21
HETATM   21  N   UNL     1      43.296 -10.231  10.992  1.00  0.00    -0.263 N 
HETATM   22  C   UNL     1      42.116  -9.661  11.436  1.00  0.00     0.270 C 
HETATM   23  O   UNL     1      41.073  -9.726  10.793  1.00  0.00    -0.266 OA
HETATM   24  H   UNL     1      44.197  -9.912  11.344  1.00  0.00     0.190 HD
BRANCH  22  25
HETATM   25  C   UNL     1      42.188  -8.919  12.725  1.00  0.00     0.033 A 
HETATM   26  C   UNL     1      43.142  -7.906  12.861  1.00  0.00     0.020 A 
HETATM   27  C   UNL     1      43.243  -7.194  14.060  1.00  0.00     0.038 A 
HETATM   28  C   UNL     1      42.392  -7.477  15.131  1.00  0.00     0.068 A 
HETATM   29  C   UNL     1      41.430  -8.477  14.993  1.00  0.00     0.038 A 
HETATM   30  C   UNL     1      41.323  -9.194  13.793  1.00  0.00     0.020 A 
BRANCH  28  31
HETATM   31  O   UNL     1      42.599  -6.710  16.243  1.00  0.00    -0.356 OA
HETATM   32  C   UNL     1      41.451  -6.353  17.005  1.00  0.00     0.210 C 
ENDBRANCH  28  31
ENDBRANCH  22  25
ENDBRANCH  18  21
ENDBRANCH   1  17
TORSDOF 8
ENDMDL
MODEL 5
REMARK VINA RESULT:      -8.0      1.239      1.961
REMARK  8 active torsions:
REMARK  status: ('A' for Active; 'I' for Inactive)
REMARK    1  A    between atoms: C_5  and  S_6 
REMARK    2  A    between atoms: S_6  and  C_7 
REMARK    3  A    between atoms: C_7  and  C_8 
REMARK       I    between atoms: C_8  and  N_9 
REMARK    4  A    between atoms: N_9  and  N_10 
REMARK       I    between atoms: N_10  and  C_11 
REMARK    5  A    between atoms: C_11  and  C_12 
REMARK    6  A    between atoms: C_15  and  O_16 
REMARK    7  A    between atoms: C_23  and  C_24 
REMARK    8  A    between atoms: C_24  and  C_25 
ROOT
HETATM    1  C   UNL     1      43.746 -11.364   6.579  1.00  0.00     0.187 C 
ENDROOT
BRANCH   1   2
HETATM    2  S   UNL     1      42.910 -10.949   5.026  1.00  0.00    -0.083 SA
BRANCH   2   3
HETATM    3  C   UNL     1      42.751 -12.503   4.295  1.00  0.00     0.167 A 
HETATM    4  N   UNL     1      43.396 -12.822   3.138  1.00  0.00    -0.337 N 
HETATM    5  C   UNL     1      43.023 -14.097   2.788  1.00  0.00     0.032 A 
HETATM    6  H   UNL     1      44.063 -12.229   2.659  1.00  0.00     0.168 HD
HETATM    7  C   UNL     1      43.536 -14.777   1.580  1.00  0.00     0.070 C 
HETATM    8  C   UNL     1      42.130 -14.486   3.776  1.00  0.00     0.063 A 
HETATM    9  N   UNL     1      41.998 -13.485   4.723  1.00  0.00    -0.227 NA
BRANCH   8  10
HETATM   10  C   UNL     1      41.394 -15.773   3.926  1.00  0.00     0.100 C 
BRANCH  10  11
HETATM   11  C   UNL     1      42.425 -16.869   3.808  1.00  0.00    -0.052 A 
HETATM   12  C   UNL     1      42.450 -17.719   2.693  1.00  0.00     0.007 A 
HETATM   13  C   UNL     1      43.408 -18.730   2.592  1.00  0.00     0.001 A 
HETATM   14  C   UNL     1      44.352 -18.902   3.604  1.00  0.00     0.000 A 
HETATM   15  C   UNL     1      44.336 -18.068   4.719  1.00  0.00     0.001 A 
HETATM   16  C   UNL     1      43.379 -17.058   4.822  1.00  0.00     0.007 A 
ENDBRANCH  10  11
ENDBRANCH   8  10
ENDBRANCH   2   3
ENDBRANCH   1   2
BRANCH   1  17
HETATM   17  C   UNL     1      43.187 -10.523   7.709  1.00  0.00     0.245 C 
HETATM   18  N   UNL     1      43.537 -10.946   8.977  1.00  0.00    -0.267 N 
HETATM   19  H   UNL     1      43.787 -11.922   9.152  1.00  0.00     0.190 HD
HETATM   20  O   UNL     1      42.464  -9.539   7.527  1.00  0.00    -0.271 OA
BRANCH  18  21
HETATM   21  N   UNL     1      42.891 -10.305  10.053  1.00  0.00    -0.263 N 
HETATM   22  C   UNL     1      43.683  -9.584  10.927  1.00  0.00     0.270 C 
HETATM   23  O   UNL     1      44.869  -9.358  10.705  1.00  0.00    -0.266 OA
HETATM   24  H   UNL     1      42.036 -10.758  10.372  1.00  0.00     0.190 HD
BRANCH  22  25
HETATM   25  C   UNL     1      43.030  -9.129  12.186  1.00  0.00     0.033 A 
HETATM   26  C   UNL     1      43.557  -8.018  12.850  1.00  0.00     0.020 A 
HETATM   27  C   UNL     1      42.974  -7.569  14.038  1.00  0.00     0.038 A 
HETATM   28  C   UNL     1      41.857  -8.215  14.573  1.00  0.00     0.068 A 
HETATM   29  C   UNL     1      41.320  -9.316  13.905  1.00  0.00     0.038 A 
HETATM   30  C   UNL     1      41.900  -9.770  12.713  1.00  0.00     0.020 A 
BRANCH  28  31
HETATM   31  O   UNL     1      41.388  -7.676  15.738  1.00  0.00    -0.356 OA
HETATM   32  C   UNL     1      40.530  -6.547  15.629  1.00  0.00     0.210 C 
ENDBRANCH  28  31
ENDBRANCH  22  25
ENDBRANCH  18  21
ENDBRANCH   1  17
TORSDOF 8
ENDMDL
MODEL 6
REMARK VINA RESULT:      -8.0      2.304      2.691
REMARK  8 active torsions:
REMARK  status: ('A' for Active; 'I' for Inactive)
REMARK    1  A    between atoms: C_5  and  S_6 
REMARK    2  A    between atoms: S_6  and  C_7 
REMARK    3  A    between atoms: C_7  and  C_8 
REMARK       I    between atoms: C_8  and  N_9 
REMARK    4  A    between atoms: N_9  and  N_10 
REMARK       I    between atoms: N_10  and  C_11 
REMARK    5  A    between atoms: C_11  and  C_12 
REMARK    6  A    between atoms: C_15  and  O_16 
REMARK    7  A    between atoms: C_23  and  C_24 
REMARK    8  A    between atoms: C_24  and  C_25 
ROOT
HETATM    1  C   UNL     1      39.261 -10.627   7.386  1.00  0.00     0.187 C 
ENDROOT
BRANCH   1   2
HETATM    2  S   UNL     1      40.622 -10.567   6.192  1.00  0.00    -0.083 SA
BRANCH   2   3
HETATM    3  C   UNL     1      41.078 -12.229   6.108  1.00  0.00     0.167 A 
HETATM    4  N   UNL     1      40.195 -13.231   6.377  1.00  0.00    -0.337 N 
HETATM    5  C   UNL     1      40.870 -14.422   6.280  1.00  0.00     0.032 A 
HETATM    6  H   UNL     1      39.208 -13.104   6.567  1.00  0.00     0.168 HD
HETATM    7  C   UNL     1      40.220 -15.731   6.504  1.00  0.00     0.070 C 
HETATM    8  C   UNL     1      42.173 -14.064   5.966  1.00  0.00     0.063 A 
HETATM    9  N   UNL     1      42.272 -12.690   5.835  1.00  0.00    -0.227 NA
BRANCH   8  10
HETATM   10  C   UNL     1      43.361 -14.934   5.739  1.00  0.00     0.100 C 
BRANCH  10  11
HETATM   11  C   UNL     1      43.205 -15.515   4.354  1.00  0.00    -0.052 A 
HETATM   12  C   UNL     1      43.146 -16.902   4.156  1.00  0.00     0.007 A 
HETATM   13  C   UNL     1      43.000 -17.431   2.872  1.00  0.00     0.001 A 
HETATM   14  C   UNL     1      42.910 -16.579   1.771  1.00  0.00     0.000 A 
HETATM   15  C   UNL     1      42.969 -15.200   1.953  1.00  0.00     0.001 A 
HETATM   16  C   UNL     1      43.117 -14.670   3.236  1.00  0.00     0.007 A 
ENDBRANCH  10  11
ENDBRANCH   8  10
ENDBRANCH   2   3
ENDBRANCH   1   2
BRANCH   1  17
HETATM   17  C   UNL     1      39.533  -9.672   8.530  1.00  0.00     0.245 C 
HETATM   18  N   UNL     1      40.802  -9.756   9.071  1.00  0.00    -0.267 N 
HETATM   19  H   UNL     1      41.345 -10.619   8.995  1.00  0.00     0.190 HD
HETATM   20  O   UNL     1      38.692  -8.880   8.966  1.00  0.00    -0.271 OA
BRANCH  18  21
HETATM   21  N   UNL     1      41.033  -9.019  10.249  1.00  0.00    -0.263 N 
HETATM   22  C   UNL     1      42.073  -9.434  11.061  1.00  0.00     0.270 C 
HETATM   23  O   UNL     1      42.876 -10.294  10.711  1.00  0.00    -0.266 OA
HETATM   24  H   UNL     1      40.208  -8.568  10.643  1.00  0.00     0.190 HD
BRANCH  22  25
HETATM   25  C   UNL     1      42.143  -8.810  12.411  1.00  0.00     0.033 A 
HETATM   26  C   UNL     1      41.218  -9.210  13.381  1.00  0.00     0.020 A 
HETATM   27  C   UNL     1      41.250  -8.640  14.656  1.00  0.00     0.038 A 
HETATM   28  C   UNL     1      42.204  -7.673  14.983  1.00  0.00     0.068 A 
HETATM   29  C   UNL     1      43.138  -7.284  14.022  1.00  0.00     0.038 A 
HETATM   30  C   UNL     1      43.112  -7.853  12.741  1.00  0.00     0.020 A 
BRANCH  28  31
HETATM   31  O   UNL     1      42.122  -7.197  16.261  1.00  0.00    -0.356 OA
HETATM   32  C   UNL     1      40.819  -6.976  16.787  1.00  0.00     0.210 C 
ENDBRANCH  28  31
ENDBRANCH  22  25
ENDBRANCH  18  21
ENDBRANCH   1  17
TORSDOF 8
ENDMDL
MODEL 7
REMARK VINA RESULT:      -7.9      2.888     11.137
REMARK  8 active torsions:
REMARK  status: ('A' for Active; 'I' for Inactive)
REMARK    1  A    between atoms: C_5  and  S_6 
REMARK    2  A    between atoms: S_6  and  C_7 
REMARK    3  A    between atoms: C_7  and  C_8 
REMARK       I    between atoms: C_8  and  N_9 
REMARK    4  A    between atoms: N_9  and  N_10 
REMARK       I    between atoms: N_10  and  C_11 
REMARK    5  A    between atoms: C_11  and  C_12 
REMARK    6  A    between atoms: C_15  and  O_16 
REMARK    7  A    between atoms: C_23  and  C_24 
REMARK    8  A    between atoms: C_24  and  C_25 
ROOT
HETATM    1  C   UNL     1      42.899 -10.384   6.697  1.00  0.00     0.187 C 
ENDROOT
BRANCH   1   2
HETATM    2  S   UNL     1      44.150 -10.037   7.960  1.00  0.00    -0.083 SA
BRANCH   2   3
HETATM    3  C   UNL     1      43.187  -9.981   9.391  1.00  0.00     0.167 A 
HETATM    4  N   UNL     1      41.929  -9.456   9.391  1.00  0.00    -0.337 N 
HETATM    5  C   UNL     1      41.455  -9.505  10.678  1.00  0.00     0.032 A 
HETATM    6  H   UNL     1      41.431  -9.135   8.569  1.00  0.00     0.168 HD
HETATM    7  C   UNL     1      40.110  -9.022  11.054  1.00  0.00     0.070 C 
HETATM    8  C   UNL     1      42.492 -10.058  11.415  1.00  0.00     0.063 A 
HETATM    9  N   UNL     1      43.553 -10.374  10.585  1.00  0.00    -0.227 NA
BRANCH   8  10
HETATM   10  C   UNL     1      42.559 -10.353  12.875  1.00  0.00     0.100 C 
BRANCH  10  11
HETATM   11  C   UNL     1      42.415  -9.028  13.584  1.00  0.00    -0.052 A 
HETATM   12  C   UNL     1      43.254  -7.949  13.272  1.00  0.00     0.007 A 
HETATM   13  C   UNL     1      43.113  -6.727  13.933  1.00  0.00     0.001 A 
HETATM   14  C   UNL     1      42.131  -6.569  14.911  1.00  0.00     0.000 A 
HETATM   15  C   UNL     1      41.293  -7.634  15.232  1.00  0.00     0.001 A 
HETATM   16  C   UNL     1      41.433  -8.856  14.574  1.00  0.00     0.007 A 
ENDBRANCH  10  11
ENDBRANCH   8  10
ENDBRANCH   2   3
ENDBRANCH   1   2
BRANCH   1  17
HETATM   17  C   UNL     1      43.348 -11.542   5.828  1.00  0.00     0.245 C 
HETATM   18  N   UNL     1      42.721 -12.745   6.092  1.00  0.00    -0.267 N 
HETATM   19  H   UNL     1      42.319 -12.933   7.013  1.00  0.00     0.190 HD
HETATM   20  O   UNL     1      44.213 -11.437   4.955  1.00  0.00    -0.271 OA
BRANCH  18  21
HETATM   21  N   UNL     1      43.239 -13.879   5.436  1.00  0.00    -0.263 N 
HETATM   22  C   UNL     1      42.454 -14.454   4.453  1.00  0.00     0.270 C 
HETATM   23  O   UNL     1      41.429 -13.923   4.037  1.00  0.00    -0.266 OA
HETATM   24  H   UNL     1      43.878 -14.444   5.993  1.00  0.00     0.190 HD
BRANCH  22  25
HETATM   25  C   UNL     1      42.896 -15.785   3.951  1.00  0.00     0.033 A 
HETATM   26  C   UNL     1      43.587 -16.632   4.824  1.00  0.00     0.020 A 
HETATM   27  C   UNL     1      44.024 -17.884   4.384  1.00  0.00     0.038 A 
HETATM   28  C   UNL     1      43.773 -18.310   3.078  1.00  0.00     0.068 A 
HETATM   29  C   UNL     1      43.071 -17.473   2.210  1.00  0.00     0.038 A 
HETATM   30  C   UNL     1      42.629 -16.216   2.645  1.00  0.00     0.020 A 
BRANCH  28  31
HETATM   31  O   UNL     1      44.256 -19.553   2.778  1.00  0.00    -0.356 OA
HETATM   32  C   UNL     1      43.755 -20.643   3.542  1.00  0.00     0.210 C 
ENDBRANCH  28  31
ENDBRANCH  22  25
ENDBRANCH  18  21
ENDBRANCH   1  17
TORSDOF 8
ENDMDL
MODEL 8
REMARK VINA RESULT:      -7.8      3.149     10.714
REMARK  8 active torsions:
REMARK  status: ('A' for Active; 'I' for Inactive)
REMARK    1  A    between atoms: C_5  and  S_6 
REMARK    2  A    between atoms: S_6  and  C_7 
REMARK    3  A    between atoms: C_7  and  C_8 
REMARK       I    between atoms: C_8  and  N_9 
REMARK    4  A    between atoms: N_9  and  N_10 
REMARK       I    between atoms: N_10  and  C_11 
REMARK    5  A    between atoms: C_11  and  C_12 
REMARK    6  A    between atoms: C_15  and  O_16 
REMARK    7  A    between atoms: C_23  and  C_24 
REMARK    8  A    between atoms: C_24  and  C_25 
ROOT
HETATM    1  C   UNL     1      40.827 -10.946   6.579  1.00  0.00     0.187 C 
ENDROOT
BRANCH   1   2
HETATM    2  S   UNL     1      42.019  -9.709   6.006  1.00  0.00    -0.083 SA
BRANCH   2   3
HETATM    3  C   UNL     1      42.595  -9.069   7.501  1.00  0.00     0.167 A 
HETATM    4  N   UNL     1      42.439  -7.756   7.828  1.00  0.00    -0.337 N 
HETATM    5  C   UNL     1      43.049  -7.550   9.040  1.00  0.00     0.032 A 
HETATM    6  H   UNL     1      41.921  -7.076   7.283  1.00  0.00     0.168 HD
HETATM    7  C   UNL     1      43.072  -6.234   9.711  1.00  0.00     0.070 C 
HETATM    8  C   UNL     1      43.575  -8.787   9.384  1.00  0.00     0.063 A 
HETATM    9  N   UNL     1      43.254  -9.728   8.420  1.00  0.00    -0.227 NA
BRANCH   8  10
HETATM   10  C   UNL     1      44.350  -9.178  10.596  1.00  0.00     0.100 C 
BRANCH  10  11
HETATM   11  C   UNL     1      43.393  -9.087  11.760  1.00  0.00    -0.052 A 
HETATM   12  C   UNL     1      43.546  -8.099  12.744  1.00  0.00     0.007 A 
HETATM   13  C   UNL     1      42.656  -8.022  13.817  1.00  0.00     0.001 A 
HETATM   14  C   UNL     1      41.601  -8.929  13.917  1.00  0.00     0.000 A 
HETATM   15  C   UNL     1      41.439  -9.916  12.949  1.00  0.00     0.001 A 
HETATM   16  C   UNL     1      42.328  -9.996  11.877  1.00  0.00     0.007 A 
ENDBRANCH  10  11
ENDBRANCH   8  10
ENDBRANCH   2   3
ENDBRANCH   1   2
BRANCH   1  17
HETATM   17  C   UNL     1      40.953 -12.210   5.753  1.00  0.00     0.245 C 
HETATM   18  N   UNL     1      41.824 -13.155   6.262  1.00  0.00    -0.267 N 
HETATM   19  H   UNL     1      42.590 -12.879   6.881  1.00  0.00     0.190 HD
HETATM   20  O   UNL     1      40.341 -12.392   4.697  1.00  0.00    -0.271 OA
BRANCH  18  21
HETATM   21  N   UNL     1      42.108 -14.258   5.434  1.00  0.00    -0.263 N 
HETATM   22  C   UNL     1      42.335 -15.473   6.055  1.00  0.00     0.270 C 
HETATM   23  O   UNL     1      42.139 -15.645   7.254  1.00  0.00    -0.266 OA
HETATM   24  H   UNL     1      42.561 -14.028   4.551  1.00  0.00     0.190 HD
BRANCH  22  25
HETATM   25  C   UNL     1      42.878 -16.561   5.194  1.00  0.00     0.033 A 
HETATM   26  C   UNL     1      42.476 -16.618   3.856  1.00  0.00     0.020 A 
HETATM   27  C   UNL     1      42.960 -17.630   3.022  1.00  0.00     0.038 A 
HETATM   28  C   UNL     1      43.852 -18.589   3.507  1.00  0.00     0.068 A 
HETATM   29  C   UNL     1      44.265 -18.526   4.838  1.00  0.00     0.038 A 
HETATM   30  C   UNL     1      43.785 -17.513   5.679  1.00  0.00     0.020 A 
BRANCH  28  31
HETATM   31  O   UNL     1      44.244 -19.522   2.589  1.00  0.00    -0.356 OA
HETATM   32  C   UNL     1      43.215 -20.221   1.897  1.00  0.00     0.210 C 
ENDBRANCH  28  31
ENDBRANCH  22  25
ENDBRANCH  18  21
ENDBRANCH   1  17
TORSDOF 8
ENDMDL
MODEL 9
REMARK VINA RESULT:      -7.7      3.732     10.387
REMARK  8 active torsions:
REMARK  status: ('A' for Active; 'I' for Inactive)
REMARK    1  A    between atoms: C_5  and  S_6 
REMARK    2  A    between atoms: S_6  and  C_7 
REMARK    3  A    between atoms: C_7  and  C_8 
REMARK       I    between atoms: C_8  and  N_9 
REMARK    4  A    between atoms: N_9  and  N_10 
REMARK       I    between atoms: N_10  and  C_11 
REMARK    5  A    between atoms: C_11  and  C_12 
REMARK    6  A    between atoms: C_15  and  O_16 
REMARK    7  A    between atoms: C_23  and  C_24 
REMARK    8  A    between atoms: C_24  and  C_25 
ROOT
HETATM    1  C   UNL     1      38.691 -11.241   6.246  1.00  0.00     0.187 C 
ENDROOT
BRANCH   1   2
HETATM    2  S   UNL     1      39.182  -9.500   6.168  1.00  0.00    -0.083 SA
BRANCH   2   3
HETATM    3  C   UNL     1      39.849  -9.260   7.741  1.00  0.00     0.167 A 
HETATM    4  N   UNL     1      39.374  -9.923   8.832  1.00  0.00    -0.337 N 
HETATM    5  C   UNL     1      40.067  -9.476   9.930  1.00  0.00     0.032 A 
HETATM    6  H   UNL     1      38.666 -10.647   8.812  1.00  0.00     0.168 HD
HETATM    7  C   UNL     1      39.818  -9.984  11.295  1.00  0.00     0.070 C 
HETATM    8  C   UNL     1      40.941  -8.522   9.429  1.00  0.00     0.063 A 
HETATM    9  N   UNL     1      40.807  -8.425   8.055  1.00  0.00    -0.227 NA
BRANCH   8  10
HETATM   10  C   UNL     1      41.946  -7.692  10.153  1.00  0.00     0.100 C 
BRANCH  10  11
HETATM   11  C   UNL     1      43.288  -8.338   9.906  1.00  0.00    -0.052 A 
HETATM   12  C   UNL     1      43.772  -9.343  10.756  1.00  0.00     0.007 A 
HETATM   13  C   UNL     1      45.014  -9.935  10.520  1.00  0.00     0.001 A 
HETATM   14  C   UNL     1      45.786  -9.531   9.430  1.00  0.00     0.000 A 
HETATM   15  C   UNL     1      45.318  -8.533   8.579  1.00  0.00     0.001 A 
HETATM   16  C   UNL     1      44.078  -7.939   8.815  1.00  0.00     0.007 A 
ENDBRANCH  10  11
ENDBRANCH   8  10
ENDBRANCH   2   3
ENDBRANCH   1   2
BRANCH   1  17
HETATM   17  C   UNL     1      39.818 -12.120   5.740  1.00  0.00     0.245 C 
HETATM   18  N   UNL     1      39.448 -13.411   5.415  1.00  0.00    -0.267 N 
HETATM   19  H   UNL     1      38.627 -13.843   5.844  1.00  0.00     0.190 HD
HETATM   20  O   UNL     1      40.984 -11.730   5.632  1.00  0.00    -0.271 OA
BRANCH  18  21
HETATM   21  N   UNL     1      40.494 -14.307   5.118  1.00  0.00    -0.263 N 
HETATM   22  C   UNL     1      40.591 -14.756   3.813  1.00  0.00     0.270 C 
HETATM   23  O   UNL     1      39.917 -14.282   2.904  1.00  0.00    -0.266 OA
HETATM   24  H   UNL     1      40.793 -14.892   5.897  1.00  0.00     0.190 HD
BRANCH  22  25
HETATM   25  C   UNL     1      41.532 -15.884   3.573  1.00  0.00     0.033 A 
HETATM   26  C   UNL     1      42.335 -16.322   4.632  1.00  0.00     0.020 A 
HETATM   27  C   UNL     1      43.235 -17.373   4.440  1.00  0.00     0.038 A 
HETATM   28  C   UNL     1      43.342 -18.005   3.198  1.00  0.00     0.068 A 
HETATM   29  C   UNL     1      42.531 -17.580   2.145  1.00  0.00     0.038 A 
HETATM   30  C   UNL     1      41.626 -16.527   2.331  1.00  0.00     0.020 A 
BRANCH  28  31
HETATM   31  O   UNL     1      44.261 -19.015   3.147  1.00  0.00    -0.356 OA
HETATM   32  C   UNL     1      43.817 -20.267   2.638  1.00  0.00     0.210 C 
ENDBRANCH  28  31
ENDBRANCH  22  25
ENDBRANCH  18  21
ENDBRANCH   1  17
TORSDOF 8
ENDMDL
MODEL 10
REMARK VINA RESULT:      -7.6      2.983     10.862
REMARK  8 active torsions:
REMARK  status: ('A' for Active; 'I' for Inactive)
REMARK    1  A    between atoms: C_5  and  S_6 
REMARK    2  A    between atoms: S_6  and  C_7 
REMARK    3  A    between atoms: C_7  and  C_8 
REMARK       I    between atoms: C_8  and  N_9 
REMARK    4  A    between atoms: N_9  and  N_10 
REMARK       I    between atoms: N_10  and  C_11 
REMARK    5  A    between atoms: C_11  and  C_12 
REMARK    6  A    between atoms: C_15  and  O_16 
REMARK    7  A    between atoms: C_23  and  C_24 
REMARK    8  A    between atoms: C_24  and  C_25 
ROOT
HETATM    1  C   UNL     1      42.141 -10.090   5.156  1.00  0.00     0.187 C 
ENDROOT
BRANCH   1   2
HETATM    2  S   UNL     1      41.090 -10.328   6.612  1.00  0.00    -0.083 SA
BRANCH   2   3
HETATM    3  C   UNL     1      42.107  -9.734   7.872  1.00  0.00     0.167 A 
HETATM    4  N   UNL     1      43.179 -10.443   8.325  1.00  0.00    -0.337 N 
HETATM    5  C   UNL     1      43.744  -9.735   9.357  1.00  0.00     0.032 A 
HETATM    6  H   UNL     1      43.512 -11.314   7.929  1.00  0.00     0.168 HD
HETATM    7  C   UNL     1      44.939 -10.205  10.089  1.00  0.00     0.070 C 
HETATM    8  C   UNL     1      42.946  -8.608   9.488  1.00  0.00     0.063 A 
HETATM    9  N   UNL     1      41.947  -8.614   8.531  1.00  0.00    -0.227 NA
BRANCH   8  10
HETATM   10  C   UNL     1      43.069  -7.474  10.448  1.00  0.00     0.100 C 
BRANCH  10  11
HETATM   11  C   UNL     1      42.550  -7.979  11.772  1.00  0.00    -0.052 A 
HETATM   12  C   UNL     1      41.475  -8.878  11.830  1.00  0.00     0.007 A 
HETATM   13  C   UNL     1      41.002  -9.340  13.060  1.00  0.00     0.001 A 
HETATM   14  C   UNL     1      41.598  -8.911  14.245  1.00  0.00     0.000 A 
HETATM   15  C   UNL     1      42.664  -8.016  14.202  1.00  0.00     0.001 A 
HETATM   16  C   UNL     1      43.137  -7.551  12.975  1.00  0.00     0.007 A 
ENDBRANCH  10  11
ENDBRANCH   8  10
ENDBRANCH   2   3
ENDBRANCH   1   2
BRANCH   1  17
HETATM   17  C   UNL     1      42.837 -11.389   4.801  1.00  0.00     0.245 C 
HETATM   18  N   UNL     1      42.391 -11.990   3.640  1.00  0.00    -0.267 N 
HETATM   19  H   UNL     1      41.447 -11.813   3.289  1.00  0.00     0.190 HD
HETATM   20  O   UNL     1      43.729 -11.889   5.493  1.00  0.00    -0.271 OA
BRANCH  18  21
HETATM   21  N   UNL     1      42.882 -13.284   3.375  1.00  0.00    -0.263 N 
HETATM   22  C   UNL     1      41.999 -14.338   3.524  1.00  0.00     0.270 C 
HETATM   23  O   UNL     1      40.798 -14.167   3.712  1.00  0.00    -0.266 OA
HETATM   24  H   UNL     1      43.879 -13.408   3.542  1.00  0.00     0.190 HD
BRANCH  22  25
HETATM   25  C   UNL     1      42.592 -15.703   3.488  1.00  0.00     0.033 A 
HETATM   26  C   UNL     1      42.408 -16.483   2.342  1.00  0.00     0.020 A 
HETATM   27  C   UNL     1      42.944 -17.772   2.278  1.00  0.00     0.038 A 
HETATM   28  C   UNL     1      43.673 -18.296   3.348  1.00  0.00     0.068 A 
HETATM   29  C   UNL     1      43.870 -17.515   4.487  1.00  0.00     0.038 A 
HETATM   30  C   UNL     1      43.336 -16.221   4.557  1.00  0.00     0.020 A 
BRANCH  28  31
HETATM   31  O   UNL     1      44.138 -19.567   3.156  1.00  0.00    -0.356 OA
HETATM   32  C   UNL     1      43.558 -20.314   2.093  1.00  0.00     0.210 C 
ENDBRANCH  28  31
ENDBRANCH  22  25
ENDBRANCH  18  21
ENDBRANCH   1  17
TORSDOF 8
ENDMDL
