MODEL 1
REMARK VINA RESULT:      -9.0      0.000      0.000
REMARK  8 active torsions:
REMARK  status: ('A' for Active; 'I' for Inactive)
REMARK    1  A    between atoms: C_2  and  C_3 
REMARK    2  A    between atoms: C_6  and  C_7 
REMARK    3  A    between atoms: C_11  and  C_12 
REMARK    4  A    between atoms: C_12  and  C_13 
REMARK    5  A    between atoms: C_13  and  C_14 
REMARK    6  A    between atoms: C_14  and  O_15 
REMARK    7  A    between atoms: C_20  and  C_21 
REMARK       I    between atoms: C_21  and  N_22 
REMARK    8  A    between atoms: N_22  and  C_23 
ROOT
HETATM    1  C   UNL     1      42.749 -12.276   3.216  1.00  0.00     0.202 C 
HETATM    2  N   UNL     1      43.188 -11.868   4.556  1.00  0.00    -0.083 N 
HETATM    3  C   UNL     1      42.377 -11.250   5.468  1.00  0.00     0.726 A 
HETATM    4  N   UNL     1      43.072 -10.940   6.531  1.00  0.00    -0.046 NA
HETATM    5  C   UNL     1      44.341 -11.359   6.203  1.00  0.00     0.166 A 
HETATM    6  N   UNL     1      44.464 -11.922   4.992  1.00  0.00    -0.140 NA
HETATM    7  N   UNL     1      41.091 -10.998   5.151  1.00  0.00    -0.192 N 
HETATM    8  C   UNL     1      40.596 -11.134   3.857  1.00  0.00     0.037 C 
HETATM    9  C   UNL     1      39.265 -10.468   3.606  1.00  0.00     0.070 C 
HETATM   10  C   UNL     1      41.346 -11.755   2.912  1.00  0.00     0.062 C 
HETATM   11  H   UNL     1      40.556 -10.428   5.801  1.00  0.00     0.184 HD
ENDROOT
BRANCH  10  12
HETATM   12  C   UNL     1      40.970 -11.869   1.475  1.00  0.00     0.256 C 
HETATM   13  N   UNL     1      40.143 -12.935   1.194  1.00  0.00    -0.323 N 
HETATM   14  H   UNL     1      39.889 -13.536   1.967  1.00  0.00     0.169 HD
HETATM   15  O   UNL     1      41.426 -11.054   0.683  1.00  0.00    -0.267 OA
BRANCH  13  16
HETATM   16  C   UNL     1      39.556 -13.247  -0.050  1.00  0.00     0.035 A 
HETATM   17  C   UNL     1      38.626 -12.432  -0.700  1.00  0.00     0.031 A 
HETATM   18  C   UNL     1      38.068 -12.824  -1.922  1.00  0.00     0.026 A 
HETATM   19  C   UNL     1      38.433 -14.038  -2.496  1.00  0.00     0.034 A 
HETATM   20 CL   UNL     1      37.733 -14.527  -3.989  1.00  0.00    -0.084 Cl
HETATM   21  C   UNL     1      39.362 -14.859  -1.863  1.00  0.00     0.026 A 
HETATM   22  C   UNL     1      39.928 -14.459  -0.648  1.00  0.00     0.031 A 
ENDBRANCH  13  16
ENDBRANCH  10  12
BRANCH   1  23
HETATM   23  C   UNL     1      42.853 -13.791   3.059  1.00  0.00    -0.028 A 
HETATM   24  C   UNL     1      42.398 -14.676   4.050  1.00  0.00     0.010 A 
HETATM   25  C   UNL     1      42.514 -16.059   3.879  1.00  0.00     0.007 A 
HETATM   26  C   UNL     1      43.085 -16.587   2.714  1.00  0.00    -0.059 A 
HETATM   27  C   UNL     1      43.519 -15.709   1.716  1.00  0.00     0.007 A 
HETATM   28  C   UNL     1      43.402 -14.328   1.884  1.00  0.00     0.010 A 
BRANCH  26  29
HETATM   29  C   UNL     1      43.223 -18.078   2.531  1.00  0.00     0.034 C 
HETATM   30  C   UNL     1      43.987 -18.727   3.675  1.00  0.00     0.010 C 
ENDBRANCH  26  29
ENDBRANCH   1  23
BRANCH   5  31
HETATM   31  C   UNL     1      45.504 -11.148   7.103  1.00  0.00     0.085 C 
BRANCH  31  32
HETATM   32  C   UNL     1      45.170 -10.367   8.371  1.00  0.00     0.034 C 
BRANCH  32  33
HETATM   33  C   UNL     1      45.802  -8.981   8.395  1.00  0.00     0.164 C 
BRANCH  33  34
HETATM   34  O   UNL     1      46.903  -8.942   7.494  1.00  0.00    -0.401 OA
HETATM   35  H   UNL     1      46.597  -8.518   6.675  1.00  0.00     0.209 HD
ENDBRANCH  33  34
ENDBRANCH  32  33
ENDBRANCH  31  32
ENDBRANCH   5  31
TORSDOF 8
ENDMDL
MODEL 2
REMARK VINA RESULT:      -8.6      1.488      1.589
REMARK  8 active torsions:
REMARK  status: ('A' for Active; 'I' for Inactive)
REMARK    1  A    between atoms: C_2  and  C_3 
REMARK    2  A    between atoms: C_6  and  C_7 
REMARK    3  A    between atoms: C_11  and  C_12 
REMARK    4  A    between atoms: C_12  and  C_13 
REMARK    5  A    between atoms: C_13  and  C_14 
REMARK    6  A    between atoms: C_14  and  O_15 
REMARK    7  A    between atoms: C_20  and  C_21 
REMARK       I    between atoms: C_21  and  N_22 
REMARK    8  A    between atoms: N_22  and  C_23 
ROOT
HETATM    1  C   UNL     1      42.349 -13.335   4.064  1.00  0.00     0.202 C 
HETATM    2  N   UNL     1      43.099 -12.659   5.129  1.00  0.00    -0.083 N 
HETATM    3  C   UNL     1      42.516 -12.093   6.230  1.00  0.00     0.726 A 
HETATM    4  N   UNL     1      43.431 -11.500   6.953  1.00  0.00    -0.046 NA
HETATM    5  C   UNL     1      44.578 -11.697   6.220  1.00  0.00     0.166 A 
HETATM    6  N   UNL     1      44.421 -12.392   5.083  1.00  0.00    -0.140 NA
HETATM    7  N   UNL     1      41.177 -12.153   6.379  1.00  0.00    -0.192 N 
HETATM    8  C   UNL     1      40.326 -12.570   5.359  1.00  0.00     0.037 C 
HETATM    9  C   UNL     1      38.869 -12.228   5.558  1.00  0.00     0.070 C 
HETATM   10  C   UNL     1      40.843 -13.156   4.249  1.00  0.00     0.062 C 
HETATM   11  H   UNL     1      40.770 -11.616   7.139  1.00  0.00     0.184 HD
ENDROOT
BRANCH  10  12
HETATM   12  C   UNL     1      40.048 -13.548   3.052  1.00  0.00     0.256 C 
HETATM   13  N   UNL     1      40.315 -12.795   1.930  1.00  0.00    -0.323 N 
HETATM   14  H   UNL     1      40.996 -12.053   2.025  1.00  0.00     0.169 HD
HETATM   15  O   UNL     1      39.235 -14.457   3.161  1.00  0.00    -0.267 OA
BRANCH  13  16
HETATM   16  C   UNL     1      39.788 -12.986   0.636  1.00  0.00     0.035 A 
HETATM   17  C   UNL     1      38.858 -12.131   0.038  1.00  0.00     0.031 A 
HETATM   18  C   UNL     1      38.361 -12.403  -1.241  1.00  0.00     0.026 A 
HETATM   19  C   UNL     1      38.787 -13.536  -1.927  1.00  0.00     0.034 A 
HETATM   20 CL   UNL     1      38.162 -13.879  -3.491  1.00  0.00    -0.084 Cl
HETATM   21  C   UNL     1      39.716 -14.395  -1.347  1.00  0.00     0.026 A 
HETATM   22  C   UNL     1      40.222 -14.115  -0.074  1.00  0.00     0.031 A 
ENDBRANCH  13  16
ENDBRANCH  10  12
BRANCH   1  23
HETATM   23  C   UNL     1      42.753 -14.804   3.976  1.00  0.00    -0.028 A 
HETATM   24  C   UNL     1      42.893 -15.608   5.119  1.00  0.00     0.010 A 
HETATM   25  C   UNL     1      43.271 -16.950   5.006  1.00  0.00     0.007 A 
HETATM   26  C   UNL     1      43.516 -17.517   3.749  1.00  0.00    -0.059 A 
HETATM   27  C   UNL     1      43.357 -16.724   2.607  1.00  0.00     0.007 A 
HETATM   28  C   UNL     1      42.978 -15.386   2.719  1.00  0.00     0.010 A 
BRANCH  26  29
HETATM   29  C   UNL     1      43.938 -18.959   3.624  1.00  0.00     0.034 C 
HETATM   30  C   UNL     1      43.450 -19.588   2.327  1.00  0.00     0.010 C 
ENDBRANCH  26  29
ENDBRANCH   1  23
BRANCH   5  31
HETATM   31  C   UNL     1      45.889 -11.130   6.630  1.00  0.00     0.085 C 
BRANCH  31  32
HETATM   32  C   UNL     1      45.880 -10.495   8.017  1.00  0.00     0.034 C 
BRANCH  32  33
HETATM   33  C   UNL     1      46.429  -9.074   8.022  1.00  0.00     0.164 C 
BRANCH  33  34
HETATM   34  O   UNL     1      45.382  -8.159   8.329  1.00  0.00    -0.401 OA
HETATM   35  H   UNL     1      44.676  -8.288   7.673  1.00  0.00     0.209 HD
ENDBRANCH  33  34
ENDBRANCH  32  33
ENDBRANCH  31  32
ENDBRANCH   5  31
TORSDOF 8
ENDMDL
MODEL 3
REMARK VINA RESULT:      -8.1      3.752      7.040
REMARK  8 active torsions:
REMARK  status: ('A' for Active; 'I' for Inactive)
REMARK    1  A    between atoms: C_2  and  C_3 
REMARK    2  A    between atoms: C_6  and  C_7 
REMARK    3  A    between atoms: C_11  and  C_12 
REMARK    4  A    between atoms: C_12  and  C_13 
REMARK    5  A    between atoms: C_13  and  C_14 
REMARK    6  A    between atoms: C_14  and  O_15 
REMARK    7  A    between atoms: C_20  and  C_21 
REMARK       I    between atoms: C_21  and  N_22 
REMARK    8  A    between atoms: N_22  and  C_23 
ROOT
HETATM    1  C   UNL     1      42.214 -12.708   1.663  1.00  0.00     0.202 C 
HETATM    2  N   UNL     1      41.318 -11.748   1.006  1.00  0.00    -0.083 N 
HETATM    3  C   UNL     1      40.057 -12.056   0.574  1.00  0.00     0.726 A 
HETATM    4  N   UNL     1      39.541 -11.023  -0.040  1.00  0.00    -0.046 NA
HETATM    5  C   UNL     1      40.558 -10.098   0.005  1.00  0.00     0.166 A 
HETATM    6  N   UNL     1      41.676 -10.504   0.625  1.00  0.00    -0.140 NA
HETATM    7  N   UNL     1      39.577 -13.302   0.758  1.00  0.00    -0.192 N 
HETATM    8  C   UNL     1      40.379 -14.364   1.169  1.00  0.00     0.037 C 
HETATM    9  C   UNL     1      39.782 -15.735   0.968  1.00  0.00     0.070 C 
HETATM   10  C   UNL     1      41.633 -14.120   1.626  1.00  0.00     0.062 C 
HETATM   11  H   UNL     1      38.691 -13.529   0.315  1.00  0.00     0.184 HD
ENDROOT
BRANCH  10  12
HETATM   12  C   UNL     1      42.618 -15.175   1.995  1.00  0.00     0.256 C 
HETATM   13  N   UNL     1      42.151 -16.078   2.925  1.00  0.00    -0.323 N 
HETATM   14  H   UNL     1      41.213 -15.935   3.275  1.00  0.00     0.169 HD
HETATM   15  O   UNL     1      43.730 -15.144   1.483  1.00  0.00    -0.267 OA
BRANCH  13  16
HETATM   16  C   UNL     1      42.819 -17.227   3.400  1.00  0.00     0.035 A 
HETATM   17  C   UNL     1      43.159 -18.319   2.597  1.00  0.00     0.031 A 
HETATM   18  C   UNL     1      43.798 -19.435   3.148  1.00  0.00     0.026 A 
HETATM   19  C   UNL     1      44.094 -19.467   4.508  1.00  0.00     0.034 A 
HETATM   20 CL   UNL     1      44.863 -20.846   5.187  1.00  0.00    -0.084 Cl
HETATM   21  C   UNL     1      43.765 -18.385   5.319  1.00  0.00     0.026 A 
HETATM   22  C   UNL     1      43.138 -17.264   4.764  1.00  0.00     0.031 A 
ENDBRANCH  13  16
ENDBRANCH  10  12
BRANCH   1  23
HETATM   23  C   UNL     1      42.538 -12.249   3.082  1.00  0.00    -0.028 A 
HETATM   24  C   UNL     1      43.843 -11.909   3.476  1.00  0.00     0.010 A 
HETATM   25  C   UNL     1      44.108 -11.498   4.786  1.00  0.00     0.007 A 
HETATM   26  C   UNL     1      43.077 -11.418   5.730  1.00  0.00    -0.059 A 
HETATM   27  C   UNL     1      41.773 -11.736   5.336  1.00  0.00     0.007 A 
HETATM   28  C   UNL     1      41.506 -12.144   4.027  1.00  0.00     0.010 A 
BRANCH  26  29
HETATM   29  C   UNL     1      43.361 -10.989   7.148  1.00  0.00     0.034 C 
HETATM   30  C   UNL     1      44.811 -11.227   7.538  1.00  0.00     0.010 C 
ENDBRANCH  26  29
ENDBRANCH   1  23
BRANCH   5  31
HETATM   31  C   UNL     1      40.447  -8.764  -0.640  1.00  0.00     0.085 C 
BRANCH  31  32
HETATM   32  C   UNL     1      41.399  -7.720  -0.066  1.00  0.00     0.034 C 
BRANCH  32  33
HETATM   33  C   UNL     1      42.549  -7.386  -1.008  1.00  0.00     0.164 C 
BRANCH  33  34
HETATM   34  O   UNL     1      43.345  -8.548  -1.220  1.00  0.00    -0.401 OA
HETATM   35  H   UNL     1      43.526  -8.943  -0.350  1.00  0.00     0.209 HD
ENDBRANCH  33  34
ENDBRANCH  32  33
ENDBRANCH  31  32
ENDBRANCH   5  31
TORSDOF 8
ENDMDL
MODEL 4
REMARK VINA RESULT:      -7.9      4.186      7.369
REMARK  8 active torsions:
REMARK  status: ('A' for Active; 'I' for Inactive)
REMARK    1  A    between atoms: C_2  and  C_3 
REMARK    2  A    between atoms: C_6  and  C_7 
REMARK    3  A    between atoms: C_11  and  C_12 
REMARK    4  A    between atoms: C_12  and  C_13 
REMARK    5  A    between atoms: C_13  and  C_14 
REMARK    6  A    between atoms: C_14  and  O_15 
REMARK    7  A    between atoms: C_20  and  C_21 
REMARK       I    between atoms: C_21  and  N_22 
REMARK    8  A    between atoms: N_22  and  C_23 
ROOT
HETATM    1  C   UNL     1      41.200 -11.888   0.505  1.00  0.00     0.202 C 
HETATM    2  N   UNL     1      41.224 -10.872  -0.555  1.00  0.00    -0.083 N 
HETATM    3  C   UNL     1      40.597 -11.018  -1.762  1.00  0.00     0.726 A 
HETATM    4  N   UNL     1      40.867  -9.987  -2.521  1.00  0.00    -0.046 NA
HETATM    5  C   UNL     1      41.712  -9.238  -1.735  1.00  0.00     0.166 A 
HETATM    6  N   UNL     1      41.973  -9.750  -0.523  1.00  0.00    -0.140 NA
HETATM    7  N   UNL     1      39.901 -12.143  -2.019  1.00  0.00    -0.192 N 
HETATM    8  C   UNL     1      39.966 -13.269  -1.203  1.00  0.00     0.037 C 
HETATM    9  C   UNL     1      39.435 -14.540  -1.820  1.00  0.00     0.070 C 
HETATM   10  C   UNL     1      40.558 -13.183   0.015  1.00  0.00     0.062 C 
HETATM   11  H   UNL     1      39.557 -12.270  -2.968  1.00  0.00     0.184 HD
ENDROOT
BRANCH  10  12
HETATM   12  C   UNL     1      40.779 -14.337   0.930  1.00  0.00     0.256 C 
HETATM   13  N   UNL     1      42.106 -14.606   1.184  1.00  0.00    -0.323 N 
HETATM   14  H   UNL     1      42.790 -14.021   0.724  1.00  0.00     0.169 HD
HETATM   15  O   UNL     1      39.803 -14.948   1.350  1.00  0.00    -0.267 OA
BRANCH  13  16
HETATM   16  C   UNL     1      42.620 -15.574   2.073  1.00  0.00     0.035 A 
HETATM   17  C   UNL     1      42.965 -16.874   1.696  1.00  0.00     0.031 A 
HETATM   18  C   UNL     1      43.445 -17.786   2.642  1.00  0.00     0.026 A 
HETATM   19  C   UNL     1      43.574 -17.403   3.974  1.00  0.00     0.034 A 
HETATM   20 CL   UNL     1      44.146 -18.530   5.140  1.00  0.00    -0.084 Cl
HETATM   21  C   UNL     1      43.239 -16.110   4.364  1.00  0.00     0.026 A 
HETATM   22  C   UNL     1      42.772 -15.196   3.414  1.00  0.00     0.031 A 
ENDBRANCH  13  16
ENDBRANCH  10  12
BRANCH   1  23
HETATM   23  C   UNL     1      40.519 -11.338   1.756  1.00  0.00    -0.028 A 
HETATM   24  C   UNL     1      41.202 -11.191   2.974  1.00  0.00     0.010 A 
HETATM   25  C   UNL     1      40.548 -10.690   4.103  1.00  0.00     0.007 A 
HETATM   26  C   UNL     1      39.197 -10.324   4.040  1.00  0.00    -0.059 A 
HETATM   27  C   UNL     1      38.519 -10.449   2.823  1.00  0.00     0.007 A 
HETATM   28  C   UNL     1      39.172 -10.947   1.694  1.00  0.00     0.010 A 
BRANCH  26  29
HETATM   29  C   UNL     1      38.484  -9.796   5.259  1.00  0.00     0.034 C 
HETATM   30  C   UNL     1      38.598 -10.742   6.444  1.00  0.00     0.010 C 
ENDBRANCH  26  29
ENDBRANCH   1  23
BRANCH   5  31
HETATM   31  C   UNL     1      42.340  -7.981  -2.218  1.00  0.00     0.085 C 
BRANCH  31  32
HETATM   32  C   UNL     1      43.149  -7.246  -1.153  1.00  0.00     0.034 C 
BRANCH  32  33
HETATM   33  C   UNL     1      43.466  -5.807  -1.539  1.00  0.00     0.164 C 
BRANCH  33  34
HETATM   34  O   UNL     1      44.857  -5.681  -1.815  1.00  0.00    -0.401 OA
HETATM   35  H   UNL     1      45.264  -5.216  -1.065  1.00  0.00     0.209 HD
ENDBRANCH  33  34
ENDBRANCH  32  33
ENDBRANCH  31  32
ENDBRANCH   5  31
TORSDOF 8
ENDMDL
MODEL 5
REMARK VINA RESULT:      -7.8      3.992      7.452
REMARK  8 active torsions:
REMARK  status: ('A' for Active; 'I' for Inactive)
REMARK    1  A    between atoms: C_2  and  C_3 
REMARK    2  A    between atoms: C_6  and  C_7 
REMARK    3  A    between atoms: C_11  and  C_12 
REMARK    4  A    between atoms: C_12  and  C_13 
REMARK    5  A    between atoms: C_13  and  C_14 
REMARK    6  A    between atoms: C_14  and  O_15 
REMARK    7  A    between atoms: C_20  and  C_21 
REMARK       I    between atoms: C_21  and  N_22 
REMARK    8  A    between atoms: N_22  and  C_23 
ROOT
HETATM    1  C   UNL     1      41.681 -14.108   5.097  1.00  0.00     0.202 C 
HETATM    2  N   UNL     1      42.206 -15.281   4.387  1.00  0.00    -0.083 N 
HETATM    3  C   UNL     1      41.935 -15.561   3.075  1.00  0.00     0.726 A 
HETATM    4  N   UNL     1      42.475 -16.708   2.753  1.00  0.00    -0.046 NA
HETATM    5  C   UNL     1      43.044 -17.124   3.934  1.00  0.00     0.166 A 
HETATM    6  N   UNL     1      42.891 -16.285   4.971  1.00  0.00    -0.140 NA
HETATM    7  N   UNL     1      41.153 -14.724   2.364  1.00  0.00    -0.192 N 
HETATM    8  C   UNL     1      40.420 -13.698   2.954  1.00  0.00     0.037 C 
HETATM    9  C   UNL     1      39.331 -13.108   2.090  1.00  0.00     0.070 C 
HETATM   10  C   UNL     1      40.656 -13.360   4.246  1.00  0.00     0.062 C 
HETATM   11  H   UNL     1      40.871 -15.028   1.435  1.00  0.00     0.184 HD
ENDROOT
BRANCH  10  12
HETATM   12  C   UNL     1      39.869 -12.355   5.015  1.00  0.00     0.256 C 
HETATM   13  N   UNL     1      40.178 -11.048   4.708  1.00  0.00    -0.323 N 
HETATM   14  H   UNL     1      40.903 -10.896   4.020  1.00  0.00     0.169 HD
HETATM   15  O   UNL     1      39.060 -12.753   5.843  1.00  0.00    -0.267 OA
BRANCH  13  16
HETATM   16  C   UNL     1      39.545  -9.889   5.205  1.00  0.00     0.035 A 
HETATM   17  C   UNL     1      38.439  -9.285   4.602  1.00  0.00     0.031 A 
HETATM   18  C   UNL     1      37.882  -8.120   5.141  1.00  0.00     0.026 A 
HETATM   19  C   UNL     1      38.435  -7.550   6.284  1.00  0.00     0.034 A 
HETATM   20 CL   UNL     1      37.761  -6.108   6.936  1.00  0.00    -0.084 Cl
HETATM   21  C   UNL     1      39.533  -8.142   6.899  1.00  0.00     0.026 A 
HETATM   22  C   UNL     1      40.080  -9.314   6.366  1.00  0.00     0.031 A 
ENDBRANCH  13  16
ENDBRANCH  10  12
BRANCH   1  23
HETATM   23  C   UNL     1      42.824 -13.206   5.555  1.00  0.00    -0.028 A 
HETATM   24  C   UNL     1      43.522 -12.375   4.664  1.00  0.00     0.010 A 
HETATM   25  C   UNL     1      44.569 -11.565   5.114  1.00  0.00     0.007 A 
HETATM   26  C   UNL     1      44.941 -11.568   6.464  1.00  0.00    -0.059 A 
HETATM   27  C   UNL     1      44.235 -12.379   7.359  1.00  0.00     0.007 A 
HETATM   28  C   UNL     1      43.187 -13.186   6.911  1.00  0.00     0.010 A 
BRANCH  26  29
HETATM   29  C   UNL     1      46.079 -10.706   6.952  1.00  0.00     0.034 C 
HETATM   30  C   UNL     1      45.756 -10.024   8.272  1.00  0.00     0.010 C 
ENDBRANCH  26  29
ENDBRANCH   1  23
BRANCH   5  31
HETATM   31  C   UNL     1      43.728 -18.436   4.068  1.00  0.00     0.085 C 
BRANCH  31  32
HETATM   32  C   UNL     1      44.129 -19.060   2.735  1.00  0.00     0.034 C 
BRANCH  32  33
HETATM   33  C   UNL     1      43.491 -20.424   2.504  1.00  0.00     0.164 C 
BRANCH  33  34
HETATM   34  O   UNL     1      44.014 -21.361   3.439  1.00  0.00    -0.401 OA
HETATM   35  H   UNL     1      44.487 -20.859   4.125  1.00  0.00     0.209 HD
ENDBRANCH  33  34
ENDBRANCH  32  33
ENDBRANCH  31  32
ENDBRANCH   5  31
TORSDOF 8
ENDMDL
MODEL 6
REMARK VINA RESULT:      -7.7      3.339      6.215
REMARK  8 active torsions:
REMARK  status: ('A' for Active; 'I' for Inactive)
REMARK    1  A    between atoms: C_2  and  C_3 
REMARK    2  A    between atoms: C_6  and  C_7 
REMARK    3  A    between atoms: C_11  and  C_12 
REMARK    4  A    between atoms: C_12  and  C_13 
REMARK    5  A    between atoms: C_13  and  C_14 
REMARK    6  A    between atoms: C_14  and  O_15 
REMARK    7  A    between atoms: C_20  and  C_21 
REMARK       I    between atoms: C_21  and  N_22 
REMARK    8  A    between atoms: N_22  and  C_23 
ROOT
HETATM    1  C   UNL     1      40.748 -12.515   5.238  1.00  0.00     0.202 C 
HETATM    2  N   UNL     1      40.678 -11.155   5.787  1.00  0.00    -0.083 N 
HETATM    3  C   UNL     1      41.723 -10.534   6.416  1.00  0.00     0.726 A 
HETATM    4  N   UNL     1      41.332  -9.369   6.865  1.00  0.00    -0.046 NA
HETATM    5  C   UNL     1      40.001  -9.335   6.516  1.00  0.00     0.166 A 
HETATM    6  N   UNL     1      39.551 -10.418   5.865  1.00  0.00    -0.140 NA
HETATM    7  N   UNL     1      42.900 -11.177   6.544  1.00  0.00    -0.192 N 
HETATM    8  C   UNL     1      43.049 -12.533   6.266  1.00  0.00     0.037 C 
HETATM    9  C   UNL     1      44.308 -13.166   6.808  1.00  0.00     0.070 C 
HETATM   10  C   UNL     1      42.056 -13.201   5.627  1.00  0.00     0.062 C 
HETATM   11  H   UNL     1      43.610 -10.737   7.125  1.00  0.00     0.184 HD
ENDROOT
BRANCH  10  12
HETATM   12  C   UNL     1      42.055 -14.668   5.366  1.00  0.00     0.256 C 
HETATM   13  N   UNL     1      42.881 -15.055   4.334  1.00  0.00    -0.323 N 
HETATM   14  H   UNL     1      43.385 -14.325   3.850  1.00  0.00     0.169 HD
HETATM   15  O   UNL     1      41.331 -15.383   6.047  1.00  0.00    -0.267 OA
BRANCH  13  16
HETATM   16  C   UNL     1      43.152 -16.375   3.916  1.00  0.00     0.035 A 
HETATM   17  C   UNL     1      43.960 -17.268   4.625  1.00  0.00     0.031 A 
HETATM   18  C   UNL     1      44.203 -18.554   4.131  1.00  0.00     0.026 A 
HETATM   19  C   UNL     1      43.645 -18.951   2.919  1.00  0.00     0.034 A 
HETATM   20 CL   UNL     1      43.959 -20.525   2.303  1.00  0.00    -0.084 Cl
HETATM   21  C   UNL     1      42.835 -18.075   2.203  1.00  0.00     0.026 A 
HETATM   22  C   UNL     1      42.582 -16.794   2.705  1.00  0.00     0.031 A 
ENDBRANCH  13  16
ENDBRANCH  10  12
BRANCH   1  23
HETATM   23  C   UNL     1      40.530 -12.492   3.728  1.00  0.00    -0.028 A 
HETATM   24  C   UNL     1      39.327 -12.918   3.142  1.00  0.00     0.010 A 
HETATM   25  C   UNL     1      39.160 -12.891   1.753  1.00  0.00     0.007 A 
HETATM   26  C   UNL     1      40.191 -12.436   0.922  1.00  0.00    -0.059 A 
HETATM   27  C   UNL     1      41.383 -11.991   1.503  1.00  0.00     0.007 A 
HETATM   28  C   UNL     1      41.549 -12.016   2.889  1.00  0.00     0.010 A 
BRANCH  26  29
HETATM   29  C   UNL     1      40.021 -12.418  -0.577  1.00  0.00     0.034 C 
HETATM   30  C   UNL     1      40.142 -13.806  -1.185  1.00  0.00     0.010 C 
ENDBRANCH  26  29
ENDBRANCH   1  23
BRANCH   5  31
HETATM   31  C   UNL     1      39.112  -8.204   6.887  1.00  0.00     0.085 C 
BRANCH  31  32
HETATM   32  C   UNL     1      38.834  -7.236   5.740  1.00  0.00     0.034 C 
BRANCH  32  33
HETATM   33  C   UNL     1      37.386  -7.276   5.270  1.00  0.00     0.164 C 
BRANCH  33  34
HETATM   34  O   UNL     1      36.930  -8.625   5.244  1.00  0.00    -0.401 OA
HETATM   35  H   UNL     1      36.038  -8.641   5.632  1.00  0.00     0.209 HD
ENDBRANCH  33  34
ENDBRANCH  32  33
ENDBRANCH  31  32
ENDBRANCH   5  31
TORSDOF 8
ENDMDL
MODEL 7
REMARK VINA RESULT:      -7.4      3.602      9.135
REMARK  8 active torsions:
REMARK  status: ('A' for Active; 'I' for Inactive)
REMARK    1  A    between atoms: C_2  and  C_3 
REMARK    2  A    between atoms: C_6  and  C_7 
REMARK    3  A    between atoms: C_11  and  C_12 
REMARK    4  A    between atoms: C_12  and  C_13 
REMARK    5  A    between atoms: C_13  and  C_14 
REMARK    6  A    between atoms: C_14  and  O_15 
REMARK    7  A    between atoms: C_20  and  C_21 
REMARK       I    between atoms: C_21  and  N_22 
REMARK    8  A    between atoms: N_22  and  C_23 
ROOT
HETATM    1  C   UNL     1      41.553 -11.671   2.109  1.00  0.00     0.202 C 
HETATM    2  N   UNL     1      40.859 -12.424   1.057  1.00  0.00    -0.083 N 
HETATM    3  C   UNL     1      40.780 -13.789   1.024  1.00  0.00     0.726 A 
HETATM    4  N   UNL     1      40.172 -14.165  -0.072  1.00  0.00    -0.046 NA
HETATM    5  C   UNL     1      39.927 -12.972  -0.713  1.00  0.00     0.166 A 
HETATM    6  N   UNL     1      40.346 -11.875  -0.064  1.00  0.00    -0.140 NA
HETATM    7  N   UNL     1      41.353 -14.513   2.006  1.00  0.00    -0.192 N 
HETATM    8  C   UNL     1      42.217 -13.954   2.944  1.00  0.00     0.037 C 
HETATM    9  C   UNL     1      43.045 -14.946   3.725  1.00  0.00     0.070 C 
HETATM   10  C   UNL     1      42.325 -12.605   3.039  1.00  0.00     0.062 C 
HETATM   11  H   UNL     1      41.383 -15.521   1.883  1.00  0.00     0.184 HD
ENDROOT
BRANCH  10  12
HETATM   12  C   UNL     1      43.286 -11.894   3.927  1.00  0.00     0.256 C 
HETATM   13  N   UNL     1      42.867 -11.785   5.235  1.00  0.00    -0.323 N 
HETATM   14  H   UNL     1      41.961 -12.172   5.461  1.00  0.00     0.169 HD
HETATM   15  O   UNL     1      44.322 -11.458   3.440  1.00  0.00    -0.267 OA
BRANCH  13  16
HETATM   16  C   UNL     1      43.595 -11.245   6.316  1.00  0.00     0.035 A 
HETATM   17  C   UNL     1      44.917 -11.585   6.614  1.00  0.00     0.031 A 
HETATM   18  C   UNL     1      45.564 -11.025   7.721  1.00  0.00     0.026 A 
HETATM   19  C   UNL     1      44.887 -10.126   8.541  1.00  0.00     0.034 A 
HETATM   20 CL   UNL     1      45.677  -9.453   9.911  1.00  0.00    -0.084 Cl
HETATM   21  C   UNL     1      43.571  -9.774   8.255  1.00  0.00     0.026 A 
HETATM   22  C   UNL     1      42.931 -10.325   7.140  1.00  0.00     0.031 A 
ENDBRANCH  13  16
ENDBRANCH  10  12
BRANCH   1  23
HETATM   23  C   UNL     1      40.571 -10.780   2.864  1.00  0.00    -0.028 A 
HETATM   24  C   UNL     1      39.545 -11.311   3.663  1.00  0.00     0.010 A 
HETATM   25  C   UNL     1      38.657 -10.467   4.338  1.00  0.00     0.007 A 
HETATM   26  C   UNL     1      38.774  -9.076   4.229  1.00  0.00    -0.059 A 
HETATM   27  C   UNL     1      39.808  -8.544   3.451  1.00  0.00     0.007 A 
HETATM   28  C   UNL     1      40.697  -9.385   2.779  1.00  0.00     0.010 A 
BRANCH  26  29
HETATM   29  C   UNL     1      37.810  -8.163   4.944  1.00  0.00     0.034 C 
HETATM   30  C   UNL     1      38.341  -6.743   5.055  1.00  0.00     0.010 C 
ENDBRANCH  26  29
ENDBRANCH   1  23
BRANCH   5  31
HETATM   31  C   UNL     1      39.297 -12.909  -2.058  1.00  0.00     0.085 C 
BRANCH  31  32
HETATM   32  C   UNL     1      39.587 -14.125  -2.932  1.00  0.00     0.034 C 
BRANCH  32  33
HETATM   33  C   UNL     1      38.328 -14.895  -3.311  1.00  0.00     0.164 C 
BRANCH  33  34
HETATM   34  O   UNL     1      38.268 -16.107  -2.567  1.00  0.00    -0.401 OA
HETATM   35  H   UNL     1      37.959 -15.888  -1.672  1.00  0.00     0.209 HD
ENDBRANCH  33  34
ENDBRANCH  32  33
ENDBRANCH  31  32
ENDBRANCH   5  31
TORSDOF 8
ENDMDL
MODEL 8
REMARK VINA RESULT:      -7.2     17.274     19.722
REMARK  8 active torsions:
REMARK  status: ('A' for Active; 'I' for Inactive)
REMARK    1  A    between atoms: C_2  and  C_3 
REMARK    2  A    between atoms: C_6  and  C_7 
REMARK    3  A    between atoms: C_11  and  C_12 
REMARK    4  A    between atoms: C_12  and  C_13 
REMARK    5  A    between atoms: C_13  and  C_14 
REMARK    6  A    between atoms: C_14  and  O_15 
REMARK    7  A    between atoms: C_20  and  C_21 
REMARK       I    between atoms: C_21  and  N_22 
REMARK    8  A    between atoms: N_22  and  C_23 
ROOT
HETATM    1  C   UNL     1      50.023 -30.485   3.349  1.00  0.00     0.202 C 
HETATM    2  N   UNL     1      50.540 -31.173   4.538  1.00  0.00    -0.083 N 
HETATM    3  C   UNL     1      49.752 -31.845   5.432  1.00  0.00     0.726 A 
HETATM    4  N   UNL     1      50.488 -32.279   6.423  1.00  0.00    -0.046 NA
HETATM    5  C   UNL     1      51.740 -31.805   6.108  1.00  0.00     0.166 A 
HETATM    6  N   UNL     1      51.819 -31.106   4.965  1.00  0.00    -0.140 NA
HETATM    7  N   UNL     1      48.421 -31.906   5.231  1.00  0.00    -0.192 N 
HETATM    8  C   UNL     1      47.769 -31.132   4.274  1.00  0.00     0.037 C 
HETATM    9  C   UNL     1      46.271 -31.045   4.429  1.00  0.00     0.070 C 
HETATM   10  C   UNL     1      48.496 -30.457   3.348  1.00  0.00     0.062 C 
HETATM   11  H   UNL     1      47.855 -32.302   5.977  1.00  0.00     0.184 HD
ENDROOT
BRANCH  10  12
HETATM   12  C   UNL     1      47.922 -29.519   2.343  1.00  0.00     0.256 C 
HETATM   13  N   UNL     1      47.539 -30.123   1.165  1.00  0.00    -0.323 N 
HETATM   14  H   UNL     1      47.694 -31.119   1.088  1.00  0.00     0.169 HD
HETATM   15  O   UNL     1      47.861 -28.328   2.621  1.00  0.00    -0.267 OA
BRANCH  13  16
HETATM   16  C   UNL     1      46.890 -29.513   0.072  1.00  0.00     0.035 A 
HETATM   17  C   UNL     1      45.511 -29.299   0.004  1.00  0.00     0.031 A 
HETATM   18  C   UNL     1      44.937 -28.710  -1.129  1.00  0.00     0.026 A 
HETATM   19  C   UNL     1      45.741 -28.338  -2.202  1.00  0.00     0.034 A 
HETATM   20 CL   UNL     1      45.033 -27.631  -3.600  1.00  0.00    -0.084 Cl
HETATM   21  C   UNL     1      47.117 -28.541  -2.148  1.00  0.00     0.026 A 
HETATM   22  C   UNL     1      47.690 -29.118  -1.010  1.00  0.00     0.031 A 
ENDBRANCH  13  16
ENDBRANCH  10  12
BRANCH   1  23
HETATM   23  C   UNL     1      50.594 -31.112   2.080  1.00  0.00    -0.028 A 
HETATM   24  C   UNL     1      50.865 -32.487   1.984  1.00  0.00     0.010 A 
HETATM   25  C   UNL     1      51.394 -33.030   0.809  1.00  0.00     0.007 A 
HETATM   26  C   UNL     1      51.663 -32.212  -0.295  1.00  0.00    -0.059 A 
HETATM   27  C   UNL     1      51.375 -30.845  -0.211  1.00  0.00     0.007 A 
HETATM   28  C   UNL     1      50.844 -30.303   0.961  1.00  0.00     0.010 A 
BRANCH  26  29
HETATM   29  C   UNL     1      52.246 -32.791  -1.559  1.00  0.00     0.034 C 
HETATM   30  C   UNL     1      53.765 -32.719  -1.575  1.00  0.00     0.010 C 
ENDBRANCH  26  29
ENDBRANCH   1  23
BRANCH   5  31
HETATM   31  C   UNL     1      52.912 -32.003   7.001  1.00  0.00     0.085 C 
BRANCH  31  32
HETATM   32  C   UNL     1      54.104 -32.665   6.316  1.00  0.00     0.034 C 
BRANCH  32  33
HETATM   33  C   UNL     1      55.370 -31.821   6.387  1.00  0.00     0.164 C 
BRANCH  33  34
HETATM   34  O   UNL     1      55.123 -30.653   7.162  1.00  0.00    -0.401 OA
HETATM   35  H   UNL     1      54.591 -30.918   7.931  1.00  0.00     0.209 HD
ENDBRANCH  33  34
ENDBRANCH  32  33
ENDBRANCH  31  32
ENDBRANCH   5  31
TORSDOF 8
ENDMDL
MODEL 9
REMARK VINA RESULT:      -7.2     17.019     19.864
REMARK  8 active torsions:
REMARK  status: ('A' for Active; 'I' for Inactive)
REMARK    1  A    between atoms: C_2  and  C_3 
REMARK    2  A    between atoms: C_6  and  C_7 
REMARK    3  A    between atoms: C_11  and  C_12 
REMARK    4  A    between atoms: C_12  and  C_13 
REMARK    5  A    between atoms: C_13  and  C_14 
REMARK    6  A    between atoms: C_14  and  O_15 
REMARK    7  A    between atoms: C_20  and  C_21 
REMARK       I    between atoms: C_21  and  N_22 
REMARK    8  A    between atoms: N_22  and  C_23 
ROOT
HETATM    1  C   UNL     1      45.443 -30.809  -0.751  1.00  0.00     0.202 C 
HETATM    2  N   UNL     1      44.282 -30.679   0.139  1.00  0.00    -0.083 N 
HETATM    3  C   UNL     1      44.115 -29.652   1.027  1.00  0.00     0.726 A 
HETATM    4  N   UNL     1      43.032 -29.856   1.732  1.00  0.00    -0.046 NA
HETATM    5  C   UNL     1      42.580 -31.066   1.259  1.00  0.00     0.166 A 
HETATM    6  N   UNL     1      43.325 -31.619   0.290  1.00  0.00    -0.140 NA
HETATM    7  N   UNL     1      45.047 -28.681   1.104  1.00  0.00    -0.192 N 
HETATM    8  C   UNL     1      46.289 -28.780   0.482  1.00  0.00     0.037 C 
HETATM    9  C   UNL     1      47.330 -27.801   0.967  1.00  0.00     0.070 C 
HETATM   10  C   UNL     1      46.510 -29.767  -0.422  1.00  0.00     0.062 C 
HETATM   11  H   UNL     1      44.953 -28.006   1.858  1.00  0.00     0.184 HD
ENDROOT
BRANCH  10  12
HETATM   12  C   UNL     1      47.822 -30.038  -1.074  1.00  0.00     0.256 C 
HETATM   13  N   UNL     1      48.756 -30.611  -0.239  1.00  0.00    -0.323 N 
HETATM   14  H   UNL     1      48.477 -30.775   0.719  1.00  0.00     0.169 HD
HETATM   15  O   UNL     1      47.970 -29.720  -2.247  1.00  0.00    -0.267 OA
BRANCH  13  16
HETATM   16  C   UNL     1      50.047 -31.057  -0.591  1.00  0.00     0.035 A 
HETATM   17  C   UNL     1      50.739 -30.627  -1.726  1.00  0.00     0.031 A 
HETATM   18  C   UNL     1      52.008 -31.137  -2.021  1.00  0.00     0.026 A 
HETATM   19  C   UNL     1      52.588 -32.086  -1.185  1.00  0.00     0.034 A 
HETATM   20 CL   UNL     1      54.140 -32.725  -1.559  1.00  0.00    -0.084 Cl
HETATM   21  C   UNL     1      51.914 -32.521  -0.048  1.00  0.00     0.026 A 
HETATM   22  C   UNL     1      50.651 -32.001   0.253  1.00  0.00     0.031 A 
ENDBRANCH  13  16
ENDBRANCH  10  12
BRANCH   1  23
HETATM   23  C   UNL     1      45.003 -30.751  -2.211  1.00  0.00    -0.028 A 
HETATM   24  C   UNL     1      44.331 -29.639  -2.744  1.00  0.00     0.010 A 
HETATM   25  C   UNL     1      43.936 -29.619  -4.086  1.00  0.00     0.007 A 
HETATM   26  C   UNL     1      44.205 -30.709  -4.923  1.00  0.00    -0.059 A 
HETATM   27  C   UNL     1      44.893 -31.810  -4.401  1.00  0.00     0.007 A 
HETATM   28  C   UNL     1      45.290 -31.830  -3.063  1.00  0.00     0.010 A 
BRANCH  26  29
HETATM   29  C   UNL     1      43.769 -30.698  -6.367  1.00  0.00     0.034 C 
HETATM   30  C   UNL     1      44.618 -31.618  -7.229  1.00  0.00     0.010 C 
ENDBRANCH  26  29
ENDBRANCH   1  23
BRANCH   5  31
HETATM   31  C   UNL     1      41.384 -31.742   1.825  1.00  0.00     0.085 C 
BRANCH  31  32
HETATM   32  C   UNL     1      41.491 -32.040   3.317  1.00  0.00     0.034 C 
BRANCH  32  33
HETATM   33  C   UNL     1      40.765 -31.015   4.179  1.00  0.00     0.164 C 
BRANCH  33  34
HETATM   34  O   UNL     1      41.647 -29.941   4.491  1.00  0.00    -0.401 OA
HETATM   35  H   UNL     1      41.760 -29.410   3.685  1.00  0.00     0.209 HD
ENDBRANCH  33  34
ENDBRANCH  32  33
ENDBRANCH  31  32
ENDBRANCH   5  31
TORSDOF 8
ENDMDL
MODEL 10
REMARK VINA RESULT:      -7.1     17.478     19.666
REMARK  8 active torsions:
REMARK  status: ('A' for Active; 'I' for Inactive)
REMARK    1  A    between atoms: C_2  and  C_3 
REMARK    2  A    between atoms: C_6  and  C_7 
REMARK    3  A    between atoms: C_11  and  C_12 
REMARK    4  A    between atoms: C_12  and  C_13 
REMARK    5  A    between atoms: C_13  and  C_14 
REMARK    6  A    between atoms: C_14  and  O_15 
REMARK    7  A    between atoms: C_20  and  C_21 
REMARK       I    between atoms: C_21  and  N_22 
REMARK    8  A    between atoms: N_22  and  C_23 
ROOT
HETATM    1  C   UNL     1      45.159 -31.006   0.482  1.00  0.00     0.202 C 
HETATM    2  N   UNL     1      44.075 -30.478   1.320  1.00  0.00    -0.083 N 
HETATM    3  C   UNL     1      44.228 -29.440   2.197  1.00  0.00     0.726 A 
HETATM    4  N   UNL     1      43.112 -29.255   2.854  1.00  0.00    -0.046 NA
HETATM    5  C   UNL     1      42.298 -30.250   2.365  1.00  0.00     0.166 A 
HETATM    6  N   UNL     1      42.852 -31.038   1.431  1.00  0.00    -0.140 NA
HETATM    7  N   UNL     1      45.428 -28.838   2.313  1.00  0.00    -0.192 N 
HETATM    8  C   UNL     1      46.588 -29.360   1.747  1.00  0.00     0.037 C 
HETATM    9  C   UNL     1      47.878 -28.780   2.274  1.00  0.00     0.070 C 
HETATM   10  C   UNL     1      46.501 -30.379   0.855  1.00  0.00     0.062 C 
HETATM   11  H   UNL     1      45.537 -28.158   3.061  1.00  0.00     0.184 HD
ENDROOT
BRANCH  10  12
HETATM   12  C   UNL     1      47.670 -31.086   0.262  1.00  0.00     0.256 C 
HETATM   13  N   UNL     1      48.154 -30.504  -0.889  1.00  0.00    -0.323 N 
HETATM   14  H   UNL     1      47.672 -29.681  -1.226  1.00  0.00     0.169 HD
HETATM   15  O   UNL     1      48.078 -32.103   0.808  1.00  0.00    -0.267 OA
BRANCH  13  16
HETATM   16  C   UNL     1      49.295 -30.894  -1.621  1.00  0.00     0.035 A 
HETATM   17  C   UNL     1      50.552 -30.299  -1.482  1.00  0.00     0.031 A 
HETATM   18  C   UNL     1      51.631 -30.725  -2.264  1.00  0.00     0.026 A 
HETATM   19  C   UNL     1      51.456 -31.745  -3.195  1.00  0.00     0.034 A 
HETATM   20 CL   UNL     1      52.779 -32.255  -4.168  1.00  0.00    -0.084 Cl
HETATM   21  C   UNL     1      50.212 -32.350  -3.341  1.00  0.00     0.026 A 
HETATM   22  C   UNL     1      49.137 -31.932  -2.550  1.00  0.00     0.031 A 
ENDBRANCH  13  16
ENDBRANCH  10  12
BRANCH   1  23
HETATM   23  C   UNL     1      44.824 -30.828  -0.997  1.00  0.00    -0.028 A 
HETATM   24  C   UNL     1      44.672 -31.922  -1.864  1.00  0.00     0.010 A 
HETATM   25  C   UNL     1      44.371 -31.725  -3.215  1.00  0.00     0.007 A 
HETATM   26  C   UNL     1      44.217 -30.432  -3.729  1.00  0.00    -0.059 A 
HETATM   27  C   UNL     1      44.347 -29.341  -2.864  1.00  0.00     0.007 A 
HETATM   28  C   UNL     1      44.645 -29.536  -1.514  1.00  0.00     0.010 A 
BRANCH  26  29
HETATM   29  C   UNL     1      43.906 -30.215  -5.189  1.00  0.00     0.034 C 
HETATM   30  C   UNL     1      44.472 -31.321  -6.066  1.00  0.00     0.010 C 
ENDBRANCH  26  29
ENDBRANCH   1  23
BRANCH   5  31
HETATM   31  C   UNL     1      40.922 -30.475   2.879  1.00  0.00     0.085 C 
BRANCH  31  32
HETATM   32  C   UNL     1      40.446 -31.919   2.758  1.00  0.00     0.034 C 
BRANCH  32  33
HETATM   33  C   UNL     1      39.881 -32.467   4.062  1.00  0.00     0.164 C 
BRANCH  33  34
HETATM   34  O   UNL     1      39.404 -31.393   4.865  1.00  0.00    -0.401 OA
HETATM   35  H   UNL     1      39.990 -31.319   5.636  1.00  0.00     0.209 HD
ENDBRANCH  33  34
ENDBRANCH  32  33
ENDBRANCH  31  32
ENDBRANCH   5  31
TORSDOF 8
ENDMDL
