MODEL 1
REMARK VINA RESULT:      -9.1      0.000      0.000
REMARK  4 active torsions:
REMARK  status: ('A' for Active; 'I' for Inactive)
REMARK    1  A    between atoms: C_5  and  C_6 
REMARK    2  A    between atoms: C_6  and  N_7 
REMARK    3  A    between atoms: C_17  and  C_18 
REMARK    4  A    between atoms: C_27  and  C_28 
ROOT
HETATM    1  N   UNL     1      41.791 -11.606   5.138  1.00  0.00    -0.067 N 
HETATM    2  H   UNL     1      41.463 -10.633   5.060  1.00  0.00     0.280 HD
HETATM    3  C   UNL     1      42.470 -11.946   3.841  1.00  0.00     0.236 C 
HETATM    4  C   UNL     1      42.785 -13.439   3.740  1.00  0.00     0.039 C 
HETATM    5  C   UNL     1      41.581 -14.385   4.005  1.00  0.00    -0.013 C 
HETATM    6  C   UNL     1      40.562 -14.409   2.830  1.00  0.00     0.244 C 
HETATM    7  N   UNL     1      41.119 -15.084   1.600  1.00  0.00    -0.073 N 
HETATM    8  H   UNL     1      41.937 -14.572   1.244  1.00  0.00     0.279 HD
HETATM    9  C   UNL     1      40.120 -15.072   0.458  1.00  0.00     0.269 C 
HETATM   10  C   UNL     1      41.583 -16.510   1.865  1.00  0.00     0.243 C 
HETATM   11  C   UNL     1      42.646 -16.502   2.968  1.00  0.00     0.045 C 
HETATM   12  C   UNL     1      42.094 -15.836   4.242  1.00  0.00     0.022 C 
HETATM   13  C   UNL     1      40.873 -13.918   5.312  1.00  0.00     0.039 C 
HETATM   14  C   UNL     1      40.550 -12.426   5.367  1.00  0.00     0.236 C 
ENDROOT
BRANCH  11  15
HETATM   15  C   UNL     1      43.169 -17.899   3.228  1.00  0.00    -0.052 A 
HETATM   16  C   UNL     1      43.052 -18.879   2.228  1.00  0.00     0.007 A 
HETATM   17  C   UNL     1      43.506 -20.179   2.447  1.00  0.00     0.001 A 
HETATM   18  C   UNL     1      44.084 -20.521   3.665  1.00  0.00     0.000 A 
HETATM   19  C   UNL     1      44.211 -19.562   4.666  1.00  0.00     0.001 A 
HETATM   20  C   UNL     1      43.757 -18.259   4.452  1.00  0.00     0.007 A 
ENDBRANCH  11  15
BRANCH   1  21
HETATM   21  C   UNL     1      42.707 -11.553   6.365  1.00  0.00     0.277 C 
BRANCH  21  22
HETATM   22  C   UNL     1      42.709 -10.293   7.154  1.00  0.00     0.011 A 
HETATM   23  C   UNL     1      41.639  -9.376   7.315  1.00  0.00     0.149 A 
HETATM   24  N   UNL     1      41.962  -8.310   8.033  1.00  0.00    -0.185 NA
HETATM   25  N   UNL     1      43.226  -8.544   8.414  1.00  0.00    -0.278 N 
HETATM   26  C   UNL     1      43.898  -7.582   9.261  1.00  0.00     0.179 C 
HETATM   27  C   UNL     1      43.715  -9.744   7.944  1.00  0.00     0.043 A 
BRANCH  27  28
HETATM   28  C   UNL     1      45.099 -10.274   8.322  1.00  0.00     0.038 A 
HETATM   29  C   UNL     1      46.013 -10.794   7.233  1.00  0.00     0.011 A 
HETATM   30  C   UNL     1      46.373  -9.547   7.967  1.00  0.00     0.011 A 
ENDBRANCH  27  28
ENDBRANCH  21  22
ENDBRANCH   1  21
TORSDOF 4
ENDMDL
MODEL 2
REMARK VINA RESULT:      -9.0      3.824      7.862
REMARK  4 active torsions:
REMARK  status: ('A' for Active; 'I' for Inactive)
REMARK    1  A    between atoms: C_5  and  C_6 
REMARK    2  A    between atoms: C_6  and  N_7 
REMARK    3  A    between atoms: C_17  and  C_18 
REMARK    4  A    between atoms: C_27  and  C_28 
ROOT
HETATM    1  N   UNL     1      42.755 -14.976   4.799  1.00  0.00    -0.067 N 
HETATM    2  H   UNL     1      43.178 -14.867   5.732  1.00  0.00     0.280 HD
HETATM    3  C   UNL     1      42.865 -13.646   4.108  1.00  0.00     0.236 C 
HETATM    4  C   UNL     1      42.055 -13.612   2.811  1.00  0.00     0.039 C 
HETATM    5  C   UNL     1      40.570 -14.048   2.950  1.00  0.00    -0.013 C 
HETATM    6  C   UNL     1      39.691 -12.977   3.657  1.00  0.00     0.244 C 
HETATM    7  N   UNL     1      39.490 -11.746   2.806  1.00  0.00    -0.073 N 
HETATM    8  H   UNL     1      40.389 -11.283   2.619  1.00  0.00     0.279 HD
HETATM    9  C   UNL     1      38.654 -10.703   3.523  1.00  0.00     0.269 C 
HETATM   10  C   UNL     1      38.873 -12.057   1.448  1.00  0.00     0.243 C 
HETATM   11  C   UNL     1      39.766 -13.054   0.702  1.00  0.00     0.045 C 
HETATM   12  C   UNL     1      39.969 -14.328   1.542  1.00  0.00     0.022 C 
HETATM   13  C   UNL     1      40.527 -15.382   3.754  1.00  0.00     0.039 C 
HETATM   14  C   UNL     1      41.326 -15.371   5.056  1.00  0.00     0.236 C 
ENDROOT
BRANCH  11  15
HETATM   15  C   UNL     1      39.212 -13.353  -0.675  1.00  0.00    -0.052 A 
HETATM   16  C   UNL     1      38.265 -12.485  -1.243  1.00  0.00     0.007 A 
HETATM   17  C   UNL     1      37.722 -12.746  -2.501  1.00  0.00     0.001 A 
HETATM   18  C   UNL     1      38.115 -13.876  -3.210  1.00  0.00     0.000 A 
HETATM   19  C   UNL     1      39.055 -14.746  -2.664  1.00  0.00     0.001 A 
HETATM   20  C   UNL     1      39.601 -14.488  -1.404  1.00  0.00     0.007 A 
ENDBRANCH  11  15
BRANCH   1  21
HETATM   21  C   UNL     1      43.586 -16.107   4.184  1.00  0.00     0.277 C 
BRANCH  21  22
HETATM   22  C   UNL     1      43.615 -17.400   4.917  1.00  0.00     0.011 A 
HETATM   23  C   UNL     1      43.335 -17.619   6.290  1.00  0.00     0.149 A 
HETATM   24  N   UNL     1      43.501 -18.878   6.667  1.00  0.00    -0.185 NA
HETATM   25  N   UNL     1      43.823 -19.519   5.534  1.00  0.00    -0.278 N 
HETATM   26  C   UNL     1      44.044 -20.948   5.569  1.00  0.00     0.179 C 
HETATM   27  C   UNL     1      43.869 -18.683   4.439  1.00  0.00     0.043 A 
BRANCH  27  28
HETATM   28  C   UNL     1      44.123 -19.197   3.021  1.00  0.00     0.038 A 
HETATM   29  C   UNL     1      43.131 -20.153   2.394  1.00  0.00     0.011 A 
HETATM   30  C   UNL     1      43.281 -18.776   1.842  1.00  0.00     0.011 A 
ENDBRANCH  27  28
ENDBRANCH  21  22
ENDBRANCH   1  21
TORSDOF 4
ENDMDL
MODEL 3
REMARK VINA RESULT:      -9.0      3.472      7.143
REMARK  4 active torsions:
REMARK  status: ('A' for Active; 'I' for Inactive)
REMARK    1  A    between atoms: C_5  and  C_6 
REMARK    2  A    between atoms: C_6  and  N_7 
REMARK    3  A    between atoms: C_17  and  C_18 
REMARK    4  A    between atoms: C_27  and  C_28 
ROOT
HETATM    1  N   UNL     1      40.260 -12.573   1.985  1.00  0.00    -0.067 N 
HETATM    2  H   UNL     1      39.873 -11.622   2.076  1.00  0.00     0.280 HD
HETATM    3  C   UNL     1      39.946 -13.299   3.262  1.00  0.00     0.236 C 
HETATM    4  C   UNL     1      40.679 -14.639   3.348  1.00  0.00     0.039 C 
HETATM    5  C   UNL     1      42.213 -14.567   3.107  1.00  0.00    -0.013 C 
HETATM    6  C   UNL     1      42.983 -13.945   4.306  1.00  0.00     0.244 C 
HETATM    7  N   UNL     1      42.982 -14.845   5.519  1.00  0.00    -0.073 N 
HETATM    8  H   UNL     1      42.023 -14.997   5.858  1.00  0.00     0.279 HD
HETATM    9  C   UNL     1      43.714 -14.208   6.686  1.00  0.00     0.269 C 
HETATM   10  C   UNL     1      43.564 -16.223   5.234  1.00  0.00     0.243 C 
HETATM   11  C   UNL     1      42.769 -16.887   4.105  1.00  0.00     0.045 C 
HETATM   12  C   UNL     1      42.773 -15.997   2.849  1.00  0.00     0.022 C 
HETATM   13  C   UNL     1      42.465 -13.725   1.820  1.00  0.00     0.039 C 
HETATM   14  C   UNL     1      41.738 -12.381   1.783  1.00  0.00     0.236 C 
ENDROOT
BRANCH  11  15
HETATM   15  C   UNL     1      43.287 -18.282   3.824  1.00  0.00    -0.052 A 
HETATM   16  C   UNL     1      43.175 -18.813   2.528  1.00  0.00     0.007 A 
HETATM   17  C   UNL     1      43.624 -20.102   2.245  1.00  0.00     0.001 A 
HETATM   18  C   UNL     1      44.191 -20.881   3.249  1.00  0.00     0.000 A 
HETATM   19  C   UNL     1      44.312 -20.370   4.538  1.00  0.00     0.001 A 
HETATM   20  C   UNL     1      43.863 -19.079   4.826  1.00  0.00     0.007 A 
ENDBRANCH  11  15
BRANCH   1  21
HETATM   21  C   UNL     1      39.549 -13.104   0.735  1.00  0.00     0.277 C 
BRANCH  21  22
HETATM   22  C   UNL     1      38.839 -12.111  -0.113  1.00  0.00     0.011 A 
HETATM   23  C   UNL     1      38.751 -10.710   0.092  1.00  0.00     0.149 A 
HETATM   24  N   UNL     1      37.996 -10.093  -0.806  1.00  0.00    -0.185 NA
HETATM   25  N   UNL     1      37.636 -11.067  -1.654  1.00  0.00    -0.278 N 
HETATM   26  C   UNL     1      36.820 -10.738  -2.803  1.00  0.00     0.179 C 
HETATM   27  C   UNL     1      38.146 -12.299  -1.306  1.00  0.00     0.043 A 
BRANCH  27  28
HETATM   28  C   UNL     1      37.952 -13.546  -2.170  1.00  0.00     0.038 A 
HETATM   29  C   UNL     1      38.910 -13.811  -3.311  1.00  0.00     0.011 A 
HETATM   30  C   UNL     1      38.900 -14.719  -2.129  1.00  0.00     0.011 A 
ENDBRANCH  27  28
ENDBRANCH  21  22
ENDBRANCH   1  21
TORSDOF 4
ENDMDL
MODEL 4
REMARK VINA RESULT:      -8.9      1.203      2.038
REMARK  4 active torsions:
REMARK  status: ('A' for Active; 'I' for Inactive)
REMARK    1  A    between atoms: C_5  and  C_6 
REMARK    2  A    between atoms: C_6  and  N_7 
REMARK    3  A    between atoms: C_17  and  C_18 
REMARK    4  A    between atoms: C_27  and  C_28 
ROOT
HETATM    1  N   UNL     1      41.962 -12.282   5.857  1.00  0.00    -0.067 N 
HETATM    2  H   UNL     1      41.675 -11.294   5.908  1.00  0.00     0.280 HD
HETATM    3  C   UNL     1      42.708 -12.457   4.564  1.00  0.00     0.236 C 
HETATM    4  C   UNL     1      42.972 -13.932   4.257  1.00  0.00     0.039 C 
HETATM    5  C   UNL     1      41.720 -14.850   4.308  1.00  0.00    -0.013 C 
HETATM    6  C   UNL     1      40.776 -14.652   3.087  1.00  0.00     0.244 C 
HETATM    7  N   UNL     1      41.383 -15.163   1.803  1.00  0.00    -0.073 N 
HETATM    8  H   UNL     1      42.241 -14.642   1.574  1.00  0.00     0.279 HD
HETATM    9  C   UNL     1      40.460 -14.934   0.621  1.00  0.00     0.269 C 
HETATM   10  C   UNL     1      41.776 -16.632   1.876  1.00  0.00     0.243 C 
HETATM   11  C   UNL     1      42.767 -16.837   3.026  1.00  0.00     0.045 C 
HETATM   12  C   UNL     1      42.162 -16.342   4.352  1.00  0.00     0.022 C 
HETATM   13  C   UNL     1      40.949 -14.549   5.628  1.00  0.00     0.039 C 
HETATM   14  C   UNL     1      40.679 -13.068   5.889  1.00  0.00     0.236 C 
ENDROOT
BRANCH  11  15
HETATM   15  C   UNL     1      43.220 -18.279   3.102  1.00  0.00    -0.052 A 
HETATM   16  C   UNL     1      43.062 -19.114   1.982  1.00  0.00     0.007 A 
HETATM   17  C   UNL     1      43.451 -20.452   2.030  1.00  0.00     0.001 A 
HETATM   18  C   UNL     1      44.004 -20.978   3.193  1.00  0.00     0.000 A 
HETATM   19  C   UNL     1      44.170 -20.165   4.311  1.00  0.00     0.001 A 
HETATM   20  C   UNL     1      43.782 -18.824   4.268  1.00  0.00     0.007 A 
ENDBRANCH  11  15
BRANCH   1  21
HETATM   21  C   UNL     1      42.800 -12.454   7.128  1.00  0.00     0.277 C 
BRANCH  21  22
HETATM   22  C   UNL     1      43.961 -11.542   7.301  1.00  0.00     0.011 A 
HETATM   23  C   UNL     1      45.288 -11.740   6.838  1.00  0.00     0.149 A 
HETATM   24  N   UNL     1      46.120 -10.774   7.198  1.00  0.00    -0.185 NA
HETATM   25  N   UNL     1      45.340  -9.893   7.841  1.00  0.00    -0.278 N 
HETATM   26  C   UNL     1      45.924  -8.670   8.348  1.00  0.00     0.179 C 
HETATM   27  C   UNL     1      44.021 -10.287   7.900  1.00  0.00     0.043 A 
BRANCH  27  28
HETATM   28  C   UNL     1      42.923  -9.406   8.499  1.00  0.00     0.038 A 
HETATM   29  C   UNL     1      42.452  -8.189   7.731  1.00  0.00     0.011 A 
HETATM   30  C   UNL     1      41.529  -9.343   7.926  1.00  0.00     0.011 A 
ENDBRANCH  27  28
ENDBRANCH  21  22
ENDBRANCH   1  21
TORSDOF 4
ENDMDL
MODEL 5
REMARK VINA RESULT:      -8.4      0.890      2.185
REMARK  4 active torsions:
REMARK  status: ('A' for Active; 'I' for Inactive)
REMARK    1  A    between atoms: C_5  and  C_6 
REMARK    2  A    between atoms: C_6  and  N_7 
REMARK    3  A    between atoms: C_17  and  C_18 
REMARK    4  A    between atoms: C_27  and  C_28 
ROOT
HETATM    1  N   UNL     1      42.528 -11.799   5.722  1.00  0.00    -0.067 N 
HETATM    2  H   UNL     1      42.321 -10.789   5.733  1.00  0.00     0.280 HD
HETATM    3  C   UNL     1      43.244 -12.087   4.433  1.00  0.00     0.236 C 
HETATM    4  C   UNL     1      43.388 -13.590   4.189  1.00  0.00     0.039 C 
HETATM    5  C   UNL     1      42.067 -14.403   4.289  1.00  0.00    -0.013 C 
HETATM    6  C   UNL     1      41.130 -14.184   3.068  1.00  0.00     0.244 C 
HETATM    7  N   UNL     1      41.681 -14.796   1.802  1.00  0.00    -0.073 N 
HETATM    8  H   UNL     1      42.574 -14.355   1.545  1.00  0.00     0.279 HD
HETATM    9  C   UNL     1      40.765 -14.546   0.618  1.00  0.00     0.269 C 
HETATM   10  C   UNL     1      41.957 -16.287   1.936  1.00  0.00     0.243 C 
HETATM   11  C   UNL     1      42.941 -16.520   3.087  1.00  0.00     0.045 C 
HETATM   12  C   UNL     1      42.391 -15.923   4.395  1.00  0.00     0.022 C 
HETATM   13  C   UNL     1      41.337 -13.987   5.601  1.00  0.00     0.039 C 
HETATM   14  C   UNL     1      41.188 -12.479   5.798  1.00  0.00     0.236 C 
ENDROOT
BRANCH  11  15
HETATM   15  C   UNL     1      43.280 -17.990   3.222  1.00  0.00    -0.052 A 
HETATM   16  C   UNL     1      43.863 -18.458   4.412  1.00  0.00     0.007 A 
HETATM   17  C   UNL     1      44.205 -19.802   4.558  1.00  0.00     0.001 A 
HETATM   18  C   UNL     1      43.971 -20.699   3.520  1.00  0.00     0.000 A 
HETATM   19  C   UNL     1      43.392 -20.252   2.335  1.00  0.00     0.001 A 
HETATM   20  C   UNL     1      43.048 -18.907   2.185  1.00  0.00     0.007 A 
ENDBRANCH  11  15
BRANCH   1  21
HETATM   21  C   UNL     1      43.363 -11.982   6.994  1.00  0.00     0.277 C 
BRANCH  21  22
HETATM   22  C   UNL     1      44.010 -10.769   7.559  1.00  0.00     0.011 A 
HETATM   23  C   UNL     1      45.371 -10.611   7.928  1.00  0.00     0.149 A 
HETATM   24  N   UNL     1      45.638  -9.427   8.459  1.00  0.00    -0.185 NA
HETATM   25  N   UNL     1      44.475  -8.764   8.382  1.00  0.00    -0.278 N 
HETATM   26  C   UNL     1      44.409  -7.396   8.848  1.00  0.00     0.179 C 
HETATM   27  C   UNL     1      43.467  -9.512   7.813  1.00  0.00     0.043 A 
BRANCH  27  28
HETATM   28  C   UNL     1      42.076  -8.942   7.532  1.00  0.00     0.038 A 
HETATM   29  C   UNL     1      40.865  -9.615   8.144  1.00  0.00     0.011 A 
HETATM   30  C   UNL     1      41.254  -8.247   8.590  1.00  0.00     0.011 A 
ENDBRANCH  27  28
ENDBRANCH  21  22
ENDBRANCH   1  21
TORSDOF 4
ENDMDL
MODEL 6
REMARK VINA RESULT:      -8.2      3.616      7.291
REMARK  4 active torsions:
REMARK  status: ('A' for Active; 'I' for Inactive)
REMARK    1  A    between atoms: C_5  and  C_6 
REMARK    2  A    between atoms: C_6  and  N_7 
REMARK    3  A    between atoms: C_17  and  C_18 
REMARK    4  A    between atoms: C_27  and  C_28 
ROOT
HETATM    1  N   UNL     1      41.522 -13.604   5.080  1.00  0.00    -0.067 N 
HETATM    2  H   UNL     1      42.079 -13.342   5.907  1.00  0.00     0.280 HD
HETATM    3  C   UNL     1      42.406 -13.422   3.879  1.00  0.00     0.236 C 
HETATM    4  C   UNL     1      41.620 -13.543   2.573  1.00  0.00     0.039 C 
HETATM    5  C   UNL     1      40.356 -12.644   2.478  1.00  0.00    -0.013 C 
HETATM    6  C   UNL     1      40.699 -11.143   2.260  1.00  0.00     0.244 C 
HETATM    7  N   UNL     1      41.273 -10.879   0.888  1.00  0.00    -0.073 N 
HETATM    8  H   UNL     1      42.159 -11.384   0.762  1.00  0.00     0.279 HD
HETATM    9  C   UNL     1      41.627  -9.414   0.705  1.00  0.00     0.269 C 
HETATM   10  C   UNL     1      40.352 -11.332  -0.237  1.00  0.00     0.243 C 
HETATM   11  C   UNL     1      40.062 -12.829  -0.085  1.00  0.00     0.045 C 
HETATM   12  C   UNL     1      39.456 -13.121   1.300  1.00  0.00     0.022 C 
HETATM   13  C   UNL     1      39.537 -12.814   3.793  1.00  0.00     0.039 C 
HETATM   14  C   UNL     1      40.350 -12.660   5.078  1.00  0.00     0.236 C 
ENDROOT
BRANCH  11  15
HETATM   15  C   UNL     1      39.188 -13.330  -1.214  1.00  0.00    -0.052 A 
HETATM   16  C   UNL     1      39.542 -14.509  -1.892  1.00  0.00     0.007 A 
HETATM   17  C   UNL     1      38.767 -14.984  -2.950  1.00  0.00     0.001 A 
HETATM   18  C   UNL     1      37.628 -14.291  -3.346  1.00  0.00     0.000 A 
HETATM   19  C   UNL     1      37.260 -13.123  -2.684  1.00  0.00     0.001 A 
HETATM   20  C   UNL     1      38.034 -12.644  -1.624  1.00  0.00     0.007 A 
ENDBRANCH  11  15
BRANCH   1  21
HETATM   21  C   UNL     1      41.123 -15.050   5.390  1.00  0.00     0.277 C 
BRANCH  21  22
HETATM   22  C   UNL     1      42.222 -16.044   5.512  1.00  0.00     0.011 A 
HETATM   23  C   UNL     1      42.976 -16.357   6.672  1.00  0.00     0.149 A 
HETATM   24  N   UNL     1      43.932 -17.248   6.454  1.00  0.00    -0.185 NA
HETATM   25  N   UNL     1      43.774 -17.588   5.166  1.00  0.00    -0.278 N 
HETATM   26  C   UNL     1      44.644 -18.590   4.588  1.00  0.00     0.179 C 
HETATM   27  C   UNL     1      42.733 -16.920   4.558  1.00  0.00     0.043 A 
BRANCH  27  28
HETATM   28  C   UNL     1      42.299 -17.207   3.120  1.00  0.00     0.038 A 
HETATM   29  C   UNL     1      43.126 -16.660   1.976  1.00  0.00     0.011 A 
HETATM   30  C   UNL     1      43.067 -18.131   2.208  1.00  0.00     0.011 A 
ENDBRANCH  27  28
ENDBRANCH  21  22
ENDBRANCH   1  21
TORSDOF 4
ENDMDL
MODEL 7
REMARK VINA RESULT:      -8.2      3.565      6.728
REMARK  4 active torsions:
REMARK  status: ('A' for Active; 'I' for Inactive)
REMARK    1  A    between atoms: C_5  and  C_6 
REMARK    2  A    between atoms: C_6  and  N_7 
REMARK    3  A    between atoms: C_17  and  C_18 
REMARK    4  A    between atoms: C_27  and  C_28 
ROOT
HETATM    1  N   UNL     1      40.365 -12.444   2.007  1.00  0.00    -0.067 N 
HETATM    2  H   UNL     1      40.008 -11.485   2.132  1.00  0.00     0.280 HD
HETATM    3  C   UNL     1      40.001 -13.214   3.245  1.00  0.00     0.236 C 
HETATM    4  C   UNL     1      40.688 -14.580   3.285  1.00  0.00     0.039 C 
HETATM    5  C   UNL     1      42.228 -14.549   3.079  1.00  0.00    -0.013 C 
HETATM    6  C   UNL     1      42.992 -14.006   4.319  1.00  0.00     0.244 C 
HETATM    7  N   UNL     1      42.937 -14.957   5.491  1.00  0.00    -0.073 N 
HETATM    8  H   UNL     1      41.966 -15.091   5.803  1.00  0.00     0.279 HD
HETATM    9  C   UNL     1      43.664 -14.396   6.699  1.00  0.00     0.269 C 
HETATM   10  C   UNL     1      43.480 -16.340   5.158  1.00  0.00     0.243 C 
HETATM   11  C   UNL     1      42.687 -16.928   3.984  1.00  0.00     0.045 C 
HETATM   12  C   UNL     1      42.747 -15.984   2.769  1.00  0.00     0.022 C 
HETATM   13  C   UNL     1      42.535 -13.661   1.836  1.00  0.00     0.039 C 
HETATM   14  C   UNL     1      41.853 -12.293   1.843  1.00  0.00     0.236 C 
ENDROOT
BRANCH  11  15
HETATM   15  C   UNL     1      43.165 -18.325   3.653  1.00  0.00    -0.052 A 
HETATM   16  C   UNL     1      43.781 -19.101   4.650  1.00  0.00     0.007 A 
HETATM   17  C   UNL     1      44.249 -20.384   4.368  1.00  0.00     0.001 A 
HETATM   18  C   UNL     1      44.110 -20.912   3.089  1.00  0.00     0.000 A 
HETATM   19  C   UNL     1      43.500 -20.159   2.089  1.00  0.00     0.001 A 
HETATM   20  C   UNL     1      43.030 -18.874   2.367  1.00  0.00     0.007 A 
ENDBRANCH  11  15
BRANCH   1  21
HETATM   21  C   UNL     1      39.665 -12.896   0.721  1.00  0.00     0.277 C 
BRANCH  21  22
HETATM   22  C   UNL     1      39.795 -12.013  -0.467  1.00  0.00     0.011 A 
HETATM   23  C   UNL     1      40.577 -12.243  -1.629  1.00  0.00     0.149 A 
HETATM   24  N   UNL     1      40.536 -11.243  -2.497  1.00  0.00    -0.185 NA
HETATM   25  N   UNL     1      39.672 -10.373  -1.953  1.00  0.00    -0.278 N 
HETATM   26  C   UNL     1      39.352  -9.155  -2.666  1.00  0.00     0.179 C 
HETATM   27  C   UNL     1      39.165 -10.804  -0.746  1.00  0.00     0.043 A 
BRANCH  27  28
HETATM   28  C   UNL     1      38.092 -10.029   0.020  1.00  0.00     0.038 A 
HETATM   29  C   UNL     1      36.685 -10.585   0.086  1.00  0.00     0.011 A 
HETATM   30  C   UNL     1      37.512 -10.518   1.325  1.00  0.00     0.011 A 
ENDBRANCH  27  28
ENDBRANCH  21  22
ENDBRANCH   1  21
TORSDOF 4
ENDMDL
MODEL 8
REMARK VINA RESULT:      -8.1      3.078      8.277
REMARK  4 active torsions:
REMARK  status: ('A' for Active; 'I' for Inactive)
REMARK    1  A    between atoms: C_5  and  C_6 
REMARK    2  A    between atoms: C_6  and  N_7 
REMARK    3  A    between atoms: C_17  and  C_18 
REMARK    4  A    between atoms: C_27  and  C_28 
ROOT
HETATM    1  N   UNL     1      40.872 -14.666   1.441  1.00  0.00    -0.067 N 
HETATM    2  H   UNL     1      40.495 -15.411   0.837  1.00  0.00     0.280 HD
HETATM    3  C   UNL     1      42.228 -15.117   1.903  1.00  0.00     0.236 C 
HETATM    4  C   UNL     1      42.785 -14.208   3.000  1.00  0.00     0.039 C 
HETATM    5  C   UNL     1      41.834 -13.973   4.206  1.00  0.00    -0.013 C 
HETATM    6  C   UNL     1      41.723 -15.213   5.138  1.00  0.00     0.244 C 
HETATM    7  N   UNL     1      43.000 -15.475   5.900  1.00  0.00    -0.073 N 
HETATM    8  H   UNL     1      43.772 -15.686   5.253  1.00  0.00     0.279 HD
HETATM    9  C   UNL     1      42.880 -16.705   6.781  1.00  0.00     0.269 C 
HETATM   10  C   UNL     1      43.448 -14.283   6.735  1.00  0.00     0.243 C 
HETATM   11  C   UNL     1      43.639 -13.067   5.823  1.00  0.00     0.045 C 
HETATM   12  C   UNL     1      42.342 -12.766   5.049  1.00  0.00     0.022 C 
HETATM   13  C   UNL     1      40.427 -13.599   3.651  1.00  0.00     0.039 C 
HETATM   14  C   UNL     1      39.892 -14.544   2.576  1.00  0.00     0.236 C 
ENDROOT
BRANCH  11  15
HETATM   15  C   UNL     1      44.132 -11.871   6.609  1.00  0.00    -0.052 A 
HETATM   16  C   UNL     1      43.201 -10.972   7.156  1.00  0.00     0.007 A 
HETATM   17  C   UNL     1      43.626  -9.850   7.867  1.00  0.00     0.001 A 
HETATM   18  C   UNL     1      44.985  -9.608   8.043  1.00  0.00     0.000 A 
HETATM   19  C   UNL     1      45.921 -10.490   7.509  1.00  0.00     0.001 A 
HETATM   20  C   UNL     1      45.499 -11.615   6.796  1.00  0.00     0.007 A 
ENDBRANCH  11  15
BRANCH   1  21
HETATM   21  C   UNL     1      40.865 -13.447   0.512  1.00  0.00     0.277 C 
BRANCH  21  22
HETATM   22  C   UNL     1      39.796 -13.388  -0.520  1.00  0.00     0.011 A 
HETATM   23  C   UNL     1      39.506 -14.357  -1.514  1.00  0.00     0.149 A 
HETATM   24  N   UNL     1      38.527 -13.996  -2.331  1.00  0.00    -0.185 NA
HETATM   25  N   UNL     1      38.112 -12.818  -1.842  1.00  0.00    -0.278 N 
HETATM   26  C   UNL     1      37.005 -12.139  -2.480  1.00  0.00     0.179 C 
HETATM   27  C   UNL     1      38.817 -12.421  -0.727  1.00  0.00     0.043 A 
BRANCH  27  28
HETATM   28  C   UNL     1      38.467 -11.159   0.064  1.00  0.00     0.038 A 
HETATM   29  C   UNL     1      37.415 -11.237   1.150  1.00  0.00     0.011 A 
HETATM   30  C   UNL     1      38.837 -10.981   1.515  1.00  0.00     0.011 A 
ENDBRANCH  27  28
ENDBRANCH  21  22
ENDBRANCH   1  21
TORSDOF 4
ENDMDL
MODEL 9
REMARK VINA RESULT:      -7.9      4.540      8.429
REMARK  4 active torsions:
REMARK  status: ('A' for Active; 'I' for Inactive)
REMARK    1  A    between atoms: C_5  and  C_6 
REMARK    2  A    between atoms: C_6  and  N_7 
REMARK    3  A    between atoms: C_17  and  C_18 
REMARK    4  A    between atoms: C_27  and  C_28 
ROOT
HETATM    1  N   UNL     1      39.948 -13.999   2.486  1.00  0.00    -0.067 N 
HETATM    2  H   UNL     1      39.392 -14.690   3.010  1.00  0.00     0.280 HD
HETATM    3  C   UNL     1      39.106 -12.762   2.359  1.00  0.00     0.236 C 
HETATM    4  C   UNL     1      39.725 -11.752   1.391  1.00  0.00     0.039 C 
HETATM    5  C   UNL     1      40.097 -12.321  -0.006  1.00  0.00    -0.013 C 
HETATM    6  C   UNL     1      38.852 -12.581  -0.901  1.00  0.00     0.244 C 
HETATM    7  N   UNL     1      38.185 -11.301  -1.345  1.00  0.00    -0.073 N 
HETATM    8  H   UNL     1      37.834 -10.775  -0.533  1.00  0.00     0.279 HD
HETATM    9  C   UNL     1      36.957 -11.577  -2.193  1.00  0.00     0.269 C 
HETATM   10  C   UNL     1      39.129 -10.367  -2.091  1.00  0.00     0.243 C 
HETATM   11  C   UNL     1      40.327 -10.035  -1.195  1.00  0.00     0.045 C 
HETATM   12  C   UNL     1      41.038 -11.325  -0.747  1.00  0.00     0.022 C 
HETATM   13  C   UNL     1      40.887 -13.647   0.202  1.00  0.00     0.039 C 
HETATM   14  C   UNL     1      40.225 -14.643   1.154  1.00  0.00     0.236 C 
ENDROOT
BRANCH  11  15
HETATM   15  C   UNL     1      41.267  -9.069  -1.883  1.00  0.00    -0.052 A 
HETATM   16  C   UNL     1      42.367  -8.552  -1.177  1.00  0.00     0.007 A 
HETATM   17  C   UNL     1      43.238  -7.644  -1.778  1.00  0.00     0.001 A 
HETATM   18  C   UNL     1      43.026  -7.238  -3.092  1.00  0.00     0.000 A 
HETATM   19  C   UNL     1      41.943  -7.742  -3.807  1.00  0.00     0.001 A 
HETATM   20  C   UNL     1      41.068  -8.651  -3.209  1.00  0.00     0.007 A 
ENDBRANCH  11  15
BRANCH   1  21
HETATM   21  C   UNL     1      41.204 -13.855   3.352  1.00  0.00     0.277 C 
BRANCH  21  22
HETATM   22  C   UNL     1      41.452 -14.913   4.367  1.00  0.00     0.011 A 
HETATM   23  C   UNL     1      40.725 -15.146   5.563  1.00  0.00     0.149 A 
HETATM   24  N   UNL     1      41.221 -16.131   6.297  1.00  0.00    -0.185 NA
HETATM   25  N   UNL     1      42.237 -16.606   5.562  1.00  0.00    -0.278 N 
HETATM   26  C   UNL     1      42.996 -17.736   6.052  1.00  0.00     0.179 C 
HETATM   27  C   UNL     1      42.398 -15.934   4.370  1.00  0.00     0.043 A 
BRANCH  27  28
HETATM   28  C   UNL     1      43.429 -16.352   3.320  1.00  0.00     0.038 A 
HETATM   29  C   UNL     1      43.030 -17.344   2.248  1.00  0.00     0.011 A 
HETATM   30  C   UNL     1      43.332 -15.933   1.874  1.00  0.00     0.011 A 
ENDBRANCH  27  28
ENDBRANCH  21  22
ENDBRANCH   1  21
TORSDOF 4
ENDMDL
MODEL 10
REMARK VINA RESULT:      -7.9      1.957      8.903
REMARK  4 active torsions:
REMARK  status: ('A' for Active; 'I' for Inactive)
REMARK    1  A    between atoms: C_5  and  C_6 
REMARK    2  A    between atoms: C_6  and  N_7 
REMARK    3  A    between atoms: C_17  and  C_18 
REMARK    4  A    between atoms: C_27  and  C_28 
ROOT
HETATM    1  N   UNL     1      42.358 -13.229   4.039  1.00  0.00    -0.067 N 
HETATM    2  H   UNL     1      42.066 -13.564   3.109  1.00  0.00     0.280 HD
HETATM    3  C   UNL     1      41.138 -12.654   4.702  1.00  0.00     0.236 C 
HETATM    4  C   UNL     1      41.491 -11.903   5.986  1.00  0.00     0.039 C 
HETATM    5  C   UNL     1      42.605 -10.830   5.837  1.00  0.00    -0.013 C 
HETATM    6  C   UNL     1      42.116  -9.553   5.096  1.00  0.00     0.244 C 
HETATM    7  N   UNL     1      41.134  -8.752   5.917  1.00  0.00    -0.073 N 
HETATM    8  H   UNL     1      40.285  -9.302   6.105  1.00  0.00     0.279 HD
HETATM    9  C   UNL     1      40.648  -7.527   5.165  1.00  0.00     0.269 C 
HETATM   10  C   UNL     1      41.691  -8.339   7.272  1.00  0.00     0.243 C 
HETATM   11  C   UNL     1      42.108  -9.590   8.053  1.00  0.00     0.045 C 
HETATM   12  C   UNL     1      43.128 -10.414   7.244  1.00  0.00     0.022 C 
HETATM   13  C   UNL     1      43.797 -11.468   5.063  1.00  0.00     0.039 C 
HETATM   14  C   UNL     1      43.409 -12.186   3.771  1.00  0.00     0.236 C 
ENDROOT
BRANCH  11  15
HETATM   15  C   UNL     1      42.624  -9.226   9.428  1.00  0.00    -0.052 A 
HETATM   16  C   UNL     1      42.357  -7.949   9.951  1.00  0.00     0.007 A 
HETATM   17  C   UNL     1      42.837  -7.577  11.206  1.00  0.00     0.001 A 
HETATM   18  C   UNL     1      43.590  -8.473  11.959  1.00  0.00     0.000 A 
HETATM   19  C   UNL     1      43.862  -9.743  11.458  1.00  0.00     0.001 A 
HETATM   20  C   UNL     1      43.383 -10.119  10.201  1.00  0.00     0.007 A 
ENDBRANCH  11  15
BRANCH   1  21
HETATM   21  C   UNL     1      42.924 -14.495   4.689  1.00  0.00     0.277 C 
BRANCH  21  22
HETATM   22  C   UNL     1      43.126 -15.676   3.809  1.00  0.00     0.011 A 
HETATM   23  C   UNL     1      42.929 -15.747   2.405  1.00  0.00     0.149 A 
HETATM   24  N   UNL     1      43.136 -16.957   1.906  1.00  0.00    -0.185 NA
HETATM   25  N   UNL     1      43.540 -17.681   2.959  1.00  0.00    -0.278 N 
HETATM   26  C   UNL     1      43.896 -19.070   2.767  1.00  0.00     0.179 C 
HETATM   27  C   UNL     1      43.589 -16.950   4.126  1.00  0.00     0.043 A 
BRANCH  27  28
HETATM   28  C   UNL     1      44.109 -17.532   5.442  1.00  0.00     0.038 A 
HETATM   29  C   UNL     1      43.258 -17.412   6.689  1.00  0.00     0.011 A 
HETATM   30  C   UNL     1      43.502 -18.754   6.086  1.00  0.00     0.011 A 
ENDBRANCH  27  28
ENDBRANCH  21  22
ENDBRANCH   1  21
TORSDOF 4
ENDMDL
