MODEL 1
REMARK VINA RESULT:      -8.4      0.000      0.000
REMARK  5 active torsions:
REMARK  status: ('A' for Active; 'I' for Inactive)
REMARK    1  A    between atoms: C_2  and  C_3 
REMARK    2  A    between atoms: C_3  and  N_4 
REMARK    3  A    between atoms: N_4  and  C_7 
REMARK    4  A    between atoms: C_10  and  O_11 
REMARK    5  A    between atoms: O_11  and  C_12 
ROOT
HETATM    1  C   UNL     1      43.240 -15.633   3.958  1.00  0.00     0.164 A 
HETATM    2  N   UNL     1      43.487 -16.644   4.815  1.00  0.00    -0.236 NA
HETATM    3  C   UNL     1      43.563 -17.887   4.276  1.00  0.00     0.142 A 
HETATM    4  C   UNL     1      43.396 -18.161   2.924  1.00  0.00     0.062 A 
HETATM    5  C   UNL     1      43.494 -19.499   2.436  1.00  0.00     0.101 C 
HETATM    6  N   UNL     1      43.573 -20.587   2.043  1.00  0.00    -0.191 NA
HETATM    7  C   UNL     1      43.130 -17.092   2.070  1.00  0.00     0.028 A 
HETATM    8  C   UNL     1      43.044 -15.804   2.596  1.00  0.00     0.059 A 
ENDROOT
BRANCH   1   9
HETATM    9  O   UNL     1      43.124 -14.345   4.436  1.00  0.00    -0.329 OA
BRANCH   9  10
HETATM   10  C   UNL     1      42.814 -14.244   5.832  1.00  0.00     0.130 C 
HETATM   11  C   UNL     1      43.938 -13.409   6.463  1.00  0.00     0.034 C 
HETATM   12  C   UNL     1      43.991 -11.993   5.879  1.00  0.00     0.035 C 
HETATM   13  C   UNL     1      42.654 -11.249   5.972  1.00  0.00     0.186 C 
HETATM   14  C   UNL     1      41.487 -12.103   5.460  1.00  0.00     0.035 C 
HETATM   15  C   UNL     1      41.472 -13.525   6.030  1.00  0.00     0.034 C 
BRANCH  13  16
HETATM   16  N   UNL     1      42.375 -10.842   7.395  1.00  0.00    -0.067 N 
HETATM   17  H   UNL     1      42.408 -11.645   8.033  1.00  0.00     0.277 HD
HETATM   18  H   UNL     1      41.410 -10.488   7.465  1.00  0.00     0.277 HD
BRANCH  16  19
HETATM   19  C   UNL     1      43.260  -9.761   7.932  1.00  0.00     0.271 C 
BRANCH  19  20
HETATM   20  C   UNL     1      43.071  -9.569   9.408  1.00  0.00    -0.030 A 
HETATM   21  C   UNL     1      44.141  -9.154  10.218  1.00  0.00     0.012 A 
HETATM   22  C   UNL     1      43.953  -8.944  11.586  1.00  0.00     0.040 A 
HETATM   23  C   UNL     1      42.699  -9.142  12.155  1.00  0.00     0.102 A 
HETATM   24  C   UNL     1      41.639  -9.595  11.369  1.00  0.00     0.102 A 
HETATM   25  O   UNL     1      42.576  -8.868  13.492  1.00  0.00    -0.346 OA
HETATM   26  C   UNL     1      41.821  -9.802  10.001  1.00  0.00     0.048 A 
HETATM   27  O   UNL     1      40.384  -9.835  11.862  1.00  0.00    -0.346 OA
HETATM   28  C   UNL     1      40.366  -9.851  13.297  1.00  0.00     0.202 C 
HETATM   29  C   UNL     1      41.201  -8.713  13.865  1.00  0.00     0.202 C 
ENDBRANCH  19  20
ENDBRANCH  16  19
ENDBRANCH  13  16
ENDBRANCH   9  10
ENDBRANCH   1   9
TORSDOF 5
ENDMDL
MODEL 2
REMARK VINA RESULT:      -8.2      3.408     10.114
REMARK  5 active torsions:
REMARK  status: ('A' for Active; 'I' for Inactive)
REMARK    1  A    between atoms: C_2  and  C_3 
REMARK    2  A    between atoms: C_3  and  N_4 
REMARK    3  A    between atoms: N_4  and  C_7 
REMARK    4  A    between atoms: C_10  and  O_11 
REMARK    5  A    between atoms: O_11  and  C_12 
ROOT
HETATM    1  C   UNL     1      42.362  -8.229  12.328  1.00  0.00     0.164 A 
HETATM    2  N   UNL     1      41.184  -8.779  12.684  1.00  0.00    -0.236 NA
HETATM    3  C   UNL     1      40.822  -8.639  13.985  1.00  0.00     0.142 A 
HETATM    4  C   UNL     1      41.588  -7.983  14.940  1.00  0.00     0.062 A 
HETATM    5  C   UNL     1      41.133  -7.879  16.290  1.00  0.00     0.101 C 
HETATM    6  N   UNL     1      40.761  -7.796  17.385  1.00  0.00    -0.191 NA
HETATM    7  C   UNL     1      42.806  -7.439  14.538  1.00  0.00     0.028 A 
HETATM    8  C   UNL     1      43.205  -7.568  13.209  1.00  0.00     0.059 A 
ENDROOT
BRANCH   1   9
HETATM    9  O   UNL     1      42.808  -8.352  11.029  1.00  0.00    -0.329 OA
BRANCH   9  10
HETATM   10  C   UNL     1      42.796  -9.687  10.509  1.00  0.00     0.130 C 
HETATM   11  C   UNL     1      42.827  -9.554   8.980  1.00  0.00     0.034 C 
HETATM   12  C   UNL     1      44.105  -8.862   8.495  1.00  0.00     0.035 C 
HETATM   13  C   UNL     1      45.387  -9.534   8.999  1.00  0.00     0.186 C 
HETATM   14  C   UNL     1      45.340  -9.793  10.510  1.00  0.00     0.035 C 
HETATM   15  C   UNL     1      44.040 -10.455  10.979  1.00  0.00     0.034 C 
BRANCH  13  16
HETATM   16  N   UNL     1      45.613 -10.841   8.285  1.00  0.00    -0.067 N 
HETATM   17  H   UNL     1      44.969 -11.570   8.615  1.00  0.00     0.277 HD
HETATM   18  H   UNL     1      46.552 -11.196   8.514  1.00  0.00     0.277 HD
BRANCH  16  19
HETATM   19  C   UNL     1      45.542 -10.770   6.792  1.00  0.00     0.271 C 
BRANCH  19  20
HETATM   20  C   UNL     1      44.551 -11.750   6.235  1.00  0.00    -0.030 A 
HETATM   21  C   UNL     1      44.070 -11.612   4.923  1.00  0.00     0.012 A 
HETATM   22  C   UNL     1      43.173 -12.545   4.397  1.00  0.00     0.040 A 
HETATM   23  C   UNL     1      42.755 -13.624   5.171  1.00  0.00     0.102 A 
HETATM   24  C   UNL     1      43.194 -13.747   6.490  1.00  0.00     0.102 A 
HETATM   25  O   UNL     1      41.916 -14.526   4.574  1.00  0.00    -0.346 OA
HETATM   26  C   UNL     1      44.092 -12.819   7.020  1.00  0.00     0.048 A 
HETATM   27  O   UNL     1      42.807 -14.765   7.321  1.00  0.00    -0.346 OA
HETATM   28  C   UNL     1      41.697 -15.501   6.784  1.00  0.00     0.202 C 
HETATM   29  C   UNL     1      41.884 -15.762   5.298  1.00  0.00     0.202 C 
ENDBRANCH  19  20
ENDBRANCH  16  19
ENDBRANCH  13  16
ENDBRANCH   9  10
ENDBRANCH   1   9
TORSDOF 5
ENDMDL
MODEL 3
REMARK VINA RESULT:      -7.6      6.246      9.835
REMARK  5 active torsions:
REMARK  status: ('A' for Active; 'I' for Inactive)
REMARK    1  A    between atoms: C_2  and  C_3 
REMARK    2  A    between atoms: C_3  and  N_4 
REMARK    3  A    between atoms: N_4  and  C_7 
REMARK    4  A    between atoms: C_10  and  O_11 
REMARK    5  A    between atoms: O_11  and  C_12 
ROOT
HETATM    1  C   UNL     1      41.559  -9.886  -1.406  1.00  0.00     0.164 A 
HETATM    2  N   UNL     1      42.513  -9.186  -0.759  1.00  0.00    -0.236 NA
HETATM    3  C   UNL     1      42.728  -7.918  -1.191  1.00  0.00     0.142 A 
HETATM    4  C   UNL     1      42.039  -7.326  -2.243  1.00  0.00     0.062 A 
HETATM    5  C   UNL     1      42.326  -5.983  -2.636  1.00  0.00     0.101 C 
HETATM    6  N   UNL     1      42.561  -4.893  -2.952  1.00  0.00    -0.191 NA
HETATM    7  C   UNL     1      41.070  -8.085  -2.897  1.00  0.00     0.028 A 
HETATM    8  C   UNL     1      40.828  -9.391  -2.476  1.00  0.00     0.059 A 
ENDROOT
BRANCH   1   9
HETATM    9  O   UNL     1      41.301 -11.189  -1.039  1.00  0.00    -0.329 OA
BRANCH   9  10
HETATM   10  C   UNL     1      40.242 -11.352  -0.087  1.00  0.00     0.130 C 
HETATM   11  C   UNL     1      39.373 -12.506  -0.604  1.00  0.00     0.034 C 
HETATM   12  C   UNL     1      40.157 -13.820  -0.679  1.00  0.00     0.035 C 
HETATM   13  C   UNL     1      40.822 -14.205   0.648  1.00  0.00     0.186 C 
HETATM   14  C   UNL     1      41.604 -13.033   1.255  1.00  0.00     0.035 C 
HETATM   15  C   UNL     1      40.814 -11.721   1.290  1.00  0.00     0.034 C 
BRANCH  13  16
HETATM   16  N   UNL     1      39.790 -14.672   1.640  1.00  0.00    -0.067 N 
HETATM   17  H   UNL     1      38.837 -14.453   1.328  1.00  0.00     0.277 HD
HETATM   18  H   UNL     1      39.905 -14.151   2.521  1.00  0.00     0.277 HD
BRANCH  16  19
HETATM   19  C   UNL     1      39.863 -16.124   1.997  1.00  0.00     0.271 C 
BRANCH  19  20
HETATM   20  C   UNL     1      41.044 -16.423   2.872  1.00  0.00    -0.030 A 
HETATM   21  C   UNL     1      42.189 -17.039   2.342  1.00  0.00     0.012 A 
HETATM   22  C   UNL     1      43.300 -17.285   3.152  1.00  0.00     0.040 A 
HETATM   23  C   UNL     1      43.279 -16.915   4.494  1.00  0.00     0.102 A 
HETATM   24  C   UNL     1      42.131 -16.341   5.042  1.00  0.00     0.102 A 
HETATM   25  O   UNL     1      44.421 -17.141   5.215  1.00  0.00    -0.346 OA
HETATM   26  C   UNL     1      41.021 -16.090   4.236  1.00  0.00     0.048 A 
HETATM   27  O   UNL     1      42.027 -15.974   6.357  1.00  0.00    -0.346 OA
HETATM   28  C   UNL     1      43.099 -16.508   7.149  1.00  0.00     0.202 C 
HETATM   29  C   UNL     1      44.430 -16.373   6.426  1.00  0.00     0.202 C 
ENDBRANCH  19  20
ENDBRANCH  16  19
ENDBRANCH  13  16
ENDBRANCH   9  10
ENDBRANCH   1   9
TORSDOF 5
ENDMDL
MODEL 4
REMARK VINA RESULT:      -7.6      2.902      9.988
REMARK  5 active torsions:
REMARK  status: ('A' for Active; 'I' for Inactive)
REMARK    1  A    between atoms: C_2  and  C_3 
REMARK    2  A    between atoms: C_3  and  N_4 
REMARK    3  A    between atoms: N_4  and  C_7 
REMARK    4  A    between atoms: C_10  and  O_11 
REMARK    5  A    between atoms: O_11  and  C_12 
ROOT
HETATM    1  C   UNL     1      42.471 -10.372   7.271  1.00  0.00     0.164 A 
HETATM    2  N   UNL     1      41.501  -9.703   7.928  1.00  0.00    -0.236 NA
HETATM    3  C   UNL     1      41.835  -9.191   9.139  1.00  0.00     0.142 A 
HETATM    4  C   UNL     1      43.089  -9.324   9.722  1.00  0.00     0.062 A 
HETATM    5  C   UNL     1      43.361  -8.752  11.001  1.00  0.00     0.101 C 
HETATM    6  N   UNL     1      43.577  -8.287  12.041  1.00  0.00    -0.191 NA
HETATM    7  C   UNL     1      44.063 -10.033   9.019  1.00  0.00     0.028 A 
HETATM    8  C   UNL     1      43.748 -10.572   7.773  1.00  0.00     0.059 A 
ENDROOT
BRANCH   1   9
HETATM    9  O   UNL     1      42.199 -10.942   6.046  1.00  0.00    -0.329 OA
BRANCH   9  10
HETATM   10  C   UNL     1      42.584 -12.316   5.919  1.00  0.00     0.130 C 
HETATM   11  C   UNL     1      41.290 -13.137   6.025  1.00  0.00     0.034 C 
HETATM   12  C   UNL     1      40.312 -12.806   4.893  1.00  0.00     0.035 C 
HETATM   13  C   UNL     1      40.928 -12.955   3.497  1.00  0.00     0.186 C 
HETATM   14  C   UNL     1      42.284 -12.246   3.392  1.00  0.00     0.035 C 
HETATM   15  C   UNL     1      43.234 -12.564   4.550  1.00  0.00     0.034 C 
BRANCH  13  16
HETATM   16  N   UNL     1      41.108 -14.411   3.153  1.00  0.00    -0.067 N 
HETATM   17  H   UNL     1      40.348 -14.757   2.556  1.00  0.00     0.277 HD
HETATM   18  H   UNL     1      41.046 -14.974   4.013  1.00  0.00     0.277 HD
BRANCH  16  19
HETATM   19  C   UNL     1      42.419 -14.755   2.518  1.00  0.00     0.271 C 
BRANCH  19  20
HETATM   20  C   UNL     1      42.953 -16.065   3.020  1.00  0.00    -0.030 A 
HETATM   21  C   UNL     1      43.539 -16.156   4.293  1.00  0.00     0.012 A 
HETATM   22  C   UNL     1      44.005 -17.384   4.771  1.00  0.00     0.040 A 
HETATM   23  C   UNL     1      43.885 -18.528   3.986  1.00  0.00     0.102 A 
HETATM   24  C   UNL     1      43.343 -18.440   2.704  1.00  0.00     0.102 A 
HETATM   25  O   UNL     1      44.316 -19.704   4.539  1.00  0.00    -0.346 OA
HETATM   26  C   UNL     1      42.873 -17.217   2.223  1.00  0.00     0.048 A 
HETATM   27  O   UNL     1      43.215 -19.516   1.865  1.00  0.00    -0.346 OA
HETATM   28  C   UNL     1      43.957 -20.652   2.335  1.00  0.00     0.202 C 
HETATM   29  C   UNL     1      43.784 -20.833   3.834  1.00  0.00     0.202 C 
ENDBRANCH  19  20
ENDBRANCH  16  19
ENDBRANCH  13  16
ENDBRANCH   9  10
ENDBRANCH   1   9
TORSDOF 5
ENDMDL
MODEL 5
REMARK VINA RESULT:      -7.6     18.493     21.802
REMARK  5 active torsions:
REMARK  status: ('A' for Active; 'I' for Inactive)
REMARK    1  A    between atoms: C_2  and  C_3 
REMARK    2  A    between atoms: C_3  and  N_4 
REMARK    3  A    between atoms: N_4  and  C_7 
REMARK    4  A    between atoms: C_10  and  O_11 
REMARK    5  A    between atoms: O_11  and  C_12 
ROOT
HETATM    1  C   UNL     1      50.804 -30.565  -0.921  1.00  0.00     0.164 A 
HETATM    2  N   UNL     1      51.445 -30.378  -2.092  1.00  0.00    -0.236 NA
HETATM    3  C   UNL     1      52.500 -31.195  -2.340  1.00  0.00     0.142 A 
HETATM    4  C   UNL     1      52.942 -32.182  -1.468  1.00  0.00     0.062 A 
HETATM    5  C   UNL     1      54.060 -33.003  -1.806  1.00  0.00     0.101 C 
HETATM    6  N   UNL     1      54.969 -33.667  -2.083  1.00  0.00    -0.191 NA
HETATM    7  C   UNL     1      52.262 -32.338  -0.261  1.00  0.00     0.028 A 
HETATM    8  C   UNL     1      51.176 -31.511   0.022  1.00  0.00     0.059 A 
ENDROOT
BRANCH   1   9
HETATM    9  O   UNL     1      49.739 -29.756  -0.589  1.00  0.00    -0.329 OA
BRANCH   9  10
HETATM   10  C   UNL     1      48.488 -30.126  -1.184  1.00  0.00     0.130 C 
HETATM   11  C   UNL     1      47.602 -30.637  -0.039  1.00  0.00     0.034 C 
HETATM   12  C   UNL     1      47.334 -29.546   1.003  1.00  0.00     0.035 C 
HETATM   13  C   UNL     1      46.745 -28.265   0.402  1.00  0.00     0.186 C 
HETATM   14  C   UNL     1      47.538 -27.792  -0.823  1.00  0.00     0.035 C 
HETATM   15  C   UNL     1      47.825 -28.905  -1.836  1.00  0.00     0.034 C 
BRANCH  13  16
HETATM   16  N   UNL     1      45.309 -28.482   0.000  1.00  0.00    -0.067 N 
HETATM   17  H   UNL     1      44.658 -28.108   0.701  1.00  0.00     0.277 HD
HETATM   18  H   UNL     1      45.113 -29.493  -0.029  1.00  0.00     0.277 HD
BRANCH  16  19
HETATM   19  C   UNL     1      44.937 -27.942  -1.345  1.00  0.00     0.271 C 
BRANCH  19  20
HETATM   20  C   UNL     1      44.639 -29.041  -2.323  1.00  0.00    -0.030 A 
HETATM   21  C   UNL     1      44.526 -28.765  -3.695  1.00  0.00     0.012 A 
HETATM   22  C   UNL     1      44.282 -29.795  -4.606  1.00  0.00     0.040 A 
HETATM   23  C   UNL     1      44.155 -31.107  -4.157  1.00  0.00     0.102 A 
HETATM   24  C   UNL     1      44.223 -31.386  -2.792  1.00  0.00     0.102 A 
HETATM   25  O   UNL     1      43.968 -32.071  -5.111  1.00  0.00    -0.346 OA
HETATM   26  C   UNL     1      44.470 -30.361  -1.878  1.00  0.00     0.048 A 
HETATM   27  O   UNL     1      44.083 -32.646  -2.273  1.00  0.00    -0.346 OA
HETATM   28  C   UNL     1      43.575 -33.572  -3.246  1.00  0.00     0.202 C 
HETATM   29  C   UNL     1      44.255 -33.376  -4.592  1.00  0.00     0.202 C 
ENDBRANCH  19  20
ENDBRANCH  16  19
ENDBRANCH  13  16
ENDBRANCH   9  10
ENDBRANCH   1   9
TORSDOF 5
ENDMDL
MODEL 6
REMARK VINA RESULT:      -7.6      1.273      1.979
REMARK  5 active torsions:
REMARK  status: ('A' for Active; 'I' for Inactive)
REMARK    1  A    between atoms: C_2  and  C_3 
REMARK    2  A    between atoms: C_3  and  N_4 
REMARK    3  A    between atoms: N_4  and  C_7 
REMARK    4  A    between atoms: C_10  and  O_11 
REMARK    5  A    between atoms: O_11  and  C_12 
ROOT
HETATM    1  C   UNL     1      42.672 -14.934   3.589  1.00  0.00     0.164 A 
HETATM    2  N   UNL     1      42.419 -15.940   4.451  1.00  0.00    -0.236 NA
HETATM    3  C   UNL     1      42.609 -17.199   3.982  1.00  0.00     0.142 A 
HETATM    4  C   UNL     1      43.030 -17.494   2.691  1.00  0.00     0.062 A 
HETATM    5  C   UNL     1      43.208 -18.848   2.275  1.00  0.00     0.101 C 
HETATM    6  N   UNL     1      43.350 -19.949   1.941  1.00  0.00    -0.191 NA
HETATM    7  C   UNL     1      43.269 -16.428   1.824  1.00  0.00     0.028 A 
HETATM    8  C   UNL     1      43.081 -15.124   2.278  1.00  0.00     0.059 A 
ENDROOT
BRANCH   1   9
HETATM    9  O   UNL     1      42.477 -13.629   3.987  1.00  0.00    -0.329 OA
BRANCH   9  10
HETATM   10  C   UNL     1      42.371 -13.438   5.403  1.00  0.00     0.130 C 
HETATM   11  C   UNL     1      43.702 -12.822   5.856  1.00  0.00     0.034 C 
HETATM   12  C   UNL     1      43.949 -11.457   5.204  1.00  0.00     0.035 C 
HETATM   13  C   UNL     1      42.800 -10.466   5.422  1.00  0.00     0.186 C 
HETATM   14  C   UNL     1      41.437 -11.090   5.093  1.00  0.00     0.035 C 
HETATM   15  C   UNL     1      41.225 -12.468   5.726  1.00  0.00     0.034 C 
BRANCH  13  16
HETATM   16  N   UNL     1      42.784  -9.980   6.847  1.00  0.00    -0.067 N 
HETATM   17  H   UNL     1      43.702  -9.623   7.136  1.00  0.00     0.277 HD
HETATM   18  H   UNL     1      42.600 -10.775   7.476  1.00  0.00     0.277 HD
BRANCH  16  19
HETATM   19  C   UNL     1      41.744  -8.950   7.156  1.00  0.00     0.271 C 
BRANCH  19  20
HETATM   20  C   UNL     1      41.101  -9.191   8.490  1.00  0.00    -0.030 A 
HETATM   21  C   UNL     1      39.729  -9.476   8.581  1.00  0.00     0.012 A 
HETATM   22  C   UNL     1      39.140  -9.734   9.822  1.00  0.00     0.040 A 
HETATM   23  C   UNL     1      39.915  -9.715  10.978  1.00  0.00     0.102 A 
HETATM   24  C   UNL     1      41.270  -9.391  10.904  1.00  0.00     0.102 A 
HETATM   25  O   UNL     1      39.282 -10.026  12.151  1.00  0.00    -0.346 OA
HETATM   26  C   UNL     1      41.863  -9.136   9.667  1.00  0.00     0.048 A 
HETATM   27  O   UNL     1      42.090  -9.327  12.000  1.00  0.00    -0.346 OA
HETATM   28  C   UNL     1      41.346  -9.340  13.227  1.00  0.00     0.202 C 
HETATM   29  C   UNL     1      40.226 -10.368  13.174  1.00  0.00     0.202 C 
ENDBRANCH  19  20
ENDBRANCH  16  19
ENDBRANCH  13  16
ENDBRANCH   9  10
ENDBRANCH   1   9
TORSDOF 5
ENDMDL
MODEL 7
REMARK VINA RESULT:      -7.5      3.390      4.441
REMARK  5 active torsions:
REMARK  status: ('A' for Active; 'I' for Inactive)
REMARK    1  A    between atoms: C_2  and  C_3 
REMARK    2  A    between atoms: C_3  and  N_4 
REMARK    3  A    between atoms: N_4  and  C_7 
REMARK    4  A    between atoms: C_10  and  O_11 
REMARK    5  A    between atoms: O_11  and  C_12 
ROOT
HETATM    1  C   UNL     1      43.336 -16.089   4.043  1.00  0.00     0.164 A 
HETATM    2  N   UNL     1      43.894 -17.080   4.767  1.00  0.00    -0.236 NA
HETATM    3  C   UNL     1      43.979 -18.293   4.165  1.00  0.00     0.142 A 
HETATM    4  C   UNL     1      43.524 -18.558   2.879  1.00  0.00     0.062 A 
HETATM    5  C   UNL     1      43.652 -19.864   2.317  1.00  0.00     0.101 C 
HETATM    6  N   UNL     1      43.757 -20.926   1.863  1.00  0.00    -0.191 NA
HETATM    7  C   UNL     1      42.941 -17.511   2.166  1.00  0.00     0.028 A 
HETATM    8  C   UNL     1      42.839 -16.255   2.760  1.00  0.00     0.059 A 
ENDROOT
BRANCH   1   9
HETATM    9  O   UNL     1      43.193 -14.835   4.598  1.00  0.00    -0.329 OA
BRANCH   9  10
HETATM   10  C   UNL     1      42.599 -14.815   5.902  1.00  0.00     0.130 C 
HETATM   11  C   UNL     1      43.001 -13.476   6.537  1.00  0.00     0.034 C 
HETATM   12  C   UNL     1      42.458 -12.284   5.743  1.00  0.00     0.035 C 
HETATM   13  C   UNL     1      40.941 -12.339   5.528  1.00  0.00     0.186 C 
HETATM   14  C   UNL     1      40.488 -13.709   5.006  1.00  0.00     0.035 C 
HETATM   15  C   UNL     1      41.069 -14.887   5.793  1.00  0.00     0.034 C 
BRANCH  13  16
HETATM   16  N   UNL     1      40.214 -12.040   6.813  1.00  0.00    -0.067 N 
HETATM   17  H   UNL     1      40.866 -11.903   7.594  1.00  0.00     0.277 HD
HETATM   18  H   UNL     1      39.649 -12.858   7.082  1.00  0.00     0.277 HD
BRANCH  16  19
HETATM   19  C   UNL     1      39.274 -10.878   6.755  1.00  0.00     0.271 C 
BRANCH  19  20
HETATM   20  C   UNL     1      40.005  -9.579   6.576  1.00  0.00    -0.030 A 
HETATM   21  C   UNL     1      41.071  -9.237   7.424  1.00  0.00     0.012 A 
HETATM   22  C   UNL     1      41.771  -8.042   7.234  1.00  0.00     0.040 A 
HETATM   23  C   UNL     1      41.418  -7.186   6.195  1.00  0.00     0.102 A 
HETATM   24  C   UNL     1      40.334  -7.497   5.373  1.00  0.00     0.102 A 
HETATM   25  O   UNL     1      42.180  -6.059   6.037  1.00  0.00    -0.346 OA
HETATM   26  C   UNL     1      39.634  -8.689   5.557  1.00  0.00     0.048 A 
HETATM   27  O   UNL     1      39.912  -6.692   4.347  1.00  0.00    -0.346 OA
HETATM   28  C   UNL     1      40.512  -5.390   4.407  1.00  0.00     0.202 C 
HETATM   29  C   UNL     1      41.994  -5.487   4.736  1.00  0.00     0.202 C 
ENDBRANCH  19  20
ENDBRANCH  16  19
ENDBRANCH  13  16
ENDBRANCH   9  10
ENDBRANCH   1   9
TORSDOF 5
ENDMDL
MODEL 8
REMARK VINA RESULT:      -7.3      4.950     10.355
REMARK  5 active torsions:
REMARK  status: ('A' for Active; 'I' for Inactive)
REMARK    1  A    between atoms: C_2  and  C_3 
REMARK    2  A    between atoms: C_3  and  N_4 
REMARK    3  A    between atoms: N_4  and  C_7 
REMARK    4  A    between atoms: C_10  and  O_11 
REMARK    5  A    between atoms: O_11  and  C_12 
ROOT
HETATM    1  C   UNL     1      42.828 -12.260   5.939  1.00  0.00     0.164 A 
HETATM    2  N   UNL     1      42.295 -11.089   6.342  1.00  0.00    -0.236 NA
HETATM    3  C   UNL     1      43.085 -10.299   7.111  1.00  0.00     0.142 A 
HETATM    4  C   UNL     1      44.377 -10.632   7.499  1.00  0.00     0.062 A 
HETATM    5  C   UNL     1      45.145  -9.742   8.309  1.00  0.00     0.101 C 
HETATM    6  N   UNL     1      45.765  -9.018   8.968  1.00  0.00    -0.191 NA
HETATM    7  C   UNL     1      44.890 -11.857   7.074  1.00  0.00     0.028 A 
HETATM    8  C   UNL     1      44.100 -12.690   6.284  1.00  0.00     0.059 A 
ENDROOT
BRANCH   1   9
HETATM    9  O   UNL     1      42.075 -13.126   5.175  1.00  0.00    -0.329 OA
BRANCH   9  10
HETATM   10  C   UNL     1      41.470 -12.541   4.015  1.00  0.00     0.130 C 
HETATM   11  C   UNL     1      42.595 -12.363   2.986  1.00  0.00     0.034 C 
HETATM   12  C   UNL     1      43.212 -13.705   2.580  1.00  0.00     0.035 C 
HETATM   13  C   UNL     1      42.180 -14.718   2.073  1.00  0.00     0.186 C 
HETATM   14  C   UNL     1      40.979 -14.833   3.021  1.00  0.00     0.035 C 
HETATM   15  C   UNL     1      40.398 -13.479   3.441  1.00  0.00     0.034 C 
BRANCH  13  16
HETATM   16  N   UNL     1      41.687 -14.330   0.704  1.00  0.00    -0.067 N 
HETATM   17  H   UNL     1      42.398 -14.499  -0.017  1.00  0.00     0.277 HD
HETATM   18  H   UNL     1      41.521 -13.314   0.678  1.00  0.00     0.277 HD
BRANCH  16  19
HETATM   19  C   UNL     1      40.406 -14.977   0.282  1.00  0.00     0.271 C 
BRANCH  19  20
HETATM   20  C   UNL     1      39.563 -14.054  -0.548  1.00  0.00    -0.030 A 
HETATM   21  C   UNL     1      39.006 -14.491  -1.761  1.00  0.00     0.012 A 
HETATM   22  C   UNL     1      38.194 -13.640  -2.515  1.00  0.00     0.040 A 
HETATM   23  C   UNL     1      37.928 -12.350  -2.063  1.00  0.00     0.102 A 
HETATM   24  C   UNL     1      38.510 -11.891  -0.881  1.00  0.00     0.102 A 
HETATM   25  O   UNL     1      37.084 -11.589  -2.827  1.00  0.00    -0.346 OA
HETATM   26  C   UNL     1      39.319 -12.739  -0.123  1.00  0.00     0.048 A 
HETATM   27  O   UNL     1      38.316 -10.629  -0.386  1.00  0.00    -0.346 OA
HETATM   28  C   UNL     1      37.701  -9.764  -1.353  1.00  0.00     0.202 C 
HETATM   29  C   UNL     1      36.573 -10.476  -2.082  1.00  0.00     0.202 C 
ENDBRANCH  19  20
ENDBRANCH  16  19
ENDBRANCH  13  16
ENDBRANCH   9  10
ENDBRANCH   1   9
TORSDOF 5
ENDMDL
MODEL 9
REMARK VINA RESULT:      -7.2      3.336     11.003
REMARK  5 active torsions:
REMARK  status: ('A' for Active; 'I' for Inactive)
REMARK    1  A    between atoms: C_2  and  C_3 
REMARK    2  A    between atoms: C_3  and  N_4 
REMARK    3  A    between atoms: N_4  and  C_7 
REMARK    4  A    between atoms: C_10  and  O_11 
REMARK    5  A    between atoms: O_11  and  C_12 
ROOT
HETATM    1  C   UNL     1      42.318  -7.638  12.846  1.00  0.00     0.164 A 
HETATM    2  N   UNL     1      40.996  -7.374  12.893  1.00  0.00    -0.236 NA
HETATM    3  C   UNL     1      40.520  -6.888  14.068  1.00  0.00     0.142 A 
HETATM    4  C   UNL     1      41.303  -6.665  15.193  1.00  0.00     0.062 A 
HETATM    5  C   UNL     1      40.724  -6.150  16.392  1.00  0.00     0.101 C 
HETATM    6  N   UNL     1      40.250  -5.732  17.364  1.00  0.00    -0.191 NA
HETATM    7  C   UNL     1      42.663  -6.963  15.111  1.00  0.00     0.028 A 
HETATM    8  C   UNL     1      43.180  -7.464  13.917  1.00  0.00     0.059 A 
ENDROOT
BRANCH   1   9
HETATM    9  O   UNL     1      42.869  -8.157  11.694  1.00  0.00    -0.329 OA
BRANCH   9  10
HETATM   10  C   UNL     1      42.380  -9.451  11.318  1.00  0.00     0.130 C 
HETATM   11  C   UNL     1      41.893  -9.322   9.868  1.00  0.00     0.034 C 
HETATM   12  C   UNL     1      43.032  -8.945   8.916  1.00  0.00     0.035 C 
HETATM   13  C   UNL     1      44.229  -9.899   8.995  1.00  0.00     0.186 C 
HETATM   14  C   UNL     1      44.668 -10.146  10.444  1.00  0.00     0.035 C 
HETATM   15  C   UNL     1      43.509 -10.489  11.386  1.00  0.00     0.034 C 
BRANCH  13  16
HETATM   16  N   UNL     1      43.894 -11.220   8.353  1.00  0.00    -0.067 N 
HETATM   17  H   UNL     1      42.907 -11.267   8.073  1.00  0.00     0.277 HD
HETATM   18  H   UNL     1      44.007 -11.974   9.046  1.00  0.00     0.277 HD
BRANCH  16  19
HETATM   19  C   UNL     1      44.748 -11.592   7.183  1.00  0.00     0.271 C 
BRANCH  19  20
HETATM   20  C   UNL     1      44.037 -12.530   6.251  1.00  0.00    -0.030 A 
HETATM   21  C   UNL     1      43.715 -13.835   6.659  1.00  0.00     0.012 A 
HETATM   22  C   UNL     1      43.023 -14.694   5.802  1.00  0.00     0.040 A 
HETATM   23  C   UNL     1      42.643 -14.258   4.536  1.00  0.00     0.102 A 
HETATM   24  C   UNL     1      42.995 -12.978   4.105  1.00  0.00     0.102 A 
HETATM   25  O   UNL     1      41.924 -15.135   3.769  1.00  0.00    -0.346 OA
HETATM   26  C   UNL     1      43.683 -12.115   4.958  1.00  0.00     0.048 A 
HETATM   27  O   UNL     1      42.679 -12.487   2.865  1.00  0.00    -0.346 OA
HETATM   28  C   UNL     1      42.217 -13.521   1.982  1.00  0.00     0.202 C 
HETATM   29  C   UNL     1      41.257 -14.459   2.696  1.00  0.00     0.202 C 
ENDBRANCH  19  20
ENDBRANCH  16  19
ENDBRANCH  13  16
ENDBRANCH   9  10
ENDBRANCH   1   9
TORSDOF 5
ENDMDL
MODEL 10
REMARK VINA RESULT:      -7.2      3.152      9.726
REMARK  5 active torsions:
REMARK  status: ('A' for Active; 'I' for Inactive)
REMARK    1  A    between atoms: C_2  and  C_3 
REMARK    2  A    between atoms: C_3  and  N_4 
REMARK    3  A    between atoms: N_4  and  C_7 
REMARK    4  A    between atoms: C_10  and  O_11 
REMARK    5  A    between atoms: O_11  and  C_12 
ROOT
HETATM    1  C   UNL     1      40.323  -9.670   7.793  1.00  0.00     0.164 A 
HETATM    2  N   UNL     1      39.092  -9.788   8.332  1.00  0.00    -0.236 NA
HETATM    3  C   UNL     1      38.974  -9.459   9.643  1.00  0.00     0.142 A 
HETATM    4  C   UNL     1      40.029  -9.026  10.435  1.00  0.00     0.062 A 
HETATM    5  C   UNL     1      39.820  -8.696  11.809  1.00  0.00     0.101 C 
HETATM    6  N   UNL     1      39.647  -8.431  12.924  1.00  0.00    -0.191 NA
HETATM    7  C   UNL     1      41.289  -8.928   9.847  1.00  0.00     0.028 A 
HETATM    8  C   UNL     1      41.442  -9.261   8.502  1.00  0.00     0.059 A 
ENDROOT
BRANCH   1   9
HETATM    9  O   UNL     1      40.525 -10.010   6.472  1.00  0.00    -0.329 OA
BRANCH   9  10
HETATM   10  C   UNL     1      40.278 -11.386   6.157  1.00  0.00     0.130 C 
HETATM   11  C   UNL     1      39.447 -11.390   4.867  1.00  0.00     0.034 C 
HETATM   12  C   UNL     1      40.210 -10.759   3.697  1.00  0.00     0.035 C 
HETATM   13  C   UNL     1      41.581 -11.400   3.452  1.00  0.00     0.186 C 
HETATM   14  C   UNL     1      42.393 -11.523   4.747  1.00  0.00     0.035 C 
HETATM   15  C   UNL     1      41.602 -12.124   5.913  1.00  0.00     0.034 C 
BRANCH  13  16
HETATM   16  N   UNL     1      41.423 -12.768   2.842  1.00  0.00    -0.067 N 
HETATM   17  H   UNL     1      40.664 -12.790   2.151  1.00  0.00     0.277 HD
HETATM   18  H   UNL     1      41.134 -13.435   3.572  1.00  0.00     0.277 HD
BRANCH  16  19
HETATM   19  C   UNL     1      42.661 -13.333   2.220  1.00  0.00     0.271 C 
BRANCH  19  20
HETATM   20  C   UNL     1      42.893 -14.756   2.638  1.00  0.00    -0.030 A 
HETATM   21  C   UNL     1      43.009 -15.773   1.677  1.00  0.00     0.012 A 
HETATM   22  C   UNL     1      43.259 -17.091   2.068  1.00  0.00     0.040 A 
HETATM   23  C   UNL     1      43.400 -17.402   3.417  1.00  0.00     0.102 A 
HETATM   24  C   UNL     1      43.245 -16.407   4.383  1.00  0.00     0.102 A 
HETATM   25  O   UNL     1      43.695 -18.704   3.724  1.00  0.00    -0.346 OA
HETATM   26  C   UNL     1      42.999 -15.089   3.997  1.00  0.00     0.048 A 
HETATM   27  O   UNL     1      43.345 -16.641   5.729  1.00  0.00    -0.346 OA
HETATM   28  C   UNL     1      43.333 -18.044   6.031  1.00  0.00     0.202 C 
HETATM   29  C   UNL     1      44.208 -18.819   5.058  1.00  0.00     0.202 C 
ENDBRANCH  19  20
ENDBRANCH  16  19
ENDBRANCH  13  16
ENDBRANCH   9  10
ENDBRANCH   1   9
TORSDOF 5
ENDMDL
