MODEL 1
REMARK VINA RESULT:      -9.9      0.000      0.000
REMARK  9 active torsions:
REMARK  status: ('A' for Active; 'I' for Inactive)
REMARK    1  A    between atoms: O_2  and  C_3 
REMARK    2  A    between atoms: C_6  and  C_7 
REMARK    3  A    between atoms: C_8  and  C_9 
REMARK    4  A    between atoms: C_9  and  O_10 
REMARK    5  A    between atoms: O_10  and  C_11 
REMARK    6  A    between atoms: C_14  and  C_15 
REMARK    7  A    between atoms: C_17  and  O_18 
REMARK    8  A    between atoms: N_26  and  C_28 
REMARK    9  A    between atoms: C_28  and  C_29 
ROOT
HETATM    1  C   UNL     1      45.120 -10.096   8.016  1.00  0.00     0.243 C 
HETATM    2  N   UNL     1      45.440 -10.832   9.268  1.00  0.00    -0.235 NA
HETATM    3  C   UNL     1      44.782 -10.424  10.294  1.00  0.00     0.173 C 
HETATM    4  C   UNL     1      43.888  -9.293  10.305  1.00  0.00     0.057 A 
HETATM    5  C   UNL     1      44.009  -8.415   9.254  1.00  0.00     0.087 A 
HETATM    6  S   UNL     1      42.954  -7.095   9.362  1.00  0.00    -0.074 SA
HETATM    7  C   UNL     1      42.239  -7.734  10.770  1.00  0.00     0.018 A 
HETATM    8  C   UNL     1      42.836  -8.913  11.189  1.00  0.00    -0.024 A 
HETATM    9  C   UNL     1      42.349  -9.654  12.396  1.00  0.00     0.068 C 
HETATM   10  C   UNL     1      40.945  -9.183  12.811  1.00  0.00     0.240 C 
HETATM   11  N   UNL     1      40.825  -7.657  12.814  1.00  0.00    -0.063 N 
HETATM   12  H   UNL     1      39.850  -7.448  13.052  1.00  0.00     0.280 HD
HETATM   13  C   UNL     1      41.059  -7.094  11.418  1.00  0.00     0.282 C 
HETATM   14  N   UNL     1      44.866  -8.664   8.241  1.00  0.00    -0.357 N 
HETATM   15  H   UNL     1      44.806  -8.105   7.397  1.00  0.00     0.162 HD
ENDROOT
BRANCH   1  16
HETATM   16  C   UNL     1      43.921 -10.724   7.273  1.00  0.00    -0.014 A 
HETATM   17  C   UNL     1      42.952  -9.918   6.637  1.00  0.00     0.014 A 
HETATM   18  C   UNL     1      41.984 -10.479   5.802  1.00  0.00     0.038 A 
HETATM   19  C   UNL     1      41.979 -11.854   5.604  1.00  0.00     0.079 A 
HETATM   20  C   UNL     1      42.836 -12.687   6.316  1.00  0.00     0.038 A 
HETATM   21  C   UNL     1      43.797 -12.122   7.155  1.00  0.00     0.014 A 
BRANCH  19  22
HETATM   22  O   UNL     1      41.102 -12.444   4.696  1.00  0.00    -0.276 OA
BRANCH  22  23
HETATM   23  C   UNL     1      41.755 -12.930   3.578  1.00  0.00     0.288 C 
HETATM   24  O   UNL     1      42.134 -12.301   2.596  1.00  0.00    -0.260 OA
BRANCH  23  25
HETATM   25  C   UNL     1      42.002 -14.384   3.693  1.00  0.00     0.083 C 
HETATM   26  C   UNL     1      43.159 -14.980   3.366  1.00  0.00     0.017 C 
BRANCH  26  27
HETATM   27  C   UNL     1      43.325 -16.438   3.365  1.00  0.00    -0.036 A 
HETATM   28  C   UNL     1      43.787 -17.061   4.528  1.00  0.00     0.014 A 
HETATM   29  C   UNL     1      43.964 -18.447   4.566  1.00  0.00     0.037 A 
HETATM   30  C   UNL     1      43.668 -19.232   3.451  1.00  0.00     0.068 A 
HETATM   31  C   UNL     1      43.190 -18.619   2.294  1.00  0.00     0.037 A 
HETATM   32  C   UNL     1      43.016 -17.229   2.253  1.00  0.00     0.014 A 
BRANCH  30  33
HETATM   33  O   UNL     1      43.889 -20.570   3.623  1.00  0.00    -0.356 OA
HETATM   34  C   UNL     1      44.257 -21.000   4.928  1.00  0.00     0.210 C 
ENDBRANCH  30  33
ENDBRANCH  26  27
ENDBRANCH  23  25
ENDBRANCH  22  23
ENDBRANCH  19  22
ENDBRANCH   1  16
BRANCH   3  35
HETATM   35  O   UNL     1      44.930 -11.081  11.459  1.00  0.00    -0.344 OA
HETATM   36  H   UNL     1      45.449 -11.881  11.261  1.00  0.00     0.219 HD
ENDBRANCH   3  35
BRANCH  11  37
HETATM   37  C   UNL     1      41.669  -6.953  13.852  1.00  0.00     0.273 C 
BRANCH  37  38
HETATM   38  C   UNL     1      41.031  -6.913  15.214  1.00  0.00    -0.033 A 
HETATM   39  C   UNL     1      41.473  -7.778  16.227  1.00  0.00     0.009 A 
HETATM   40  C   UNL     1      40.859  -7.772  17.479  1.00  0.00     0.001 A 
HETATM   41  C   UNL     1      39.801  -6.902  17.734  1.00  0.00     0.000 A 
HETATM   42  C   UNL     1      39.360  -6.031  16.741  1.00  0.00     0.001 A 
HETATM   43  C   UNL     1      39.972  -6.032  15.486  1.00  0.00     0.009 A 
ENDBRANCH  37  38
ENDBRANCH  11  37
TORSDOF 9
ENDMDL
MODEL 2
REMARK VINA RESULT:      -9.5      1.340      2.093
REMARK  9 active torsions:
REMARK  status: ('A' for Active; 'I' for Inactive)
REMARK    1  A    between atoms: O_2  and  C_3 
REMARK    2  A    between atoms: C_6  and  C_7 
REMARK    3  A    between atoms: C_8  and  C_9 
REMARK    4  A    between atoms: C_9  and  O_10 
REMARK    5  A    between atoms: O_10  and  C_11 
REMARK    6  A    between atoms: C_14  and  C_15 
REMARK    7  A    between atoms: C_17  and  O_18 
REMARK    8  A    between atoms: N_26  and  C_28 
REMARK    9  A    between atoms: C_28  and  C_29 
ROOT
HETATM    1  C   UNL     1      45.300  -9.972   8.777  1.00  0.00     0.243 C 
HETATM    2  N   UNL     1      45.268 -10.844   9.982  1.00  0.00    -0.235 NA
HETATM    3  C   UNL     1      44.315 -10.566  10.799  1.00  0.00     0.173 C 
HETATM    4  C   UNL     1      43.405  -9.456  10.659  1.00  0.00     0.057 A 
HETATM    5  C   UNL     1      43.792  -8.461   9.793  1.00  0.00     0.087 A 
HETATM    6  S   UNL     1      42.691  -7.177   9.717  1.00  0.00    -0.074 SA
HETATM    7  C   UNL     1      41.620  -7.984  10.768  1.00  0.00     0.018 A 
HETATM    8  C   UNL     1      42.121  -9.195  11.220  1.00  0.00    -0.024 A 
HETATM    9  C   UNL     1      41.333 -10.077  12.139  1.00  0.00     0.068 C 
HETATM   10  C   UNL     1      39.848  -9.676  12.158  1.00  0.00     0.240 C 
HETATM   11  N   UNL     1      39.659  -8.163  12.286  1.00  0.00    -0.063 N 
HETATM   12  H   UNL     1      38.649  -7.996  12.240  1.00  0.00     0.280 HD
HETATM   13  C   UNL     1      40.272  -7.439  11.094  1.00  0.00     0.282 C 
HETATM   14  N   UNL     1      44.923  -8.580   9.065  1.00  0.00    -0.357 N 
HETATM   15  H   UNL     1      45.091  -7.928   8.306  1.00  0.00     0.162 HD
ENDROOT
BRANCH   1  16
HETATM   16  C   UNL     1      44.409 -10.527   7.645  1.00  0.00    -0.014 A 
HETATM   17  C   UNL     1      44.747 -11.717   6.966  1.00  0.00     0.014 A 
HETATM   18  C   UNL     1      43.850 -12.324   6.086  1.00  0.00     0.038 A 
HETATM   19  C   UNL     1      42.607 -11.738   5.878  1.00  0.00     0.079 A 
HETATM   20  C   UNL     1      42.294 -10.500   6.431  1.00  0.00     0.038 A 
HETATM   21  C   UNL     1      43.197  -9.894   7.305  1.00  0.00     0.014 A 
BRANCH  19  22
HETATM   22  O   UNL     1      41.640 -12.365   5.095  1.00  0.00    -0.276 OA
BRANCH  22  23
HETATM   23  C   UNL     1      41.024 -13.409   5.760  1.00  0.00     0.288 C 
HETATM   24  O   UNL     1      40.045 -13.358   6.497  1.00  0.00    -0.260 OA
BRANCH  23  25
HETATM   25  C   UNL     1      41.682 -14.700   5.457  1.00  0.00     0.083 C 
HETATM   26  C   UNL     1      42.239 -15.002   4.275  1.00  0.00     0.017 C 
BRANCH  26  27
HETATM   27  C   UNL     1      42.763 -16.337   3.966  1.00  0.00    -0.036 A 
HETATM   28  C   UNL     1      42.359 -16.959   2.780  1.00  0.00     0.014 A 
HETATM   29  C   UNL     1      42.831 -18.232   2.453  1.00  0.00     0.037 A 
HETATM   30  C   UNL     1      43.724 -18.898   3.294  1.00  0.00     0.068 A 
HETATM   31  C   UNL     1      44.143 -18.277   4.470  1.00  0.00     0.037 A 
HETATM   32  C   UNL     1      43.668 -17.001   4.802  1.00  0.00     0.014 A 
BRANCH  30  33
HETATM   33  O   UNL     1      44.101 -20.136   2.856  1.00  0.00    -0.356 OA
HETATM   34  C   UNL     1      43.659 -20.524   1.561  1.00  0.00     0.210 C 
ENDBRANCH  30  33
ENDBRANCH  26  27
ENDBRANCH  23  25
ENDBRANCH  22  23
ENDBRANCH  19  22
ENDBRANCH   1  16
BRANCH   3  35
HETATM   35  O   UNL     1      44.141 -11.351  11.878  1.00  0.00    -0.344 OA
HETATM   36  H   UNL     1      44.000 -10.755  12.634  1.00  0.00     0.219 HD
ENDBRANCH   3  35
BRANCH  11  37
HETATM   37  C   UNL     1      40.120  -7.572  13.599  1.00  0.00     0.273 C 
BRANCH  37  38
HETATM   38  C   UNL     1      39.212  -6.492  14.120  1.00  0.00    -0.033 A 
HETATM   39  C   UNL     1      39.294  -6.086  15.461  1.00  0.00     0.009 A 
HETATM   40  C   UNL     1      38.429  -5.112  15.960  1.00  0.00     0.001 A 
HETATM   41  C   UNL     1      37.475  -4.533  15.126  1.00  0.00     0.000 A 
HETATM   42  C   UNL     1      37.390  -4.920  13.790  1.00  0.00     0.001 A 
HETATM   43  C   UNL     1      38.255  -5.893  13.286  1.00  0.00     0.009 A 
ENDBRANCH  37  38
ENDBRANCH  11  37
TORSDOF 9
ENDMDL
MODEL 3
REMARK VINA RESULT:      -9.5      3.171     12.637
REMARK  9 active torsions:
REMARK  status: ('A' for Active; 'I' for Inactive)
REMARK    1  A    between atoms: O_2  and  C_3 
REMARK    2  A    between atoms: C_6  and  C_7 
REMARK    3  A    between atoms: C_8  and  C_9 
REMARK    4  A    between atoms: C_9  and  O_10 
REMARK    5  A    between atoms: O_10  and  C_11 
REMARK    6  A    between atoms: C_14  and  C_15 
REMARK    7  A    between atoms: C_17  and  O_18 
REMARK    8  A    between atoms: N_26  and  C_28 
REMARK    9  A    between atoms: C_28  and  C_29 
ROOT
HETATM    1  C   UNL     1      40.026  -8.910   7.069  1.00  0.00     0.243 C 
HETATM    2  N   UNL     1      38.884  -9.779   6.680  1.00  0.00    -0.235 NA
HETATM    3  C   UNL     1      39.231 -10.960   6.309  1.00  0.00     0.173 C 
HETATM    4  C   UNL     1      40.593 -11.412   6.164  1.00  0.00     0.057 A 
HETATM    5  C   UNL     1      41.553 -10.430   6.096  1.00  0.00     0.087 A 
HETATM    6  S   UNL     1      43.118 -11.041   5.884  1.00  0.00    -0.074 SA
HETATM    7  C   UNL     1      42.548 -12.643   5.987  1.00  0.00     0.018 A 
HETATM    8  C   UNL     1      41.169 -12.715   6.123  1.00  0.00    -0.024 A 
HETATM    9  C   UNL     1      40.460 -14.028   6.251  1.00  0.00     0.068 C 
HETATM   10  C   UNL     1      41.441 -15.158   6.610  1.00  0.00     0.240 C 
HETATM   11  N   UNL     1      42.711 -15.113   5.758  1.00  0.00    -0.063 N 
HETATM   12  H   UNL     1      43.314 -15.867   6.103  1.00  0.00     0.280 HD
HETATM   13  C   UNL     1      43.470 -13.813   5.988  1.00  0.00     0.282 C 
HETATM   14  N   UNL     1      41.223  -9.129   6.242  1.00  0.00    -0.357 N 
HETATM   15  H   UNL     1      41.961  -8.446   6.372  1.00  0.00     0.162 HD
ENDROOT
BRANCH   1  16
HETATM   16  C   UNL     1      40.390  -9.077   8.561  1.00  0.00    -0.014 A 
HETATM   17  C   UNL     1      39.414  -9.438   9.514  1.00  0.00     0.014 A 
HETATM   18  C   UNL     1      39.774  -9.782  10.818  1.00  0.00     0.038 A 
HETATM   19  C   UNL     1      41.116  -9.760  11.176  1.00  0.00     0.079 A 
HETATM   20  C   UNL     1      42.086  -9.285  10.299  1.00  0.00     0.038 A 
HETATM   21  C   UNL     1      41.721  -8.936   8.999  1.00  0.00     0.014 A 
BRANCH  19  22
HETATM   22  O   UNL     1      41.531 -10.199  12.432  1.00  0.00    -0.276 OA
BRANCH  22  23
HETATM   23  C   UNL     1      40.503 -10.181  13.358  1.00  0.00     0.288 C 
HETATM   24  O   UNL     1      39.648 -11.039  13.549  1.00  0.00    -0.260 OA
BRANCH  23  25
HETATM   25  C   UNL     1      40.549  -8.954  14.183  1.00  0.00     0.083 C 
HETATM   26  C   UNL     1      41.649  -8.503  14.804  1.00  0.00     0.017 C 
BRANCH  26  27
HETATM   27  C   UNL     1      41.627  -7.359  15.722  1.00  0.00    -0.036 A 
HETATM   28  C   UNL     1      41.398  -6.083  15.198  1.00  0.00     0.014 A 
HETATM   29  C   UNL     1      41.375  -4.967  16.039  1.00  0.00     0.037 A 
HETATM   30  C   UNL     1      41.563  -5.108  17.415  1.00  0.00     0.068 A 
HETATM   31  C   UNL     1      41.775  -6.380  17.945  1.00  0.00     0.037 A 
HETATM   32  C   UNL     1      41.803  -7.500  17.103  1.00  0.00     0.014 A 
BRANCH  30  33
HETATM   33  O   UNL     1      41.520  -3.938  18.117  1.00  0.00    -0.356 OA
HETATM   34  C   UNL     1      41.983  -2.769  17.453  1.00  0.00     0.210 C 
ENDBRANCH  30  33
ENDBRANCH  26  27
ENDBRANCH  23  25
ENDBRANCH  22  23
ENDBRANCH  19  22
ENDBRANCH   1  16
BRANCH   3  35
HETATM   35  O   UNL     1      38.269 -11.855   6.021  1.00  0.00    -0.344 OA
HETATM   36  H   UNL     1      37.926 -11.619   5.142  1.00  0.00     0.219 HD
ENDBRANCH   3  35
BRANCH  11  37
HETATM   37  C   UNL     1      42.502 -15.388   4.286  1.00  0.00     0.273 C 
BRANCH  37  38
HETATM   38  C   UNL     1      43.035 -16.724   3.846  1.00  0.00    -0.033 A 
HETATM   39  C   UNL     1      42.608 -17.291   2.634  1.00  0.00     0.009 A 
HETATM   40  C   UNL     1      43.070 -18.546   2.240  1.00  0.00     0.001 A 
HETATM   41  C   UNL     1      43.962 -19.247   3.048  1.00  0.00     0.000 A 
HETATM   42  C   UNL     1      44.401 -18.692   4.247  1.00  0.00     0.001 A 
HETATM   43  C   UNL     1      43.943 -17.434   4.646  1.00  0.00     0.009 A 
ENDBRANCH  37  38
ENDBRANCH  11  37
TORSDOF 9
ENDMDL
MODEL 4
REMARK VINA RESULT:      -9.5      2.971     12.905
REMARK  9 active torsions:
REMARK  status: ('A' for Active; 'I' for Inactive)
REMARK    1  A    between atoms: O_2  and  C_3 
REMARK    2  A    between atoms: C_6  and  C_7 
REMARK    3  A    between atoms: C_8  and  C_9 
REMARK    4  A    between atoms: C_9  and  O_10 
REMARK    5  A    between atoms: O_10  and  C_11 
REMARK    6  A    between atoms: C_14  and  C_15 
REMARK    7  A    between atoms: C_17  and  O_18 
REMARK    8  A    between atoms: N_26  and  C_28 
REMARK    9  A    between atoms: C_28  and  C_29 
ROOT
HETATM    1  C   UNL     1      42.570  -8.984   7.551  1.00  0.00     0.243 C 
HETATM    2  N   UNL     1      41.334  -9.241   6.765  1.00  0.00    -0.235 NA
HETATM    3  C   UNL     1      41.255 -10.435   6.296  1.00  0.00     0.173 C 
HETATM    4  C   UNL     1      42.289 -11.434   6.404  1.00  0.00     0.057 A 
HETATM    5  C   UNL     1      43.543 -10.974   6.728  1.00  0.00     0.087 A 
HETATM    6  S   UNL     1      44.708 -12.202   6.793  1.00  0.00    -0.074 SA
HETATM    7  C   UNL     1      43.526 -13.391   6.492  1.00  0.00     0.018 A 
HETATM    8  C   UNL     1      42.264 -12.854   6.285  1.00  0.00    -0.024 A 
HETATM    9  C   UNL     1      41.074 -13.725   6.023  1.00  0.00     0.068 C 
HETATM   10  C   UNL     1      41.356 -15.186   6.411  1.00  0.00     0.240 C 
HETATM   11  N   UNL     1      42.717 -15.667   5.902  1.00  0.00    -0.063 N 
HETATM   12  H   UNL     1      42.831 -16.624   6.250  1.00  0.00     0.280 HD
HETATM   13  C   UNL     1      43.844 -14.847   6.517  1.00  0.00     0.282 C 
HETATM   14  N   UNL     1      43.751  -9.669   7.005  1.00  0.00    -0.357 N 
HETATM   15  H   UNL     1      44.634  -9.388   7.417  1.00  0.00     0.162 HD
ENDROOT
BRANCH   1  16
HETATM   16  C   UNL     1      42.392  -9.362   9.038  1.00  0.00    -0.014 A 
HETATM   17  C   UNL     1      43.470  -9.862   9.798  1.00  0.00     0.014 A 
HETATM   18  C   UNL     1      43.366 -10.017  11.181  1.00  0.00     0.038 A 
HETATM   19  C   UNL     1      42.176  -9.675  11.811  1.00  0.00     0.079 A 
HETATM   20  C   UNL     1      41.055  -9.303  11.076  1.00  0.00     0.038 A 
HETATM   21  C   UNL     1      41.162  -9.157   9.693  1.00  0.00     0.014 A 
BRANCH  19  22
HETATM   22  O   UNL     1      42.064  -9.709  13.199  1.00  0.00    -0.276 OA
BRANCH  22  23
HETATM   23  C   UNL     1      42.423  -8.508  13.783  1.00  0.00     0.288 C 
HETATM   24  O   UNL     1      43.091  -7.604  13.295  1.00  0.00    -0.260 OA
BRANCH  23  25
HETATM   25  C   UNL     1      41.858  -8.386  15.146  1.00  0.00     0.083 C 
HETATM   26  C   UNL     1      41.932  -7.277  15.896  1.00  0.00     0.017 C 
BRANCH  26  27
HETATM   27  C   UNL     1      41.481  -7.234  17.292  1.00  0.00    -0.036 A 
HETATM   28  C   UNL     1      40.288  -7.878  17.631  1.00  0.00     0.014 A 
HETATM   29  C   UNL     1      39.821  -7.856  18.947  1.00  0.00     0.037 A 
HETATM   30  C   UNL     1      40.545  -7.204  19.948  1.00  0.00     0.068 A 
HETATM   31  C   UNL     1      41.744  -6.574  19.619  1.00  0.00     0.037 A 
HETATM   32  C   UNL     1      42.212  -6.593  18.298  1.00  0.00     0.014 A 
BRANCH  30  33
HETATM   33  O   UNL     1      39.974  -7.257  21.188  1.00  0.00    -0.356 OA
HETATM   34  C   UNL     1      39.835  -8.543  21.780  1.00  0.00     0.210 C 
ENDBRANCH  30  33
ENDBRANCH  26  27
ENDBRANCH  23  25
ENDBRANCH  22  23
ENDBRANCH  19  22
ENDBRANCH   1  16
BRANCH   3  35
HETATM   35  O   UNL     1      40.135 -10.800   5.646  1.00  0.00    -0.344 OA
HETATM   36  H   UNL     1      40.162 -11.770   5.573  1.00  0.00     0.219 HD
ENDBRANCH   3  35
BRANCH  11  37
HETATM   37  C   UNL     1      42.841 -15.753   4.398  1.00  0.00     0.273 C 
BRANCH  37  38
HETATM   38  C   UNL     1      43.155 -17.138   3.902  1.00  0.00    -0.033 A 
HETATM   39  C   UNL     1      43.910 -18.018   4.695  1.00  0.00     0.009 A 
HETATM   40  C   UNL     1      44.237 -19.289   4.224  1.00  0.00     0.001 A 
HETATM   41  C   UNL     1      43.814 -19.696   2.961  1.00  0.00     0.000 A 
HETATM   42  C   UNL     1      43.055 -18.837   2.169  1.00  0.00     0.001 A 
HETATM   43  C   UNL     1      42.724 -17.564   2.636  1.00  0.00     0.009 A 
ENDBRANCH  37  38
ENDBRANCH  11  37
TORSDOF 9
ENDMDL
MODEL 5
REMARK VINA RESULT:      -9.4      3.121     12.773
REMARK  9 active torsions:
REMARK  status: ('A' for Active; 'I' for Inactive)
REMARK    1  A    between atoms: O_2  and  C_3 
REMARK    2  A    between atoms: C_6  and  C_7 
REMARK    3  A    between atoms: C_8  and  C_9 
REMARK    4  A    between atoms: C_9  and  O_10 
REMARK    5  A    between atoms: O_10  and  C_11 
REMARK    6  A    between atoms: C_14  and  C_15 
REMARK    7  A    between atoms: C_17  and  O_18 
REMARK    8  A    between atoms: N_26  and  C_28 
REMARK    9  A    between atoms: C_28  and  C_29 
ROOT
HETATM    1  C   UNL     1      43.735  -7.554   8.873  1.00  0.00     0.243 C 
HETATM    2  N   UNL     1      42.781  -7.222   7.782  1.00  0.00    -0.235 NA
HETATM    3  C   UNL     1      42.496  -8.217   7.020  1.00  0.00     0.173 C 
HETATM    4  C   UNL     1      43.099  -9.524   7.109  1.00  0.00     0.057 A 
HETATM    5  C   UNL     1      44.271  -9.602   7.822  1.00  0.00     0.087 A 
HETATM    6  S   UNL     1      44.937 -11.160   7.844  1.00  0.00    -0.074 SA
HETATM    7  C   UNL     1      43.604 -11.782   6.984  1.00  0.00     0.018 A 
HETATM    8  C   UNL     1      42.687 -10.802   6.631  1.00  0.00    -0.024 A 
HETATM    9  C   UNL     1      41.431 -11.135   5.886  1.00  0.00     0.068 C 
HETATM   10  C   UNL     1      41.130 -12.642   5.946  1.00  0.00     0.240 C 
HETATM   11  N   UNL     1      42.372 -13.491   5.664  1.00  0.00    -0.063 N 
HETATM   12  H   UNL     1      42.082 -14.468   5.774  1.00  0.00     0.280 HD
HETATM   13  C   UNL     1      43.448 -13.238   6.712  1.00  0.00     0.282 C 
HETATM   14  N   UNL     1      44.765  -8.521   8.462  1.00  0.00    -0.357 N 
HETATM   15  H   UNL     1      45.521  -8.644   9.126  1.00  0.00     0.162 HD
ENDROOT
BRANCH   1  16
HETATM   16  C   UNL     1      43.007  -8.075  10.131  1.00  0.00    -0.014 A 
HETATM   17  C   UNL     1      43.726  -8.590  11.230  1.00  0.00     0.014 A 
HETATM   18  C   UNL     1      43.088  -8.876  12.438  1.00  0.00     0.038 A 
HETATM   19  C   UNL     1      41.721  -8.651  12.550  1.00  0.00     0.079 A 
HETATM   20  C   UNL     1      40.963  -8.268  11.447  1.00  0.00     0.038 A 
HETATM   21  C   UNL     1      41.605  -7.991  10.240  1.00  0.00     0.014 A 
BRANCH  19  22
HETATM   22  O   UNL     1      41.064  -8.818  13.766  1.00  0.00    -0.276 OA
BRANCH  22  23
HETATM   23  C   UNL     1      41.278  -7.757  14.628  1.00  0.00     0.288 C 
HETATM   24  O   UNL     1      41.488  -6.584  14.339  1.00  0.00    -0.260 OA
BRANCH  23  25
HETATM   25  C   UNL     1      41.196  -8.190  16.040  1.00  0.00     0.083 C 
HETATM   26  C   UNL     1      40.605  -7.480  17.013  1.00  0.00     0.017 C 
BRANCH  26  27
HETATM   27  C   UNL     1      40.659  -7.875  18.425  1.00  0.00    -0.036 A 
HETATM   28  C   UNL     1      41.902  -7.908  19.066  1.00  0.00     0.014 A 
HETATM   29  C   UNL     1      41.996  -8.284  20.408  1.00  0.00     0.037 A 
HETATM   30  C   UNL     1      40.852  -8.618  21.135  1.00  0.00     0.068 A 
HETATM   31  C   UNL     1      39.609  -8.571  20.507  1.00  0.00     0.037 A 
HETATM   32  C   UNL     1      39.512  -8.197  19.159  1.00  0.00     0.014 A 
BRANCH  30  33
HETATM   33  O   UNL     1      41.087  -8.970  22.434  1.00  0.00    -0.356 OA
HETATM   34  C   UNL     1      40.392 -10.106  22.931  1.00  0.00     0.210 C 
ENDBRANCH  30  33
ENDBRANCH  26  27
ENDBRANCH  23  25
ENDBRANCH  22  23
ENDBRANCH  19  22
ENDBRANCH   1  16
BRANCH   3  35
HETATM   35  O   UNL     1      41.573  -8.048   6.055  1.00  0.00    -0.344 OA
HETATM   36  H   UNL     1      41.052  -7.265   6.305  1.00  0.00     0.219 HD
ENDBRANCH   3  35
BRANCH  11  37
HETATM   37  C   UNL     1      42.919 -13.375   4.258  1.00  0.00     0.273 C 
BRANCH  37  38
HETATM   38  C   UNL     1      43.029 -14.696   3.549  1.00  0.00    -0.033 A 
HETATM   39  C   UNL     1      43.159 -14.739   2.152  1.00  0.00     0.009 A 
HETATM   40  C   UNL     1      43.223 -15.963   1.485  1.00  0.00     0.001 A 
HETATM   41  C   UNL     1      43.160 -17.154   2.205  1.00  0.00     0.000 A 
HETATM   42  C   UNL     1      43.042 -17.125   3.592  1.00  0.00     0.001 A 
HETATM   43  C   UNL     1      42.979 -15.903   4.264  1.00  0.00     0.009 A 
ENDBRANCH  37  38
ENDBRANCH  11  37
TORSDOF 9
ENDMDL
MODEL 6
REMARK VINA RESULT:      -9.4      5.704     10.329
REMARK  9 active torsions:
REMARK  status: ('A' for Active; 'I' for Inactive)
REMARK    1  A    between atoms: O_2  and  C_3 
REMARK    2  A    between atoms: C_6  and  C_7 
REMARK    3  A    between atoms: C_8  and  C_9 
REMARK    4  A    between atoms: C_9  and  O_10 
REMARK    5  A    between atoms: O_10  and  C_11 
REMARK    6  A    between atoms: C_14  and  C_15 
REMARK    7  A    between atoms: C_17  and  O_18 
REMARK    8  A    between atoms: N_26  and  C_28 
REMARK    9  A    between atoms: C_28  and  C_29 
ROOT
HETATM    1  C   UNL     1      43.261 -11.104   6.644  1.00  0.00     0.243 C 
HETATM    2  N   UNL     1      44.059 -10.793   5.429  1.00  0.00    -0.235 NA
HETATM    3  C   UNL     1      44.056 -11.731   4.550  1.00  0.00     0.173 C 
HETATM    4  C   UNL     1      43.440 -13.023   4.725  1.00  0.00     0.057 A 
HETATM    5  C   UNL     1      43.139 -13.380   6.017  1.00  0.00     0.087 A 
HETATM    6  S   UNL     1      42.460 -14.927   6.141  1.00  0.00    -0.074 SA
HETATM    7  C   UNL     1      42.458 -15.103   4.447  1.00  0.00     0.018 A 
HETATM    8  C   UNL     1      43.024 -14.019   3.793  1.00  0.00    -0.024 A 
HETATM    9  C   UNL     1      43.107 -13.959   2.299  1.00  0.00     0.068 C 
HETATM   10  C   UNL     1      42.167 -14.987   1.647  1.00  0.00     0.240 C 
HETATM   11  N   UNL     1      42.265 -16.362   2.312  1.00  0.00    -0.063 N 
HETATM   12  H   UNL     1      41.574 -16.956   1.844  1.00  0.00     0.280 HD
HETATM   13  C   UNL     1      41.849 -16.286   3.775  1.00  0.00     0.282 C 
HETATM   14  N   UNL     1      43.341 -12.519   7.038  1.00  0.00    -0.357 N 
HETATM   15  H   UNL     1      42.945 -12.731   7.946  1.00  0.00     0.162 HD
ENDROOT
BRANCH   1  16
HETATM   16  C   UNL     1      41.781 -10.696   6.477  1.00  0.00    -0.014 A 
HETATM   17  C   UNL     1      41.410  -9.346   6.307  1.00  0.00     0.014 A 
HETATM   18  C   UNL     1      40.105  -8.995   5.959  1.00  0.00     0.038 A 
HETATM   19  C   UNL     1      39.160  -9.998   5.784  1.00  0.00     0.079 A 
HETATM   20  C   UNL     1      39.461 -11.326   6.069  1.00  0.00     0.038 A 
HETATM   21  C   UNL     1      40.765 -11.671   6.423  1.00  0.00     0.014 A 
BRANCH  19  22
HETATM   22  O   UNL     1      37.876  -9.704   5.331  1.00  0.00    -0.276 OA
BRANCH  22  23
HETATM   23  C   UNL     1      37.886  -9.086   4.093  1.00  0.00     0.288 C 
HETATM   24  O   UNL     1      37.551  -7.939   3.822  1.00  0.00    -0.260 OA
BRANCH  23  25
HETATM   25  C   UNL     1      38.408  -9.994   3.047  1.00  0.00     0.083 C 
HETATM   26  C   UNL     1      37.785 -10.243   1.886  1.00  0.00     0.017 C 
BRANCH  26  27
HETATM   27  C   UNL     1      38.263 -11.249   0.931  1.00  0.00    -0.036 A 
HETATM   28  C   UNL     1      37.740 -11.246  -0.365  1.00  0.00     0.014 A 
HETATM   29  C   UNL     1      38.166 -12.192  -1.302  1.00  0.00     0.037 A 
HETATM   30  C   UNL     1      39.129 -13.144  -0.964  1.00  0.00     0.068 A 
HETATM   31  C   UNL     1      39.667 -13.142   0.322  1.00  0.00     0.037 A 
HETATM   32  C   UNL     1      39.239 -12.197   1.264  1.00  0.00     0.014 A 
BRANCH  30  33
HETATM   33  O   UNL     1      39.451 -14.009  -1.972  1.00  0.00    -0.356 OA
HETATM   34  C   UNL     1      38.397 -14.408  -2.840  1.00  0.00     0.210 C 
ENDBRANCH  30  33
ENDBRANCH  26  27
ENDBRANCH  23  25
ENDBRANCH  22  23
ENDBRANCH  19  22
ENDBRANCH   1  16
BRANCH   3  35
HETATM   35  O   UNL     1      44.673 -11.516   3.374  1.00  0.00    -0.344 OA
HETATM   36  H   UNL     1      44.334 -10.670   3.034  1.00  0.00     0.219 HD
ENDBRANCH   3  35
BRANCH  11  37
HETATM   37  C   UNL     1      43.596 -17.060   2.142  1.00  0.00     0.273 C 
BRANCH  37  38
HETATM   38  C   UNL     1      43.676 -18.378   2.861  1.00  0.00    -0.033 A 
HETATM   39  C   UNL     1      44.082 -18.427   4.204  1.00  0.00     0.009 A 
HETATM   40  C   UNL     1      44.194 -19.651   4.865  1.00  0.00     0.001 A 
HETATM   41  C   UNL     1      43.902 -20.836   4.193  1.00  0.00     0.000 A 
HETATM   42  C   UNL     1      43.488 -20.800   2.864  1.00  0.00     0.001 A 
HETATM   43  C   UNL     1      43.372 -19.578   2.199  1.00  0.00     0.009 A 
ENDBRANCH  37  38
ENDBRANCH  11  37
TORSDOF 9
ENDMDL
MODEL 7
REMARK VINA RESULT:      -9.2      3.404     11.661
REMARK  9 active torsions:
REMARK  status: ('A' for Active; 'I' for Inactive)
REMARK    1  A    between atoms: O_2  and  C_3 
REMARK    2  A    between atoms: C_6  and  C_7 
REMARK    3  A    between atoms: C_8  and  C_9 
REMARK    4  A    between atoms: C_9  and  O_10 
REMARK    5  A    between atoms: O_10  and  C_11 
REMARK    6  A    between atoms: C_14  and  C_15 
REMARK    7  A    between atoms: C_17  and  O_18 
REMARK    8  A    between atoms: N_26  and  C_28 
REMARK    9  A    between atoms: C_28  and  C_29 
ROOT
HETATM    1  C   UNL     1      38.946  -8.578   5.159  1.00  0.00     0.243 C 
HETATM    2  N   UNL     1      38.148  -9.644   5.822  1.00  0.00    -0.235 NA
HETATM    3  C   UNL     1      38.675 -10.814   5.741  1.00  0.00     0.173 C 
HETATM    4  C   UNL     1      39.869 -11.131   4.996  1.00  0.00     0.057 A 
HETATM    5  C   UNL     1      40.264 -10.205   4.062  1.00  0.00     0.087 A 
HETATM    6  S   UNL     1      41.647 -10.671   3.203  1.00  0.00    -0.074 SA
HETATM    7  C   UNL     1      41.804 -12.081   4.147  1.00  0.00     0.018 A 
HETATM    8  C   UNL     1      40.779 -12.226   5.070  1.00  0.00    -0.024 A 
HETATM    9  C   UNL     1      40.732 -13.387   6.015  1.00  0.00     0.068 C 
HETATM   10  C   UNL     1      42.095 -14.096   6.094  1.00  0.00     0.240 C 
HETATM   11  N   UNL     1      42.707 -14.328   4.710  1.00  0.00    -0.063 N 
HETATM   12  H   UNL     1      43.624 -14.756   4.870  1.00  0.00     0.280 HD
HETATM   13  C   UNL     1      42.966 -13.002   4.006  1.00  0.00     0.282 C 
HETATM   14  N   UNL     1      39.603  -9.035   3.925  1.00  0.00    -0.357 N 
HETATM   15  H   UNL     1      40.018  -8.298   3.366  1.00  0.00     0.162 HD
ENDROOT
BRANCH   1  16
HETATM   16  C   UNL     1      39.998  -7.973   6.113  1.00  0.00    -0.014 A 
HETATM   17  C   UNL     1      40.039  -8.333   7.477  1.00  0.00     0.014 A 
HETATM   18  C   UNL     1      41.104  -7.945   8.293  1.00  0.00     0.038 A 
HETATM   19  C   UNL     1      42.133  -7.189   7.745  1.00  0.00     0.079 A 
HETATM   20  C   UNL     1      42.058  -6.710   6.441  1.00  0.00     0.038 A 
HETATM   21  C   UNL     1      40.989  -7.095   5.632  1.00  0.00     0.014 A 
BRANCH  19  22
HETATM   22  O   UNL     1      43.265  -6.872   8.492  1.00  0.00    -0.276 OA
BRANCH  22  23
HETATM   23  C   UNL     1      43.630  -7.895   9.349  1.00  0.00     0.288 C 
HETATM   24  O   UNL     1      44.373  -8.842   9.118  1.00  0.00    -0.260 OA
BRANCH  23  25
HETATM   25  C   UNL     1      43.021  -7.715  10.686  1.00  0.00     0.083 C 
HETATM   26  C   UNL     1      43.516  -8.239  11.817  1.00  0.00     0.017 C 
BRANCH  26  27
HETATM   27  C   UNL     1      42.815  -8.153  13.103  1.00  0.00    -0.036 A 
HETATM   28  C   UNL     1      43.260  -7.225  14.049  1.00  0.00     0.014 A 
HETATM   29  C   UNL     1      42.622  -7.116  15.287  1.00  0.00     0.037 A 
HETATM   30  C   UNL     1      41.522  -7.919  15.594  1.00  0.00     0.068 A 
HETATM   31  C   UNL     1      41.064  -8.835  14.649  1.00  0.00     0.037 A 
HETATM   32  C   UNL     1      41.704  -8.948  13.407  1.00  0.00     0.014 A 
BRANCH  30  33
HETATM   33  O   UNL     1      40.997  -7.712  16.838  1.00  0.00    -0.356 OA
HETATM   34  C   UNL     1      40.135  -6.592  16.996  1.00  0.00     0.210 C 
ENDBRANCH  30  33
ENDBRANCH  26  27
ENDBRANCH  23  25
ENDBRANCH  22  23
ENDBRANCH  19  22
ENDBRANCH   1  16
BRANCH   3  35
HETATM   35  O   UNL     1      38.081 -11.835   6.384  1.00  0.00    -0.344 OA
HETATM   36  H   UNL     1      37.278 -12.050   5.878  1.00  0.00     0.219 HD
ENDBRANCH   3  35
BRANCH  11  37
HETATM   37  C   UNL     1      41.945 -15.292   3.829  1.00  0.00     0.273 C 
BRANCH  37  38
HETATM   38  C   UNL     1      42.649 -16.607   3.633  1.00  0.00    -0.033 A 
HETATM   39  C   UNL     1      43.536 -17.086   4.610  1.00  0.00     0.009 A 
HETATM   40  C   UNL     1      44.221 -18.285   4.416  1.00  0.00     0.001 A 
HETATM   41  C   UNL     1      44.027 -19.018   3.248  1.00  0.00     0.000 A 
HETATM   42  C   UNL     1      43.142 -18.559   2.275  1.00  0.00     0.001 A 
HETATM   43  C   UNL     1      42.452 -17.360   2.465  1.00  0.00     0.009 A 
ENDBRANCH  37  38
ENDBRANCH  11  37
TORSDOF 9
ENDMDL
MODEL 8
REMARK VINA RESULT:      -9.1      4.002     12.200
REMARK  9 active torsions:
REMARK  status: ('A' for Active; 'I' for Inactive)
REMARK    1  A    between atoms: O_2  and  C_3 
REMARK    2  A    between atoms: C_6  and  C_7 
REMARK    3  A    between atoms: C_8  and  C_9 
REMARK    4  A    between atoms: C_9  and  O_10 
REMARK    5  A    between atoms: O_10  and  C_11 
REMARK    6  A    between atoms: C_14  and  C_15 
REMARK    7  A    between atoms: C_17  and  O_18 
REMARK    8  A    between atoms: N_26  and  C_28 
REMARK    9  A    between atoms: C_28  and  C_29 
ROOT
HETATM    1  C   UNL     1      39.395 -10.471   6.532  1.00  0.00     0.243 C 
HETATM    2  N   UNL     1      39.219 -11.920   6.812  1.00  0.00    -0.235 NA
HETATM    3  C   UNL     1      39.501 -12.681   5.815  1.00  0.00     0.173 C 
HETATM    4  C   UNL     1      39.855 -12.215   4.497  1.00  0.00     0.057 A 
HETATM    5  C   UNL     1      39.547 -10.906   4.214  1.00  0.00     0.087 A 
HETATM    6  S   UNL     1      39.956 -10.451   2.635  1.00  0.00    -0.074 SA
HETATM    7  C   UNL     1      40.655 -11.975   2.336  1.00  0.00     0.018 A 
HETATM    8  C   UNL     1      40.526 -12.845   3.408  1.00  0.00    -0.024 A 
HETATM    9  C   UNL     1      41.088 -14.233   3.365  1.00  0.00     0.068 C 
HETATM   10  C   UNL     1      42.109 -14.386   2.225  1.00  0.00     0.240 C 
HETATM   11  N   UNL     1      41.606 -13.779   0.913  1.00  0.00    -0.063 N 
HETATM   12  H   UNL     1      42.369 -13.886   0.237  1.00  0.00     0.280 HD
HETATM   13  C   UNL     1      41.371 -12.281   1.066  1.00  0.00     0.282 C 
HETATM   14  N   UNL     1      39.018 -10.100   5.159  1.00  0.00    -0.357 N 
HETATM   15  H   UNL     1      38.972  -9.103   4.986  1.00  0.00     0.162 HD
ENDROOT
BRANCH   1  16
HETATM   16  C   UNL     1      40.840 -10.004   6.817  1.00  0.00    -0.014 A 
HETATM   17  C   UNL     1      41.114  -8.680   7.219  1.00  0.00     0.014 A 
HETATM   18  C   UNL     1      42.384  -8.311   7.666  1.00  0.00     0.038 A 
HETATM   19  C   UNL     1      43.389  -9.269   7.707  1.00  0.00     0.079 A 
HETATM   20  C   UNL     1      43.186 -10.547   7.197  1.00  0.00     0.038 A 
HETATM   21  C   UNL     1      41.918 -10.909   6.745  1.00  0.00     0.014 A 
BRANCH  19  22
HETATM   22  O   UNL     1      44.639  -8.973   8.247  1.00  0.00    -0.276 OA
BRANCH  22  23
HETATM   23  C   UNL     1      44.935  -9.762   9.344  1.00  0.00     0.288 C 
HETATM   24  O   UNL     1      45.544 -10.826   9.364  1.00  0.00    -0.260 OA
BRANCH  23  25
HETATM   25  C   UNL     1      44.441  -9.146  10.595  1.00  0.00     0.083 C 
HETATM   26  C   UNL     1      43.549  -9.719  11.417  1.00  0.00     0.017 C 
BRANCH  26  27
HETATM   27  C   UNL     1      42.981  -9.023  12.577  1.00  0.00    -0.036 A 
HETATM   28  C   UNL     1      41.870  -9.582  13.216  1.00  0.00     0.014 A 
HETATM   29  C   UNL     1      41.296  -8.947  14.321  1.00  0.00     0.037 A 
HETATM   30  C   UNL     1      41.830  -7.755  14.814  1.00  0.00     0.068 A 
HETATM   31  C   UNL     1      42.948  -7.202  14.191  1.00  0.00     0.037 A 
HETATM   32  C   UNL     1      43.523  -7.835  13.081  1.00  0.00     0.014 A 
BRANCH  30  33
HETATM   33  O   UNL     1      41.171  -7.241  15.894  1.00  0.00    -0.356 OA
HETATM   34  C   UNL     1      41.895  -6.341  16.723  1.00  0.00     0.210 C 
ENDBRANCH  30  33
ENDBRANCH  26  27
ENDBRANCH  23  25
ENDBRANCH  22  23
ENDBRANCH  19  22
ENDBRANCH   1  16
BRANCH   3  35
HETATM   35  O   UNL     1      39.461 -14.014   5.988  1.00  0.00    -0.344 OA
HETATM   36  H   UNL     1      39.689 -14.179   6.920  1.00  0.00     0.219 HD
ENDBRANCH   3  35
BRANCH  11  37
HETATM   37  C   UNL     1      40.409 -14.476   0.305  1.00  0.00     0.273 C 
BRANCH  37  38
HETATM   38  C   UNL     1      39.762 -13.693  -0.805  1.00  0.00    -0.033 A 
HETATM   39  C   UNL     1      38.649 -12.881  -0.540  1.00  0.00     0.009 A 
HETATM   40  C   UNL     1      38.021 -12.184  -1.572  1.00  0.00     0.001 A 
HETATM   41  C   UNL     1      38.499 -12.288  -2.877  1.00  0.00     0.000 A 
HETATM   42  C   UNL     1      39.610 -13.083  -3.151  1.00  0.00     0.001 A 
HETATM   43  C   UNL     1      40.243 -13.782  -2.121  1.00  0.00     0.009 A 
ENDBRANCH  37  38
ENDBRANCH  11  37
TORSDOF 9
ENDMDL
MODEL 9
REMARK VINA RESULT:      -9.1      7.820     13.302
REMARK  9 active torsions:
REMARK  status: ('A' for Active; 'I' for Inactive)
REMARK    1  A    between atoms: O_2  and  C_3 
REMARK    2  A    between atoms: C_6  and  C_7 
REMARK    3  A    between atoms: C_8  and  C_9 
REMARK    4  A    between atoms: C_9  and  O_10 
REMARK    5  A    between atoms: O_10  and  C_11 
REMARK    6  A    between atoms: C_14  and  C_15 
REMARK    7  A    between atoms: C_17  and  O_18 
REMARK    8  A    between atoms: N_26  and  C_28 
REMARK    9  A    between atoms: C_28  and  C_29 
ROOT
HETATM    1  C   UNL     1      39.335 -14.045  -0.731  1.00  0.00     0.243 C 
HETATM    2  N   UNL     1      40.350 -14.225  -1.803  1.00  0.00    -0.235 NA
HETATM    3  C   UNL     1      40.439 -13.227  -2.608  1.00  0.00     0.173 C 
HETATM    4  C   UNL     1      39.584 -12.066  -2.580  1.00  0.00     0.057 A 
HETATM    5  C   UNL     1      38.411 -12.194  -1.875  1.00  0.00     0.087 A 
HETATM    6  S   UNL     1      37.446 -10.803  -1.926  1.00  0.00    -0.074 SA
HETATM    7  C   UNL     1      38.637  -9.964  -2.809  1.00  0.00     0.018 A 
HETATM    8  C   UNL     1      39.736 -10.753  -3.113  1.00  0.00    -0.024 A 
HETATM    9  C   UNL     1      40.909 -10.207  -3.868  1.00  0.00     0.068 C 
HETATM   10  C   UNL     1      40.900  -8.669  -3.875  1.00  0.00     0.240 C 
HETATM   11  N   UNL     1      39.517  -8.100  -4.200  1.00  0.00    -0.063 N 
HETATM   12  H   UNL     1      39.603  -7.082  -4.133  1.00  0.00     0.280 HD
HETATM   13  C   UNL     1      38.500  -8.519  -3.146  1.00  0.00     0.282 C 
HETATM   14  N   UNL     1      38.137 -13.324  -1.188  1.00  0.00    -0.357 N 
HETATM   15  H   UNL     1      37.363 -13.326  -0.534  1.00  0.00     0.162 HD
ENDROOT
BRANCH   1  16
HETATM   16  C   UNL     1      39.927 -13.333   0.505  1.00  0.00    -0.014 A 
HETATM   17  C   UNL     1      39.093 -12.790   1.505  1.00  0.00     0.014 A 
HETATM   18  C   UNL     1      39.621 -12.326   2.710  1.00  0.00     0.038 A 
HETATM   19  C   UNL     1      40.993 -12.399   2.919  1.00  0.00     0.079 A 
HETATM   20  C   UNL     1      41.853 -12.808   1.905  1.00  0.00     0.038 A 
HETATM   21  C   UNL     1      41.321 -13.264   0.699  1.00  0.00     0.014 A 
BRANCH  19  22
HETATM   22  O   UNL     1      41.552 -12.050   4.146  1.00  0.00    -0.276 OA
BRANCH  22  23
HETATM   23  C   UNL     1      41.142 -12.889   5.166  1.00  0.00     0.288 C 
HETATM   24  O   UNL     1      40.494 -12.598   6.165  1.00  0.00    -0.260 OA
BRANCH  23  25
HETATM   25  C   UNL     1      41.560 -14.285   4.911  1.00  0.00     0.083 C 
HETATM   26  C   UNL     1      42.832 -14.669   4.725  1.00  0.00     0.017 C 
BRANCH  26  27
HETATM   27  C   UNL     1      43.197 -16.037   4.341  1.00  0.00    -0.036 A 
HETATM   28  C   UNL     1      42.872 -16.484   3.057  1.00  0.00     0.014 A 
HETATM   29  C   UNL     1      43.198 -17.781   2.655  1.00  0.00     0.037 A 
HETATM   30  C   UNL     1      43.865 -18.648   3.522  1.00  0.00     0.068 A 
HETATM   31  C   UNL     1      44.207 -18.204   4.799  1.00  0.00     0.037 A 
HETATM   32  C   UNL     1      43.878 -16.903   5.205  1.00  0.00     0.014 A 
BRANCH  30  33
HETATM   33  O   UNL     1      44.119 -19.887   3.004  1.00  0.00    -0.356 OA
HETATM   34  C   UNL     1      43.377 -20.268   1.851  1.00  0.00     0.210 C 
ENDBRANCH  30  33
ENDBRANCH  26  27
ENDBRANCH  23  25
ENDBRANCH  22  23
ENDBRANCH  19  22
ENDBRANCH   1  16
BRANCH   3  35
HETATM   35  O   UNL     1      41.388 -13.249  -3.560  1.00  0.00    -0.344 OA
HETATM   36  H   UNL     1      42.100 -13.822  -3.227  1.00  0.00     0.219 HD
ENDBRANCH   3  35
BRANCH  11  37
HETATM   37  C   UNL     1      39.023  -8.385  -5.600  1.00  0.00     0.273 C 
BRANCH  37  38
HETATM   38  C   UNL     1      39.883  -7.776  -6.673  1.00  0.00    -0.033 A 
HETATM   39  C   UNL     1      40.322  -8.557  -7.755  1.00  0.00     0.009 A 
HETATM   40  C   UNL     1      41.152  -8.007  -8.732  1.00  0.00     0.001 A 
HETATM   41  C   UNL     1      41.550  -6.676  -8.642  1.00  0.00     0.000 A 
HETATM   42  C   UNL     1      41.113  -5.888  -7.579  1.00  0.00     0.001 A 
HETATM   43  C   UNL     1      40.281  -6.432  -6.599  1.00  0.00     0.009 A 
ENDBRANCH  37  38
ENDBRANCH  11  37
TORSDOF 9
ENDMDL
MODEL 10
REMARK VINA RESULT:      -8.9      2.029      2.808
REMARK  9 active torsions:
REMARK  status: ('A' for Active; 'I' for Inactive)
REMARK    1  A    between atoms: O_2  and  C_3 
REMARK    2  A    between atoms: C_6  and  C_7 
REMARK    3  A    between atoms: C_8  and  C_9 
REMARK    4  A    between atoms: C_9  and  O_10 
REMARK    5  A    between atoms: O_10  and  C_11 
REMARK    6  A    between atoms: C_14  and  C_15 
REMARK    7  A    between atoms: C_17  and  O_18 
REMARK    8  A    between atoms: N_26  and  C_28 
REMARK    9  A    between atoms: C_28  and  C_29 
ROOT
HETATM    1  C   UNL     1      41.132  -7.082   6.843  1.00  0.00     0.243 C 
HETATM    2  N   UNL     1      42.571  -6.843   7.132  1.00  0.00    -0.235 NA
HETATM    3  C   UNL     1      42.901  -7.072   8.353  1.00  0.00     0.173 C 
HETATM    4  C   UNL     1      41.980  -7.425   9.405  1.00  0.00     0.057 A 
HETATM    5  C   UNL     1      40.652  -7.174   9.156  1.00  0.00     0.087 A 
HETATM    6  S   UNL     1      39.642  -7.577  10.455  1.00  0.00    -0.074 SA
HETATM    7  C   UNL     1      40.960  -8.199  11.336  1.00  0.00     0.018 A 
HETATM    8  C   UNL     1      42.169  -8.047  10.673  1.00  0.00    -0.024 A 
HETATM    9  C   UNL     1      43.455  -8.542  11.262  1.00  0.00     0.068 C 
HETATM   10  C   UNL     1      43.197  -9.536  12.407  1.00  0.00     0.240 C 
HETATM   11  N   UNL     1      42.116  -9.040  13.370  1.00  0.00    -0.063 N 
HETATM   12  H   UNL     1      41.984  -9.785  14.061  1.00  0.00     0.280 HD
HETATM   13  C   UNL     1      40.783  -8.878  12.650  1.00  0.00     0.282 C 
HETATM   14  N   UNL     1      40.250  -6.700   7.957  1.00  0.00    -0.357 N 
HETATM   15  H   UNL     1      39.261  -6.697   7.735  1.00  0.00     0.162 HD
ENDROOT
BRANCH   1  16
HETATM   16  C   UNL     1      40.863  -8.552   6.451  1.00  0.00    -0.014 A 
HETATM   17  C   UNL     1      39.581  -8.977   6.045  1.00  0.00     0.014 A 
HETATM   18  C   UNL     1      39.381 -10.247   5.504  1.00  0.00     0.038 A 
HETATM   19  C   UNL     1      40.467 -11.103   5.370  1.00  0.00     0.079 A 
HETATM   20  C   UNL     1      41.716 -10.763   5.879  1.00  0.00     0.038 A 
HETATM   21  C   UNL     1      41.910  -9.494   6.426  1.00  0.00     0.014 A 
BRANCH  19  22
HETATM   22  O   UNL     1      40.335 -12.337   4.737  1.00  0.00    -0.276 OA
BRANCH  22  23
HETATM   23  C   UNL     1      40.193 -13.376   5.639  1.00  0.00     0.288 C 
HETATM   24  O   UNL     1      39.608 -13.361   6.717  1.00  0.00    -0.260 OA
BRANCH  23  25
HETATM   25  C   UNL     1      40.831 -14.612   5.136  1.00  0.00     0.083 C 
HETATM   26  C   UNL     1      42.088 -14.677   4.672  1.00  0.00     0.017 C 
BRANCH  26  27
HETATM   27  C   UNL     1      42.643 -15.888   4.057  1.00  0.00    -0.036 A 
HETATM   28  C   UNL     1      43.205 -16.864   4.886  1.00  0.00     0.014 A 
HETATM   29  C   UNL     1      43.749 -18.028   4.339  1.00  0.00     0.037 A 
HETATM   30  C   UNL     1      43.727 -18.244   2.960  1.00  0.00     0.068 A 
HETATM   31  C   UNL     1      43.154 -17.283   2.130  1.00  0.00     0.037 A 
HETATM   32  C   UNL     1      42.610 -16.112   2.676  1.00  0.00     0.014 A 
BRANCH  30  33
HETATM   33  O   UNL     1      44.295 -19.421   2.560  1.00  0.00    -0.356 OA
HETATM   34  C   UNL     1      43.434 -20.382   1.962  1.00  0.00     0.210 C 
ENDBRANCH  30  33
ENDBRANCH  26  27
ENDBRANCH  23  25
ENDBRANCH  22  23
ENDBRANCH  19  22
ENDBRANCH   1  16
BRANCH   3  35
HETATM   35  O   UNL     1      44.197  -6.972   8.700  1.00  0.00    -0.344 OA
HETATM   36  H   UNL     1      44.669  -6.642   7.916  1.00  0.00     0.219 HD
ENDBRANCH   3  35
BRANCH  11  37
HETATM   37  C   UNL     1      42.482  -7.802  14.158  1.00  0.00     0.273 C 
BRANCH  37  38
HETATM   38  C   UNL     1      41.417  -7.375  15.130  1.00  0.00    -0.033 A 
HETATM   39  C   UNL     1      40.498  -6.375  14.777  1.00  0.00     0.009 A 
HETATM   40  C   UNL     1      39.532  -5.948  15.688  1.00  0.00     0.001 A 
HETATM   41  C   UNL     1      39.473  -6.516  16.959  1.00  0.00     0.000 A 
HETATM   42  C   UNL     1      40.372  -7.517  17.318  1.00  0.00     0.001 A 
HETATM   43  C   UNL     1      41.340  -7.949  16.409  1.00  0.00     0.009 A 
ENDBRANCH  37  38
ENDBRANCH  11  37
TORSDOF 9
ENDMDL
