MODEL 1
REMARK VINA RESULT:      -7.7      0.000      0.000
REMARK  7 active torsions:
REMARK  status: ('A' for Active; 'I' for Inactive)
REMARK    1  A    between atoms: O_2  and  C_3 
REMARK    2  A    between atoms: C_7  and  C_8 
REMARK    3  A    between atoms: C_8  and  C_9 
REMARK       I    between atoms: C_9  and  N_10 
REMARK    4  A    between atoms: N_10  and  C_11 
REMARK    5  A    between atoms: C_11  and  C_12 
REMARK    6  A    between atoms: C_12  and  N_13 
REMARK    7  A    between atoms: C_12  and  C_19 
ROOT
HETATM    1  C   UNL     1      42.448 -11.071   3.178  1.00  0.00     0.222 C 
HETATM    2  N   UNL     1      43.549 -11.768   3.646  1.00  0.00    -0.358 N 
HETATM    3  O   UNL     1      42.081 -10.037   3.723  1.00  0.00    -0.273 OA
HETATM    4  H   UNL     1      43.739 -12.685   3.247  1.00  0.00     0.162 HD
ENDROOT
BRANCH   2   5
HETATM    5  C   UNL     1      44.215 -11.412   4.895  1.00  0.00     0.160 C 
BRANCH   5   6
HETATM    6  C   UNL     1      43.437 -11.791   6.196  1.00  0.00     0.240 C 
BRANCH   6   7
HETATM    7  N   UNL     1      44.255 -11.525   7.459  1.00  0.00    -0.061 N 
HETATM    8  H   UNL     1      44.281 -12.426   7.957  1.00  0.00     0.280 HD
HETATM    9  C   UNL     1      43.664 -10.485   8.399  1.00  0.00     0.236 C 
HETATM   10  C   UNL     1      44.610  -9.308   8.312  1.00  0.00     0.029 C 
HETATM   11  C   UNL     1      45.958  -9.975   8.186  1.00  0.00     0.029 C 
HETATM   12  C   UNL     1      45.701 -11.107   7.209  1.00  0.00     0.236 C 
ENDBRANCH   6   7
BRANCH   6  13
HETATM   13  C   UNL     1      42.877 -13.207   6.080  1.00  0.00    -0.004 A 
HETATM   14  C   UNL     1      41.511 -13.530   5.967  1.00  0.00     0.042 A 
HETATM   15 CL   UNL     1      40.272 -12.328   5.895  1.00  0.00    -0.084 Cl
HETATM   16  C   UNL     1      41.095 -14.863   5.885  1.00  0.00     0.024 A 
HETATM   17  C   UNL     1      42.028 -15.896   5.916  1.00  0.00     0.002 A 
HETATM   18  C   UNL     1      43.381 -15.602   6.029  1.00  0.00     0.001 A 
HETATM   19  C   UNL     1      43.802 -14.273   6.114  1.00  0.00     0.011 A 
ENDBRANCH   6  13
ENDBRANCH   5   6
ENDBRANCH   2   5
BRANCH   1  20
HETATM   20  C   UNL     1      41.831 -11.683   1.927  1.00  0.00     0.144 C 
BRANCH  20  21
HETATM   21  C   UNL     1      41.249 -13.043   2.109  1.00  0.00    -0.014 A 
HETATM   22  C   UNL     1      41.915 -14.311   2.089  1.00  0.00     0.006 A 
HETATM   23  C   UNL     1      40.945 -15.262   2.383  1.00  0.00     0.088 A 
HETATM   24  C   UNL     1      43.228 -14.759   1.859  1.00  0.00     0.017 A 
HETATM   25  C   UNL     1      41.180 -16.633   2.484  1.00  0.00     0.074 A 
HETATM   26  O   UNL     1      39.739 -14.660   2.565  1.00  0.00    -0.321 OA
HETATM   27  C   UNL     1      42.494 -17.056   2.263  1.00  0.00     0.070 A 
HETATM   28  C   UNL     1      43.494 -16.135   1.936  1.00  0.00     0.038 A 
HETATM   29  C   UNL     1      39.929 -13.329   2.398  1.00  0.00     0.151 A 
BRANCH  27  30
HETATM   30  O   UNL     1      42.921 -18.358   2.317  1.00  0.00    -0.356 OA
HETATM   31  C   UNL     1      43.830 -18.675   3.367  1.00  0.00     0.210 C 
ENDBRANCH  27  30
ENDBRANCH  20  21
ENDBRANCH   1  20
TORSDOF 7
ENDMDL
MODEL 2
REMARK VINA RESULT:      -7.4      2.891      6.140
REMARK  7 active torsions:
REMARK  status: ('A' for Active; 'I' for Inactive)
REMARK    1  A    between atoms: O_2  and  C_3 
REMARK    2  A    between atoms: C_7  and  C_8 
REMARK    3  A    between atoms: C_8  and  C_9 
REMARK       I    between atoms: C_9  and  N_10 
REMARK    4  A    between atoms: N_10  and  C_11 
REMARK    5  A    between atoms: C_11  and  C_12 
REMARK    6  A    between atoms: C_12  and  N_13 
REMARK    7  A    between atoms: C_12  and  C_19 
ROOT
HETATM    1  C   UNL     1      39.596 -11.906   3.705  1.00  0.00     0.222 C 
HETATM    2  N   UNL     1      39.340 -13.038   2.950  1.00  0.00    -0.358 N 
HETATM    3  O   UNL     1      39.765 -10.817   3.169  1.00  0.00    -0.273 OA
HETATM    4  H   UNL     1      39.336 -13.937   3.425  1.00  0.00     0.162 HD
ENDROOT
BRANCH   2   5
HETATM    5  C   UNL     1      39.430 -13.030   1.493  1.00  0.00     0.160 C 
BRANCH   5   6
HETATM    6  C   UNL     1      40.859 -13.280   0.912  1.00  0.00     0.240 C 
BRANCH   6   7
HETATM    7  N   UNL     1      40.842 -13.489  -0.601  1.00  0.00    -0.061 N 
HETATM    8  H   UNL     1      41.631 -14.123  -0.793  1.00  0.00     0.280 HD
HETATM    9  C   UNL     1      41.042 -12.226  -1.425  1.00  0.00     0.236 C 
HETATM   10  C   UNL     1      39.704 -11.986  -2.089  1.00  0.00     0.029 C 
HETATM   11  C   UNL     1      39.231 -13.386  -2.396  1.00  0.00     0.029 C 
HETATM   12  C   UNL     1      39.583 -14.160  -1.140  1.00  0.00     0.236 C 
ENDBRANCH   6   7
BRANCH   6  13
HETATM   13  C   UNL     1      41.564 -14.379   1.705  1.00  0.00    -0.004 A 
HETATM   14  C   UNL     1      42.667 -14.181   2.558  1.00  0.00     0.042 A 
HETATM   15 CL   UNL     1      43.346 -12.621   2.858  1.00  0.00    -0.084 Cl
HETATM   16  C   UNL     1      43.257 -15.259   3.227  1.00  0.00     0.024 A 
HETATM   17  C   UNL     1      42.762 -16.549   3.060  1.00  0.00     0.002 A 
HETATM   18  C   UNL     1      41.676 -16.769   2.222  1.00  0.00     0.001 A 
HETATM   19  C   UNL     1      41.085 -15.698   1.549  1.00  0.00     0.011 A 
ENDBRANCH   6  13
ENDBRANCH   5   6
ENDBRANCH   2   5
BRANCH   1  20
HETATM   20  C   UNL     1      39.570 -12.161   5.207  1.00  0.00     0.144 C 
BRANCH  20  21
HETATM   21  C   UNL     1      40.847 -12.669   5.783  1.00  0.00    -0.014 A 
HETATM   22  C   UNL     1      41.215 -14.018   6.093  1.00  0.00     0.006 A 
HETATM   23  C   UNL     1      42.531 -13.969   6.536  1.00  0.00     0.088 A 
HETATM   24  C   UNL     1      40.584 -15.274   6.044  1.00  0.00     0.017 A 
HETATM   25  C   UNL     1      43.283 -15.079   6.922  1.00  0.00     0.074 A 
HETATM   26  O   UNL     1      42.979 -12.684   6.530  1.00  0.00    -0.321 OA
HETATM   27  C   UNL     1      42.640 -16.318   6.855  1.00  0.00     0.070 A 
HETATM   28  C   UNL     1      41.307 -16.408   6.442  1.00  0.00     0.038 A 
HETATM   29  C   UNL     1      41.963 -11.910   6.079  1.00  0.00     0.151 A 
BRANCH  27  30
HETATM   30  O   UNL     1      43.210 -17.519   7.191  1.00  0.00    -0.356 OA
HETATM   31  C   UNL     1      43.550 -18.376   6.106  1.00  0.00     0.210 C 
ENDBRANCH  27  30
ENDBRANCH  20  21
ENDBRANCH   1  20
TORSDOF 7
ENDMDL
MODEL 3
REMARK VINA RESULT:      -7.3      3.003      5.476
REMARK  7 active torsions:
REMARK  status: ('A' for Active; 'I' for Inactive)
REMARK    1  A    between atoms: O_2  and  C_3 
REMARK    2  A    between atoms: C_7  and  C_8 
REMARK    3  A    between atoms: C_8  and  C_9 
REMARK       I    between atoms: C_9  and  N_10 
REMARK    4  A    between atoms: N_10  and  C_11 
REMARK    5  A    between atoms: C_11  and  C_12 
REMARK    6  A    between atoms: C_12  and  N_13 
REMARK    7  A    between atoms: C_12  and  C_19 
ROOT
HETATM    1  C   UNL     1      42.328 -11.035   2.841  1.00  0.00     0.222 C 
HETATM    2  N   UNL     1      41.907 -11.456   1.591  1.00  0.00    -0.358 N 
HETATM    3  O   UNL     1      41.744 -10.133   3.431  1.00  0.00    -0.273 OA
HETATM    4  H   UNL     1      42.496 -12.113   1.085  1.00  0.00     0.162 HD
ENDROOT
BRANCH   2   5
HETATM    5  C   UNL     1      40.873 -10.746   0.845  1.00  0.00     0.160 C 
BRANCH   5   6
HETATM    6  C   UNL     1      39.482 -11.457   0.793  1.00  0.00     0.240 C 
BRANCH   6   7
HETATM    7  N   UNL     1      38.435 -10.747   1.651  1.00  0.00    -0.061 N 
HETATM    8  H   UNL     1      38.522 -11.170   2.585  1.00  0.00     0.280 HD
HETATM    9  C   UNL     1      36.998 -10.925   1.186  1.00  0.00     0.236 C 
HETATM   10  C   UNL     1      36.584  -9.557   0.688  1.00  0.00     0.029 C 
HETATM   11  C   UNL     1      37.276  -8.629   1.657  1.00  0.00     0.029 C 
HETATM   12  C   UNL     1      38.653  -9.246   1.813  1.00  0.00     0.236 C 
ENDBRANCH   6   7
BRANCH   6  13
HETATM   13  C   UNL     1      39.643 -12.948   1.080  1.00  0.00    -0.004 A 
HETATM   14  C   UNL     1      39.917 -13.934   0.112  1.00  0.00     0.042 A 
HETATM   15 CL   UNL     1      40.160 -13.558  -1.557  1.00  0.00    -0.084 Cl
HETATM   16  C   UNL     1      40.028 -15.281   0.473  1.00  0.00     0.024 A 
HETATM   17  C   UNL     1      39.867 -15.671   1.800  1.00  0.00     0.002 A 
HETATM   18  C   UNL     1      39.594 -14.716   2.772  1.00  0.00     0.001 A 
HETATM   19  C   UNL     1      39.479 -13.371   2.417  1.00  0.00     0.011 A 
ENDBRANCH   6  13
ENDBRANCH   5   6
ENDBRANCH   2   5
BRANCH   1  20
HETATM   20  C   UNL     1      43.499 -11.840   3.388  1.00  0.00     0.144 C 
BRANCH  20  21
HETATM   21  C   UNL     1      43.150 -13.198   3.896  1.00  0.00    -0.014 A 
HETATM   22  C   UNL     1      43.183 -14.449   3.200  1.00  0.00     0.006 A 
HETATM   23  C   UNL     1      42.839 -15.420   4.132  1.00  0.00     0.088 A 
HETATM   24  C   UNL     1      43.469 -14.868   1.888  1.00  0.00     0.017 A 
HETATM   25  C   UNL     1      42.772 -16.789   3.868  1.00  0.00     0.074 A 
HETATM   26  O   UNL     1      42.586 -14.843   5.338  1.00  0.00    -0.321 OA
HETATM   27  C   UNL     1      43.071 -17.185   2.562  1.00  0.00     0.070 A 
HETATM   28  C   UNL     1      43.394 -16.236   1.585  1.00  0.00     0.038 A 
HETATM   29  C   UNL     1      42.773 -13.510   5.188  1.00  0.00     0.151 A 
BRANCH  27  30
HETATM   30  O   UNL     1      43.060 -18.479   2.110  1.00  0.00    -0.356 OA
HETATM   31  C   UNL     1      43.923 -19.387   2.788  1.00  0.00     0.210 C 
ENDBRANCH  27  30
ENDBRANCH  20  21
ENDBRANCH   1  20
TORSDOF 7
ENDMDL
MODEL 4
REMARK VINA RESULT:      -7.2      3.093      7.866
REMARK  7 active torsions:
REMARK  status: ('A' for Active; 'I' for Inactive)
REMARK    1  A    between atoms: O_2  and  C_3 
REMARK    2  A    between atoms: C_7  and  C_8 
REMARK    3  A    between atoms: C_8  and  C_9 
REMARK       I    between atoms: C_9  and  N_10 
REMARK    4  A    between atoms: N_10  and  C_11 
REMARK    5  A    between atoms: C_11  and  C_12 
REMARK    6  A    between atoms: C_12  and  N_13 
REMARK    7  A    between atoms: C_12  and  C_19 
ROOT
HETATM    1  C   UNL     1      42.637 -12.248   6.028  1.00  0.00     0.222 C 
HETATM    2  N   UNL     1      43.504 -13.327   6.016  1.00  0.00    -0.358 N 
HETATM    3  O   UNL     1      41.423 -12.416   6.055  1.00  0.00    -0.273 OA
HETATM    4  H   UNL     1      44.492 -13.143   5.862  1.00  0.00     0.162 HD
ENDROOT
BRANCH   2   5
HETATM    5  C   UNL     1      43.028 -14.698   5.861  1.00  0.00     0.160 C 
BRANCH   5   6
HETATM    6  C   UNL     1      42.682 -15.122   4.397  1.00  0.00     0.240 C 
BRANCH   6   7
HETATM    7  N   UNL     1      41.215 -14.872   4.052  1.00  0.00    -0.061 N 
HETATM    8  H   UNL     1      40.805 -14.463   4.904  1.00  0.00     0.280 HD
HETATM    9  C   UNL     1      40.418 -16.119   3.699  1.00  0.00     0.236 C 
HETATM   10  C   UNL     1      40.123 -15.979   2.222  1.00  0.00     0.029 C 
HETATM   11  C   UNL     1      39.889 -14.495   2.069  1.00  0.00     0.029 C 
HETATM   12  C   UNL     1      40.985 -13.878   2.918  1.00  0.00     0.236 C 
ENDBRANCH   6   7
BRANCH   6  13
HETATM   13  C   UNL     1      43.172 -16.544   4.132  1.00  0.00    -0.004 A 
HETATM   14  C   UNL     1      43.480 -17.071   2.864  1.00  0.00     0.042 A 
HETATM   15 CL   UNL     1      43.386 -16.132   1.416  1.00  0.00    -0.084 Cl
HETATM   16  C   UNL     1      43.904 -18.397   2.722  1.00  0.00     0.024 A 
HETATM   17  C   UNL     1      44.027 -19.220   3.838  1.00  0.00     0.002 A 
HETATM   18  C   UNL     1      43.726 -18.723   5.100  1.00  0.00     0.001 A 
HETATM   19  C   UNL     1      43.300 -17.401   5.247  1.00  0.00     0.011 A 
ENDBRANCH   6  13
ENDBRANCH   5   6
ENDBRANCH   2   5
BRANCH   1  20
HETATM   20  C   UNL     1      43.347 -10.900   6.074  1.00  0.00     0.144 C 
BRANCH  20  21
HETATM   21  C   UNL     1      44.163 -10.659   7.297  1.00  0.00    -0.014 A 
HETATM   22  C   UNL     1      43.776 -10.021   8.520  1.00  0.00     0.006 A 
HETATM   23  C   UNL     1      44.873 -10.113   9.368  1.00  0.00     0.088 A 
HETATM   24  C   UNL     1      42.621  -9.381   9.004  1.00  0.00     0.017 A 
HETATM   25  C   UNL     1      44.908  -9.631  10.677  1.00  0.00     0.074 A 
HETATM   26  O   UNL     1      45.899 -10.748   8.741  1.00  0.00    -0.321 OA
HETATM   27  C   UNL     1      43.747  -9.009  11.142  1.00  0.00     0.070 A 
HETATM   28  C   UNL     1      42.631  -8.870  10.310  1.00  0.00     0.038 A 
HETATM   29  C   UNL     1      45.467 -11.071   7.498  1.00  0.00     0.151 A 
BRANCH  27  30
HETATM   30  O   UNL     1      43.588  -8.473  12.394  1.00  0.00    -0.356 OA
HETATM   31  C   UNL     1      42.468  -8.943  13.139  1.00  0.00     0.210 C 
ENDBRANCH  27  30
ENDBRANCH  20  21
ENDBRANCH   1  20
TORSDOF 7
ENDMDL
MODEL 5
REMARK VINA RESULT:      -7.0      2.711      6.136
REMARK  7 active torsions:
REMARK  status: ('A' for Active; 'I' for Inactive)
REMARK    1  A    between atoms: O_2  and  C_3 
REMARK    2  A    between atoms: C_7  and  C_8 
REMARK    3  A    between atoms: C_8  and  C_9 
REMARK       I    between atoms: C_9  and  N_10 
REMARK    4  A    between atoms: N_10  and  C_11 
REMARK    5  A    between atoms: C_11  and  C_12 
REMARK    6  A    between atoms: C_12  and  N_13 
REMARK    7  A    between atoms: C_12  and  C_19 
ROOT
HETATM    1  C   UNL     1      43.302 -14.308   6.758  1.00  0.00     0.222 C 
HETATM    2  N   UNL     1      43.838 -15.069   5.732  1.00  0.00    -0.358 N 
HETATM    3  O   UNL     1      43.213 -14.758   7.894  1.00  0.00    -0.273 OA
HETATM    4  H   UNL     1      43.772 -14.706   4.785  1.00  0.00     0.162 HD
ENDROOT
BRANCH   2   5
HETATM    5  C   UNL     1      44.160 -16.481   5.906  1.00  0.00     0.160 C 
BRANCH   5   6
HETATM    6  C   UNL     1      43.387 -17.461   4.964  1.00  0.00     0.240 C 
BRANCH   6   7
HETATM    7  N   UNL     1      44.244 -18.653   4.538  1.00  0.00    -0.061 N 
HETATM    8  H   UNL     1      45.216 -18.361   4.713  1.00  0.00     0.280 HD
HETATM    9  C   UNL     1      44.125 -19.036   3.071  1.00  0.00     0.236 C 
HETATM   10  C   UNL     1      43.414 -20.371   3.080  1.00  0.00     0.029 C 
HETATM   11  C   UNL     1      43.984 -21.042   4.306  1.00  0.00     0.029 C 
HETATM   12  C   UNL     1      44.006 -19.930   5.338  1.00  0.00     0.236 C 
ENDBRANCH   6   7
BRANCH   6  13
HETATM   13  C   UNL     1      42.744 -16.688   3.815  1.00  0.00    -0.004 A 
HETATM   14  C   UNL     1      41.397 -16.283   3.765  1.00  0.00     0.042 A 
HETATM   15 CL   UNL     1      40.287 -16.576   5.057  1.00  0.00    -0.084 Cl
HETATM   16  C   UNL     1      40.897 -15.593   2.655  1.00  0.00     0.024 A 
HETATM   17  C   UNL     1      41.726 -15.297   1.577  1.00  0.00     0.002 A 
HETATM   18  C   UNL     1      43.059 -15.689   1.602  1.00  0.00     0.001 A 
HETATM   19  C   UNL     1      43.563 -16.379   2.706  1.00  0.00     0.011 A 
ENDBRANCH   6  13
ENDBRANCH   5   6
ENDBRANCH   2   5
BRANCH   1  20
HETATM   20  C   UNL     1      42.924 -12.896   6.331  1.00  0.00     0.144 C 
BRANCH  20  21
HETATM   21  C   UNL     1      41.647 -12.787   5.570  1.00  0.00    -0.014 A 
HETATM   22  C   UNL     1      41.447 -12.386   4.209  1.00  0.00     0.006 A 
HETATM   23  C   UNL     1      40.086 -12.523   3.961  1.00  0.00     0.088 A 
HETATM   24  C   UNL     1      42.264 -11.927   3.161  1.00  0.00     0.017 A 
HETATM   25  C   UNL     1      39.470 -12.254   2.739  1.00  0.00     0.074 A 
HETATM   26  O   UNL     1      39.448 -12.964   5.078  1.00  0.00    -0.321 OA
HETATM   27  C   UNL     1      40.302 -11.810   1.707  1.00  0.00     0.070 A 
HETATM   28  C   UNL     1      41.672 -11.631   1.924  1.00  0.00     0.038 A 
HETATM   29  C   UNL     1      40.390 -13.119   6.040  1.00  0.00     0.151 A 
BRANCH  27  30
HETATM   30  O   UNL     1      39.884 -11.496   0.440  1.00  0.00    -0.356 OA
HETATM   31  C   UNL     1      40.845 -11.670  -0.597  1.00  0.00     0.210 C 
ENDBRANCH  27  30
ENDBRANCH  20  21
ENDBRANCH   1  20
TORSDOF 7
ENDMDL
MODEL 6
REMARK VINA RESULT:      -6.9      2.751      6.168
REMARK  7 active torsions:
REMARK  status: ('A' for Active; 'I' for Inactive)
REMARK    1  A    between atoms: O_2  and  C_3 
REMARK    2  A    between atoms: C_7  and  C_8 
REMARK    3  A    between atoms: C_8  and  C_9 
REMARK       I    between atoms: C_9  and  N_10 
REMARK    4  A    between atoms: N_10  and  C_11 
REMARK    5  A    between atoms: C_11  and  C_12 
REMARK    6  A    between atoms: C_12  and  N_13 
REMARK    7  A    between atoms: C_12  and  C_19 
ROOT
HETATM    1  C   UNL     1      42.342 -15.564   1.550  1.00  0.00     0.222 C 
HETATM    2  N   UNL     1      41.798 -16.632   2.243  1.00  0.00    -0.358 N 
HETATM    3  O   UNL     1      43.499 -15.598   1.147  1.00  0.00    -0.273 OA
HETATM    4  H   UNL     1      40.883 -16.508   2.669  1.00  0.00     0.162 HD
ENDROOT
BRANCH   2   5
HETATM    5  C   UNL     1      42.610 -17.765   2.676  1.00  0.00     0.160 C 
BRANCH   5   6
HETATM    6  C   UNL     1      43.553 -17.482   3.890  1.00  0.00     0.240 C 
BRANCH   6   7
HETATM    7  N   UNL     1      44.321 -18.728   4.330  1.00  0.00    -0.061 N 
HETATM    8  H   UNL     1      45.268 -18.393   4.558  1.00  0.00     0.280 HD
HETATM    9  C   UNL     1      44.448 -19.811   3.270  1.00  0.00     0.236 C 
HETATM   10  C   UNL     1      43.587 -20.947   3.778  1.00  0.00     0.029 C 
HETATM   11  C   UNL     1      43.815 -20.894   5.269  1.00  0.00     0.029 C 
HETATM   12  C   UNL     1      43.771 -19.410   5.579  1.00  0.00     0.236 C 
ENDBRANCH   6   7
BRANCH   6  13
HETATM   13  C   UNL     1      42.781 -16.776   5.003  1.00  0.00    -0.004 A 
HETATM   14  C   UNL     1      43.361 -16.182   6.140  1.00  0.00     0.042 A 
HETATM   15 CL   UNL     1      45.069 -16.134   6.397  1.00  0.00    -0.084 Cl
HETATM   16  C   UNL     1      42.564 -15.574   7.116  1.00  0.00     0.024 A 
HETATM   17  C   UNL     1      41.179 -15.550   6.980  1.00  0.00     0.002 A 
HETATM   18  C   UNL     1      40.583 -16.132   5.867  1.00  0.00     0.001 A 
HETATM   19  C   UNL     1      41.374 -16.742   4.891  1.00  0.00     0.011 A 
ENDBRANCH   6  13
ENDBRANCH   5   6
ENDBRANCH   2   5
BRANCH   1  20
HETATM   20  C   UNL     1      41.350 -14.434   1.304  1.00  0.00     0.144 C 
BRANCH  20  21
HETATM   21  C   UNL     1      40.848 -13.755   2.532  1.00  0.00    -0.014 A 
HETATM   22  C   UNL     1      41.598 -13.231   3.634  1.00  0.00     0.006 A 
HETATM   23  C   UNL     1      40.673 -12.636   4.484  1.00  0.00     0.088 A 
HETATM   24  C   UNL     1      42.954 -13.189   4.005  1.00  0.00     0.017 A 
HETATM   25  C   UNL     1      40.991 -11.982   5.674  1.00  0.00     0.074 A 
HETATM   26  O   UNL     1      39.417 -12.776   3.980  1.00  0.00    -0.321 OA
HETATM   27  C   UNL     1      42.345 -11.943   6.019  1.00  0.00     0.070 A 
HETATM   28  C   UNL     1      43.305 -12.555   5.207  1.00  0.00     0.038 A 
HETATM   29  C   UNL     1      39.529 -13.450   2.810  1.00  0.00     0.151 A 
BRANCH  27  30
HETATM   30  O   UNL     1      42.853 -11.350   7.145  1.00  0.00    -0.356 OA
HETATM   31  C   UNL     1      43.012  -9.936   7.091  1.00  0.00     0.210 C 
ENDBRANCH  27  30
ENDBRANCH  20  21
ENDBRANCH   1  20
TORSDOF 7
ENDMDL
MODEL 7
REMARK VINA RESULT:      -6.7      2.712      6.781
REMARK  7 active torsions:
REMARK  status: ('A' for Active; 'I' for Inactive)
REMARK    1  A    between atoms: O_2  and  C_3 
REMARK    2  A    between atoms: C_7  and  C_8 
REMARK    3  A    between atoms: C_8  and  C_9 
REMARK       I    between atoms: C_9  and  N_10 
REMARK    4  A    between atoms: N_10  and  C_11 
REMARK    5  A    between atoms: C_11  and  C_12 
REMARK    6  A    between atoms: C_12  and  N_13 
REMARK    7  A    between atoms: C_12  and  C_19 
ROOT
HETATM    1  C   UNL     1      43.325 -14.777   6.646  1.00  0.00     0.222 C 
HETATM    2  N   UNL     1      43.951 -15.733   5.865  1.00  0.00    -0.358 N 
HETATM    3  O   UNL     1      42.397 -15.081   7.387  1.00  0.00    -0.273 OA
HETATM    4  H   UNL     1      44.626 -15.416   5.172  1.00  0.00     0.162 HD
ENDROOT
BRANCH   2   5
HETATM    5  C   UNL     1      43.439 -17.095   5.751  1.00  0.00     0.160 C 
BRANCH   5   6
HETATM    6  C   UNL     1      42.890 -17.484   4.340  1.00  0.00     0.240 C 
BRANCH   6   7
HETATM    7  N   UNL     1      43.840 -18.414   3.585  1.00  0.00    -0.061 N 
HETATM    8  H   UNL     1      44.725 -17.893   3.513  1.00  0.00     0.280 HD
HETATM    9  C   UNL     1      43.394 -18.779   2.177  1.00  0.00     0.236 C 
HETATM   10  C   UNL     1      43.046 -20.249   2.254  1.00  0.00     0.029 C 
HETATM   11  C   UNL     1      44.086 -20.786   3.208  1.00  0.00     0.029 C 
HETATM   12  C   UNL     1      44.146 -19.729   4.294  1.00  0.00     0.236 C 
ENDBRANCH   6   7
BRANCH   6  13
HETATM   13  C   UNL     1      42.474 -16.231   3.574  1.00  0.00    -0.004 A 
HETATM   14  C   UNL     1      41.227 -15.586   3.693  1.00  0.00     0.042 A 
HETATM   15 CL   UNL     1      40.002 -16.122   4.787  1.00  0.00    -0.084 Cl
HETATM   16  C   UNL     1      40.933 -14.451   2.931  1.00  0.00     0.024 A 
HETATM   17  C   UNL     1      41.870 -13.938   2.038  1.00  0.00     0.002 A 
HETATM   18  C   UNL     1      43.106 -14.558   1.902  1.00  0.00     0.001 A 
HETATM   19  C   UNL     1      43.404 -15.693   2.658  1.00  0.00     0.011 A 
ENDBRANCH   6  13
ENDBRANCH   5   6
ENDBRANCH   2   5
BRANCH   1  20
HETATM   20  C   UNL     1      43.949 -13.393   6.526  1.00  0.00     0.144 C 
BRANCH  20  21
HETATM   21  C   UNL     1      43.345 -12.517   5.482  1.00  0.00    -0.014 A 
HETATM   22  C   UNL     1      41.988 -12.078   5.357  1.00  0.00     0.006 A 
HETATM   23  C   UNL     1      41.956 -11.222   4.263  1.00  0.00     0.088 A 
HETATM   24  C   UNL     1      40.784 -12.307   6.048  1.00  0.00     0.017 A 
HETATM   25  C   UNL     1      40.819 -10.555   3.807  1.00  0.00     0.074 A 
HETATM   26  O   UNL     1      43.195 -11.123   3.710  1.00  0.00    -0.321 OA
HETATM   27  C   UNL     1      39.637 -10.788   4.515  1.00  0.00     0.070 A 
HETATM   28  C   UNL     1      39.619 -11.665   5.604  1.00  0.00     0.038 A 
HETATM   29  C   UNL     1      44.023 -11.903   4.446  1.00  0.00     0.151 A 
BRANCH  27  30
HETATM   30  O   UNL     1      38.420 -10.228   4.221  1.00  0.00    -0.356 OA
HETATM   31  C   UNL     1      38.043  -9.102   5.007  1.00  0.00     0.210 C 
ENDBRANCH  27  30
ENDBRANCH  20  21
ENDBRANCH   1  20
TORSDOF 7
ENDMDL
MODEL 8
REMARK VINA RESULT:      -6.7      3.428      6.393
REMARK  7 active torsions:
REMARK  status: ('A' for Active; 'I' for Inactive)
REMARK    1  A    between atoms: O_2  and  C_3 
REMARK    2  A    between atoms: C_7  and  C_8 
REMARK    3  A    between atoms: C_8  and  C_9 
REMARK       I    between atoms: C_9  and  N_10 
REMARK    4  A    between atoms: N_10  and  C_11 
REMARK    5  A    between atoms: C_11  and  C_12 
REMARK    6  A    between atoms: C_12  and  N_13 
REMARK    7  A    between atoms: C_12  and  C_19 
ROOT
HETATM    1  C   UNL     1      39.910 -13.941   0.499  1.00  0.00     0.222 C 
HETATM    2  N   UNL     1      39.433 -14.317   1.744  1.00  0.00    -0.358 N 
HETATM    3  O   UNL     1      40.604 -14.703  -0.164  1.00  0.00    -0.273 OA
HETATM    4  H   UNL     1      38.973 -13.609   2.311  1.00  0.00     0.162 HD
ENDROOT
BRANCH   2   5
HETATM    5  C   UNL     1      39.865 -15.548   2.398  1.00  0.00     0.160 C 
BRANCH   5   6
HETATM    6  C   UNL     1      40.704 -15.349   3.702  1.00  0.00     0.240 C 
BRANCH   6   7
HETATM    7  N   UNL     1      41.131 -13.896   3.902  1.00  0.00    -0.061 N 
HETATM    8  H   UNL     1      40.641 -13.369   3.164  1.00  0.00     0.280 HD
HETATM    9  C   UNL     1      42.623 -13.639   3.752  1.00  0.00     0.236 C 
HETATM   10  C   UNL     1      43.094 -13.297   5.149  1.00  0.00     0.029 C 
HETATM   11  C   UNL     1      41.935 -12.507   5.705  1.00  0.00     0.029 C 
HETATM   12  C   UNL     1      40.720 -13.287   5.239  1.00  0.00     0.236 C 
ENDBRANCH   6   7
BRANCH   6  13
HETATM   13  C   UNL     1      41.842 -16.366   3.754  1.00  0.00    -0.004 A 
HETATM   14  C   UNL     1      42.435 -16.859   4.932  1.00  0.00     0.042 A 
HETATM   15 CL   UNL     1      41.898 -16.397   6.508  1.00  0.00    -0.084 Cl
HETATM   16  C   UNL     1      43.489 -17.777   4.875  1.00  0.00     0.024 A 
HETATM   17  C   UNL     1      43.972 -18.219   3.646  1.00  0.00     0.002 A 
HETATM   18  C   UNL     1      43.405 -17.745   2.469  1.00  0.00     0.001 A 
HETATM   19  C   UNL     1      42.354 -16.827   2.521  1.00  0.00     0.011 A 
ENDBRANCH   6  13
ENDBRANCH   5   6
ENDBRANCH   2   5
BRANCH   1  20
HETATM   20  C   UNL     1      39.428 -12.566   0.055  1.00  0.00     0.144 C 
BRANCH  20  21
HETATM   21  C   UNL     1      40.461 -11.492   0.097  1.00  0.00    -0.014 A 
HETATM   22  C   UNL     1      40.774 -10.512  -0.900  1.00  0.00     0.006 A 
HETATM   23  C   UNL     1      41.758  -9.700  -0.349  1.00  0.00     0.088 A 
HETATM   24  C   UNL     1      40.332 -10.220  -2.203  1.00  0.00     0.017 A 
HETATM   25  C   UNL     1      42.331  -8.600  -0.988  1.00  0.00     0.074 A 
HETATM   26  O   UNL     1      42.072 -10.128   0.903  1.00  0.00    -0.321 OA
HETATM   27  C   UNL     1      41.870  -8.321  -2.278  1.00  0.00     0.070 A 
HETATM   28  C   UNL     1      40.902  -9.132  -2.880  1.00  0.00     0.038 A 
HETATM   29  C   UNL     1      41.291 -11.204   1.164  1.00  0.00     0.151 A 
BRANCH  27  30
HETATM   30  O   UNL     1      42.310  -7.288  -3.064  1.00  0.00    -0.356 OA
HETATM   31  C   UNL     1      42.066  -7.416  -4.462  1.00  0.00     0.210 C 
ENDBRANCH  27  30
ENDBRANCH  20  21
ENDBRANCH   1  20
TORSDOF 7
ENDMDL
MODEL 9
REMARK VINA RESULT:      -6.6      2.469      4.497
REMARK  7 active torsions:
REMARK  status: ('A' for Active; 'I' for Inactive)
REMARK    1  A    between atoms: O_2  and  C_3 
REMARK    2  A    between atoms: C_7  and  C_8 
REMARK    3  A    between atoms: C_8  and  C_9 
REMARK       I    between atoms: C_9  and  N_10 
REMARK    4  A    between atoms: N_10  and  C_11 
REMARK    5  A    between atoms: C_11  and  C_12 
REMARK    6  A    between atoms: C_12  and  N_13 
REMARK    7  A    between atoms: C_12  and  C_19 
ROOT
HETATM    1  C   UNL     1      41.328 -12.558   5.238  1.00  0.00     0.222 C 
HETATM    2  N   UNL     1      41.006 -11.851   6.385  1.00  0.00    -0.358 N 
HETATM    3  O   UNL     1      42.186 -12.146   4.466  1.00  0.00    -0.273 OA
HETATM    4  H   UNL     1      40.202 -12.161   6.926  1.00  0.00     0.162 HD
ENDROOT
BRANCH   2   5
HETATM    5  C   UNL     1      41.535 -10.516   6.643  1.00  0.00     0.160 C 
BRANCH   5   6
HETATM    6  C   UNL     1      42.080 -10.285   8.090  1.00  0.00     0.240 C 
BRANCH   6   7
HETATM    7  N   UNL     1      41.273  -9.234   8.853  1.00  0.00    -0.061 N 
HETATM    8  H   UNL     1      41.724  -8.336   8.629  1.00  0.00     0.280 HD
HETATM    9  C   UNL     1      41.276  -9.398  10.365  1.00  0.00     0.236 C 
HETATM   10  C   UNL     1      39.859  -9.804  10.708  1.00  0.00     0.029 C 
HETATM   11  C   UNL     1      39.038  -8.997   9.733  1.00  0.00     0.029 C 
HETATM   12  C   UNL     1      39.811  -9.122   8.433  1.00  0.00     0.236 C 
ENDBRANCH   6   7
BRANCH   6  13
HETATM   13  C   UNL     1      43.586 -10.035   8.050  1.00  0.00    -0.004 A 
HETATM   14  C   UNL     1      44.558 -10.996   7.715  1.00  0.00     0.042 A 
HETATM   15 CL   UNL     1      44.150 -12.609   7.246  1.00  0.00    -0.084 Cl
HETATM   16  C   UNL     1      45.919 -10.674   7.726  1.00  0.00     0.024 A 
HETATM   17  C   UNL     1      46.337  -9.392   8.072  1.00  0.00     0.002 A 
HETATM   18  C   UNL     1      45.396  -8.426   8.409  1.00  0.00     0.001 A 
HETATM   19  C   UNL     1      44.036  -8.743   8.402  1.00  0.00     0.011 A 
ENDBRANCH   6  13
ENDBRANCH   5   6
ENDBRANCH   2   5
BRANCH   1  20
HETATM   20  C   UNL     1      40.572 -13.874   5.105  1.00  0.00     0.144 C 
BRANCH  20  21
HETATM   21  C   UNL     1      41.370 -15.094   5.417  1.00  0.00    -0.014 A 
HETATM   22  C   UNL     1      42.023 -15.992   4.512  1.00  0.00     0.006 A 
HETATM   23  C   UNL     1      42.689 -16.921   5.302  1.00  0.00     0.088 A 
HETATM   24  C   UNL     1      42.127 -16.120   3.116  1.00  0.00     0.017 A 
HETATM   25  C   UNL     1      43.472 -17.966   4.812  1.00  0.00     0.074 A 
HETATM   26  O   UNL     1      42.474 -16.656   6.619  1.00  0.00    -0.321 OA
HETATM   27  C   UNL     1      43.572 -18.069   3.422  1.00  0.00     0.070 A 
HETATM   28  C   UNL     1      42.893 -17.172   2.590  1.00  0.00     0.038 A 
HETATM   29  C   UNL     1      41.680 -15.560   6.681  1.00  0.00     0.151 A 
BRANCH  27  30
HETATM   30  O   UNL     1      44.291 -19.025   2.753  1.00  0.00    -0.356 OA
HETATM   31  C   UNL     1      43.566 -20.178   2.337  1.00  0.00     0.210 C 
ENDBRANCH  27  30
ENDBRANCH  20  21
ENDBRANCH   1  20
TORSDOF 7
ENDMDL
MODEL 10
REMARK VINA RESULT:      -6.4     16.260     18.240
REMARK  7 active torsions:
REMARK  status: ('A' for Active; 'I' for Inactive)
REMARK    1  A    between atoms: O_2  and  C_3 
REMARK    2  A    between atoms: C_7  and  C_8 
REMARK    3  A    between atoms: C_8  and  C_9 
REMARK       I    between atoms: C_9  and  N_10 
REMARK    4  A    between atoms: N_10  and  C_11 
REMARK    5  A    between atoms: C_11  and  C_12 
REMARK    6  A    between atoms: C_12  and  N_13 
REMARK    7  A    between atoms: C_12  and  C_19 
ROOT
HETATM    1  C   UNL     1      44.811 -29.458   1.341  1.00  0.00     0.222 C 
HETATM    2  N   UNL     1      45.804 -28.493   1.350  1.00  0.00    -0.358 N 
HETATM    3  O   UNL     1      44.803 -30.360   2.171  1.00  0.00    -0.273 OA
HETATM    4  H   UNL     1      45.844 -27.843   0.569  1.00  0.00     0.162 HD
ENDROOT
BRANCH   2   5
HETATM    5  C   UNL     1      46.970 -28.593   2.221  1.00  0.00     0.160 C 
BRANCH   5   6
HETATM    6  C   UNL     1      47.985 -29.723   1.849  1.00  0.00     0.240 C 
BRANCH   6   7
HETATM    7  N   UNL     1      49.355 -29.505   2.488  1.00  0.00    -0.061 N 
HETATM    8  H   UNL     1      49.643 -28.561   2.192  1.00  0.00     0.280 HD
HETATM    9  C   UNL     1      50.432 -30.485   2.046  1.00  0.00     0.236 C 
HETATM   10  C   UNL     1      50.708 -31.329   3.272  1.00  0.00     0.029 C 
HETATM   11  C   UNL     1      50.583 -30.330   4.397  1.00  0.00     0.029 C 
HETATM   12  C   UNL     1      49.359 -29.519   4.014  1.00  0.00     0.236 C 
ENDBRANCH   6   7
BRANCH   6  13
HETATM   13  C   UNL     1      48.007 -29.931   0.336  1.00  0.00    -0.004 A 
HETATM   14  C   UNL     1      47.703 -31.140  -0.319  1.00  0.00     0.042 A 
HETATM   15 CL   UNL     1      47.207 -32.561   0.530  1.00  0.00    -0.084 Cl
HETATM   16  C   UNL     1      47.771 -31.236  -1.713  1.00  0.00     0.024 A 
HETATM   17  C   UNL     1      48.143 -30.134  -2.478  1.00  0.00     0.002 A 
HETATM   18  C   UNL     1      48.449 -28.931  -1.854  1.00  0.00     0.001 A 
HETATM   19  C   UNL     1      48.386 -28.830  -0.463  1.00  0.00     0.011 A 
ENDBRANCH   6  13
ENDBRANCH   5   6
ENDBRANCH   2   5
BRANCH   1  20
HETATM   20  C   UNL     1      43.750 -29.226   0.273  1.00  0.00     0.144 C 
BRANCH  20  21
HETATM   21  C   UNL     1      44.267 -29.145  -1.123  1.00  0.00    -0.014 A 
HETATM   22  C   UNL     1      44.349 -30.180  -2.109  1.00  0.00     0.006 A 
HETATM   23  C   UNL     1      44.833 -29.578  -3.264  1.00  0.00     0.088 A 
HETATM   24  C   UNL     1      44.065 -31.557  -2.154  1.00  0.00     0.017 A 
HETATM   25  C   UNL     1      45.043 -30.236  -4.476  1.00  0.00     0.074 A 
HETATM   26  O   UNL     1      45.062 -28.256  -3.042  1.00  0.00    -0.321 OA
HETATM   27  C   UNL     1      44.744 -31.601  -4.502  1.00  0.00     0.070 A 
HETATM   28  C   UNL     1      44.283 -32.252  -3.353  1.00  0.00     0.038 A 
HETATM   29  C   UNL     1      44.722 -28.003  -1.755  1.00  0.00     0.151 A 
BRANCH  27  30
HETATM   30  O   UNL     1      44.884 -32.416  -5.595  1.00  0.00    -0.356 OA
HETATM   31  C   UNL     1      45.499 -31.831  -6.739  1.00  0.00     0.210 C 
ENDBRANCH  27  30
ENDBRANCH  20  21
ENDBRANCH   1  20
TORSDOF 7
ENDMDL
