MODEL 1
REMARK VINA RESULT:      -9.2      0.000      0.000
REMARK  9 active torsions:
REMARK  status: ('A' for Active; 'I' for Inactive)
REMARK    1  A    between atoms: C_2  and  O_3 
REMARK    2  A    between atoms: O_3  and  C_4 
REMARK    3  A    between atoms: C_7  and  C_8 
REMARK       I    between atoms: C_8  and  N_9 
REMARK    4  A    between atoms: N_9  and  C_10 
REMARK    5  A    between atoms: C_10  and  N_11 
REMARK    6  A    between atoms: N_11  and  C_12 
REMARK    7  A    between atoms: C_15  and  N_16 
REMARK    8  A    between atoms: N_19  and  C_21 
REMARK    9  A    between atoms: C_21  and  C_22 
ROOT
HETATM    1  C   UNL     1      42.819 -11.061   4.054  1.00  0.00     0.034 A 
HETATM    2  C   UNL     1      41.866 -10.269   4.682  1.00  0.00     0.032 A 
HETATM    3  C   UNL     1      42.023  -9.889   6.017  1.00  0.00     0.031 A 
HETATM    4  C   UNL     1      43.127 -10.288   6.781  1.00  0.00     0.030 A 
HETATM    5  C   UNL     1      44.026 -11.169   6.163  1.00  0.00     0.031 A 
HETATM    6  C   UNL     1      43.869 -11.562   4.821  1.00  0.00     0.032 A 
ENDROOT
BRANCH   1   7
HETATM    7  N   UNL     1      42.753 -11.397   2.687  1.00  0.00    -0.333 N 
HETATM    8  H   UNL     1      43.130 -10.709   2.031  1.00  0.00     0.168 HD
BRANCH   7   9
HETATM    9  C   UNL     1      42.029 -12.400   2.082  1.00  0.00     0.179 C 
HETATM   10  S   UNL     1      40.831 -12.287   0.915  1.00  0.00    -0.040 SA
BRANCH   9  11
HETATM   11  N   UNL     1      42.358 -13.685   2.457  1.00  0.00    -0.299 N 
HETATM   12  C   UNL     1      41.742 -14.548   3.353  1.00  0.00     0.257 C 
HETATM   13  O   UNL     1      40.836 -14.219   4.110  1.00  0.00    -0.267 OA
HETATM   14  H   UNL     1      43.206 -14.004   2.009  1.00  0.00     0.171 HD
BRANCH  12  15
HETATM   15  C   UNL     1      42.351 -15.908   3.401  1.00  0.00     0.032 A 
HETATM   16  C   UNL     1      43.223 -16.227   4.444  1.00  0.00     0.020 A 
HETATM   17  C   UNL     1      43.901 -17.452   4.430  1.00  0.00     0.038 A 
HETATM   18  C   UNL     1      43.717 -18.356   3.379  1.00  0.00     0.068 A 
HETATM   19  C   UNL     1      42.789 -18.068   2.379  1.00  0.00     0.038 A 
HETATM   20  C   UNL     1      42.104 -16.849   2.390  1.00  0.00     0.020 A 
BRANCH  18  21
HETATM   21  O   UNL     1      44.483 -19.488   3.437  1.00  0.00    -0.352 OA
BRANCH  21  22
HETATM   22  C   UNL     1      43.784 -20.700   3.732  1.00  0.00     0.171 C 
HETATM   23  C   UNL     1      43.896 -20.966   5.221  1.00  0.00     0.034 C 
ENDBRANCH  21  22
ENDBRANCH  18  21
ENDBRANCH  12  15
ENDBRANCH   9  11
ENDBRANCH   7   9
ENDBRANCH   1   7
BRANCH   4  24
HETATM   24  N   UNL     1      43.277  -9.836   8.077  1.00  0.00    -0.378 N 
HETATM   25  C   UNL     1      44.459 -10.111   8.897  1.00  0.00     0.150 C 
HETATM   26  C   UNL     1      44.001 -10.565  10.306  1.00  0.00     0.255 C 
HETATM   27  N   UNL     1      42.987  -9.592  10.922  1.00  0.00    -0.064 N 
HETATM   28  H   UNL     1      43.474  -8.701  11.089  1.00  0.00     0.280 HD
HETATM   29  C   UNL     1      41.831  -9.287   9.968  1.00  0.00     0.255 C 
HETATM   30  C   UNL     1      42.368  -8.812   8.610  1.00  0.00     0.150 C 
BRANCH  27  31
HETATM   31  C   UNL     1      42.467 -10.067  12.256  1.00  0.00     0.276 C 
BRANCH  31  32
HETATM   32  C   UNL     1      42.342  -8.978  13.277  1.00  0.00     0.006 A 
HETATM   33  C   UNL     1      41.274  -8.999  14.178  1.00  0.00     0.124 A 
HETATM   34  F   UNL     1      40.356  -9.972  14.069  1.00  0.00    -0.206 F 
HETATM   35  C   UNL     1      41.128  -8.029  15.160  1.00  0.00     0.043 A 
HETATM   36  C   UNL     1      42.067  -7.004  15.247  1.00  0.00     0.003 A 
HETATM   37  C   UNL     1      43.139  -6.961  14.354  1.00  0.00     0.001 A 
HETATM   38  C   UNL     1      43.281  -7.943  13.373  1.00  0.00     0.012 A 
ENDBRANCH  31  32
ENDBRANCH  27  31
ENDBRANCH   4  24
TORSDOF 9
ENDMDL
MODEL 2
REMARK VINA RESULT:      -8.4      4.830     12.236
REMARK  9 active torsions:
REMARK  status: ('A' for Active; 'I' for Inactive)
REMARK    1  A    between atoms: C_2  and  O_3 
REMARK    2  A    between atoms: O_3  and  C_4 
REMARK    3  A    between atoms: C_7  and  C_8 
REMARK       I    between atoms: C_8  and  N_9 
REMARK    4  A    between atoms: N_9  and  C_10 
REMARK    5  A    between atoms: C_10  and  N_11 
REMARK    6  A    between atoms: N_11  and  C_12 
REMARK    7  A    between atoms: C_15  and  N_16 
REMARK    8  A    between atoms: N_19  and  C_21 
REMARK    9  A    between atoms: C_21  and  C_22 
ROOT
HETATM    1  C   UNL     1      43.565 -11.633   7.185  1.00  0.00     0.034 A 
HETATM    2  C   UNL     1      42.900 -10.675   6.431  1.00  0.00     0.032 A 
HETATM    3  C   UNL     1      42.240 -11.030   5.252  1.00  0.00     0.031 A 
HETATM    4  C   UNL     1      42.224 -12.346   4.773  1.00  0.00     0.030 A 
HETATM    5  C   UNL     1      42.985 -13.279   5.491  1.00  0.00     0.031 A 
HETATM    6  C   UNL     1      43.658 -12.927   6.676  1.00  0.00     0.032 A 
ENDROOT
BRANCH   1   7
HETATM    7  N   UNL     1      44.168 -11.344   8.426  1.00  0.00    -0.333 N 
HETATM    8  H   UNL     1      44.176 -12.099   9.115  1.00  0.00     0.168 HD
BRANCH   7   9
HETATM    9  C   UNL     1      44.525 -10.119   8.944  1.00  0.00     0.179 C 
HETATM   10  S   UNL     1      45.660  -9.020   8.384  1.00  0.00    -0.040 SA
BRANCH   9  11
HETATM   11  N   UNL     1      43.826  -9.716  10.063  1.00  0.00    -0.299 N 
HETATM   12  C   UNL     1      43.674 -10.328  11.300  1.00  0.00     0.257 C 
HETATM   13  O   UNL     1      44.040 -11.471  11.549  1.00  0.00    -0.267 OA
HETATM   14  H   UNL     1      43.336  -8.846   9.908  1.00  0.00     0.171 HD
BRANCH  12  15
HETATM   15  C   UNL     1      42.919  -9.510  12.292  1.00  0.00     0.032 A 
HETATM   16  C   UNL     1      43.446  -8.285  12.705  1.00  0.00     0.020 A 
HETATM   17  C   UNL     1      42.814  -7.570  13.729  1.00  0.00     0.038 A 
HETATM   18  C   UNL     1      41.663  -8.073  14.345  1.00  0.00     0.068 A 
HETATM   19  C   UNL     1      41.097  -9.259  13.877  1.00  0.00     0.038 A 
HETATM   20  C   UNL     1      41.720  -9.975  12.852  1.00  0.00     0.020 A 
BRANCH  18  21
HETATM   21  O   UNL     1      41.172  -7.323  15.377  1.00  0.00    -0.352 OA
BRANCH  21  22
HETATM   22  C   UNL     1      42.134  -6.548  16.098  1.00  0.00     0.171 C 
HETATM   23  C   UNL     1      41.904  -6.761  17.582  1.00  0.00     0.034 C 
ENDBRANCH  21  22
ENDBRANCH  18  21
ENDBRANCH  12  15
ENDBRANCH   9  11
ENDBRANCH   7   9
ENDBRANCH   1   7
BRANCH   4  24
HETATM   24  N   UNL     1      41.505 -12.666   3.639  1.00  0.00    -0.378 N 
HETATM   25  C   UNL     1      41.626 -13.946   2.939  1.00  0.00     0.150 C 
HETATM   26  C   UNL     1      41.750 -13.681   1.417  1.00  0.00     0.255 C 
HETATM   27  N   UNL     1      40.640 -12.755   0.903  1.00  0.00    -0.064 N 
HETATM   28  H   UNL     1      39.747 -13.258   1.001  1.00  0.00     0.280 HD
HETATM   29  C   UNL     1      40.519 -11.483   1.743  1.00  0.00     0.255 C 
HETATM   30  C   UNL     1      40.365 -11.834   3.230  1.00  0.00     0.150 C 
BRANCH  27  31
HETATM   31  C   UNL     1      40.798 -12.418  -0.559  1.00  0.00     0.276 C 
BRANCH  31  32
HETATM   32  C   UNL     1      39.737 -13.012  -1.433  1.00  0.00     0.006 A 
HETATM   33  C   UNL     1      38.467 -12.430  -1.464  1.00  0.00     0.124 A 
HETATM   34  F   UNL     1      38.216 -11.382  -0.665  1.00  0.00    -0.206 F 
HETATM   35  C   UNL     1      37.457 -12.926  -2.278  1.00  0.00     0.043 A 
HETATM   36  C   UNL     1      37.714 -14.035  -3.081  1.00  0.00     0.003 A 
HETATM   37  C   UNL     1      38.975 -14.634  -3.062  1.00  0.00     0.001 A 
HETATM   38  C   UNL     1      39.986 -14.126  -2.244  1.00  0.00     0.012 A 
ENDBRANCH  31  32
ENDBRANCH  27  31
ENDBRANCH   4  24
TORSDOF 9
ENDMDL
MODEL 3
REMARK VINA RESULT:      -8.4      4.342     11.772
REMARK  9 active torsions:
REMARK  status: ('A' for Active; 'I' for Inactive)
REMARK    1  A    between atoms: C_2  and  O_3 
REMARK    2  A    between atoms: O_3  and  C_4 
REMARK    3  A    between atoms: C_7  and  C_8 
REMARK       I    between atoms: C_8  and  N_9 
REMARK    4  A    between atoms: N_9  and  C_10 
REMARK    5  A    between atoms: C_10  and  N_11 
REMARK    6  A    between atoms: N_11  and  C_12 
REMARK    7  A    between atoms: C_15  and  N_16 
REMARK    8  A    between atoms: N_19  and  C_21 
REMARK    9  A    between atoms: C_21  and  C_22 
ROOT
HETATM    1  C   UNL     1      42.736 -10.994   6.720  1.00  0.00     0.034 A 
HETATM    2  C   UNL     1      43.620 -12.062   6.639  1.00  0.00     0.032 A 
HETATM    3  C   UNL     1      43.384 -13.116   5.754  1.00  0.00     0.031 A 
HETATM    4  C   UNL     1      42.257 -13.155   4.923  1.00  0.00     0.030 A 
HETATM    5  C   UNL     1      41.324 -12.121   5.092  1.00  0.00     0.031 A 
HETATM    6  C   UNL     1      41.553 -11.060   5.987  1.00  0.00     0.032 A 
ENDROOT
BRANCH   1   7
HETATM    7  N   UNL     1      42.974  -9.864   7.529  1.00  0.00    -0.333 N 
HETATM    8  H   UNL     1      42.560  -8.984   7.216  1.00  0.00     0.168 HD
BRANCH   7   9
HETATM    9  C   UNL     1      43.892  -9.713   8.545  1.00  0.00     0.179 C 
HETATM   10  S   UNL     1      45.565  -9.788   8.483  1.00  0.00    -0.040 SA
BRANCH   9  11
HETATM   11  N   UNL     1      43.367  -9.421   9.786  1.00  0.00    -0.299 N 
HETATM   12  C   UNL     1      43.482 -10.096  10.995  1.00  0.00     0.257 C 
HETATM   13  O   UNL     1      43.975 -11.211  11.113  1.00  0.00    -0.267 OA
HETATM   14  H   UNL     1      42.790  -8.592   9.766  1.00  0.00     0.171 HD
BRANCH  12  15
HETATM   15  C   UNL     1      42.846  -9.391  12.144  1.00  0.00     0.032 A 
HETATM   16  C   UNL     1      43.462  -8.253  12.670  1.00  0.00     0.020 A 
HETATM   17  C   UNL     1      42.947  -7.659  13.828  1.00  0.00     0.038 A 
HETATM   18  C   UNL     1      41.824  -8.196  14.465  1.00  0.00     0.068 A 
HETATM   19  C   UNL     1      41.166  -9.286  13.895  1.00  0.00     0.038 A 
HETATM   20  C   UNL     1      41.673  -9.881  12.736  1.00  0.00     0.020 A 
BRANCH  18  21
HETATM   21  O   UNL     1      41.452  -7.573  15.624  1.00  0.00    -0.352 OA
BRANCH  21  22
HETATM   22  C   UNL     1      41.143  -6.182  15.514  1.00  0.00     0.171 C 
HETATM   23  C   UNL     1      39.733  -6.046  14.971  1.00  0.00     0.034 C 
ENDBRANCH  21  22
ENDBRANCH  18  21
ENDBRANCH  12  15
ENDBRANCH   9  11
ENDBRANCH   7   9
ENDBRANCH   1   7
BRANCH   4  24
HETATM   24  N   UNL     1      42.094 -14.182   4.016  1.00  0.00    -0.378 N 
HETATM   25  C   UNL     1      41.304 -15.384   4.289  1.00  0.00     0.150 C 
HETATM   26  C   UNL     1      42.110 -16.631   3.845  1.00  0.00     0.255 C 
HETATM   27  N   UNL     1      42.629 -16.499   2.408  1.00  0.00    -0.064 N 
HETATM   28  H   UNL     1      41.811 -16.491   1.783  1.00  0.00     0.280 HD
HETATM   29  C   UNL     1      43.364 -15.177   2.181  1.00  0.00     0.255 C 
HETATM   30  C   UNL     1      42.485 -13.994   2.612  1.00  0.00     0.150 C 
BRANCH  27  31
HETATM   31  C   UNL     1      43.490 -17.666   1.993  1.00  0.00     0.276 C 
BRANCH  31  32
HETATM   32  C   UNL     1      43.677 -18.690   3.071  1.00  0.00     0.006 A 
HETATM   33  C   UNL     1      43.554 -20.047   2.759  1.00  0.00     0.124 A 
HETATM   34  F   UNL     1      43.218 -20.394   1.508  1.00  0.00    -0.206 F 
HETATM   35  C   UNL     1      43.745 -21.035   3.716  1.00  0.00     0.043 A 
HETATM   36  C   UNL     1      44.061 -20.666   5.021  1.00  0.00     0.003 A 
HETATM   37  C   UNL     1      44.184 -19.316   5.355  1.00  0.00     0.001 A 
HETATM   38  C   UNL     1      43.996 -18.329   4.386  1.00  0.00     0.012 A 
ENDBRANCH  31  32
ENDBRANCH  27  31
ENDBRANCH   4  24
TORSDOF 9
ENDMDL
MODEL 4
REMARK VINA RESULT:      -8.4      4.340     11.801
REMARK  9 active torsions:
REMARK  status: ('A' for Active; 'I' for Inactive)
REMARK    1  A    between atoms: C_2  and  O_3 
REMARK    2  A    between atoms: O_3  and  C_4 
REMARK    3  A    between atoms: C_7  and  C_8 
REMARK       I    between atoms: C_8  and  N_9 
REMARK    4  A    between atoms: N_9  and  C_10 
REMARK    5  A    between atoms: C_10  and  N_11 
REMARK    6  A    between atoms: N_11  and  C_12 
REMARK    7  A    between atoms: C_15  and  N_16 
REMARK    8  A    between atoms: N_19  and  C_21 
REMARK    9  A    between atoms: C_21  and  C_22 
ROOT
HETATM    1  C   UNL     1      43.737  -8.311   8.441  1.00  0.00     0.034 A 
HETATM    2  C   UNL     1      42.641  -8.765   7.718  1.00  0.00     0.032 A 
HETATM    3  C   UNL     1      42.721  -9.940   6.967  1.00  0.00     0.031 A 
HETATM    4  C   UNL     1      43.894 -10.702   6.897  1.00  0.00     0.030 A 
HETATM    5  C   UNL     1      45.018 -10.175   7.548  1.00  0.00     0.031 A 
HETATM    6  C   UNL     1      44.946  -8.989   8.301  1.00  0.00     0.032 A 
ENDROOT
BRANCH   1   7
HETATM    7  N   UNL     1      43.680  -7.183   9.285  1.00  0.00    -0.333 N 
HETATM    8  H   UNL     1      44.571  -6.852   9.661  1.00  0.00     0.168 HD
BRANCH   7   9
HETATM    9  C   UNL     1      42.580  -6.611   9.882  1.00  0.00     0.179 C 
HETATM   10  S   UNL     1      41.445  -5.562   9.233  1.00  0.00    -0.040 SA
BRANCH   9  11
HETATM   11  N   UNL     1      42.351  -6.978  11.192  1.00  0.00    -0.299 N 
HETATM   12  C   UNL     1      43.050  -7.847  12.020  1.00  0.00     0.257 C 
HETATM   13  O   UNL     1      43.949  -8.585  11.636  1.00  0.00    -0.267 OA
HETATM   14  H   UNL     1      41.516  -6.547  11.564  1.00  0.00     0.171 HD
BRANCH  12  15
HETATM   15  C   UNL     1      42.538  -7.893  13.419  1.00  0.00     0.032 A 
HETATM   16  C   UNL     1      41.513  -8.784  13.740  1.00  0.00     0.020 A 
HETATM   17  C   UNL     1      40.936  -8.746  15.015  1.00  0.00     0.038 A 
HETATM   18  C   UNL     1      41.374  -7.821  15.968  1.00  0.00     0.068 A 
HETATM   19  C   UNL     1      42.449  -6.985  15.670  1.00  0.00     0.038 A 
HETATM   20  C   UNL     1      43.033  -7.021  14.401  1.00  0.00     0.020 A 
BRANCH  18  21
HETATM   21  O   UNL     1      40.692  -7.831  17.154  1.00  0.00    -0.352 OA
BRANCH  21  22
HETATM   22  C   UNL     1      40.792  -6.642  17.941  1.00  0.00     0.171 C 
HETATM   23  C   UNL     1      40.751  -7.034  19.406  1.00  0.00     0.034 C 
ENDBRANCH  21  22
ENDBRANCH  18  21
ENDBRANCH  12  15
ENDBRANCH   9  11
ENDBRANCH   7   9
ENDBRANCH   1   7
BRANCH   4  24
HETATM   24  N   UNL     1      43.912 -11.891   6.196  1.00  0.00    -0.378 N 
HETATM   25  C   UNL     1      43.552 -12.001   4.781  1.00  0.00     0.150 C 
HETATM   26  C   UNL     1      42.601 -13.210   4.593  1.00  0.00     0.255 C 
HETATM   27  N   UNL     1      43.164 -14.488   5.228  1.00  0.00    -0.064 N 
HETATM   28  H   UNL     1      44.010 -14.748   4.704  1.00  0.00     0.280 HD
HETATM   29  C   UNL     1      43.599 -14.266   6.678  1.00  0.00     0.255 C 
HETATM   30  C   UNL     1      44.565 -13.076   6.771  1.00  0.00     0.150 C 
BRANCH  27  31
HETATM   31  C   UNL     1      42.209 -15.652   5.130  1.00  0.00     0.276 C 
BRANCH  31  32
HETATM   32  C   UNL     1      42.732 -16.794   4.314  1.00  0.00     0.006 A 
HETATM   33  C   UNL     1      43.630 -17.697   4.891  1.00  0.00     0.124 A 
HETATM   34  F   UNL     1      44.041 -17.484   6.150  1.00  0.00    -0.206 F 
HETATM   35  C   UNL     1      44.122 -18.786   4.185  1.00  0.00     0.043 A 
HETATM   36  C   UNL     1      43.716 -18.984   2.868  1.00  0.00     0.003 A 
HETATM   37  C   UNL     1      42.824 -18.091   2.271  1.00  0.00     0.001 A 
HETATM   38  C   UNL     1      42.330 -17.001   2.988  1.00  0.00     0.012 A 
ENDBRANCH  31  32
ENDBRANCH  27  31
ENDBRANCH   4  24
TORSDOF 9
ENDMDL
MODEL 5
REMARK VINA RESULT:      -8.3      4.247     11.327
REMARK  9 active torsions:
REMARK  status: ('A' for Active; 'I' for Inactive)
REMARK    1  A    between atoms: C_2  and  O_3 
REMARK    2  A    between atoms: O_3  and  C_4 
REMARK    3  A    between atoms: C_7  and  C_8 
REMARK       I    between atoms: C_8  and  N_9 
REMARK    4  A    between atoms: N_9  and  C_10 
REMARK    5  A    between atoms: C_10  and  N_11 
REMARK    6  A    between atoms: N_11  and  C_12 
REMARK    7  A    between atoms: C_15  and  N_16 
REMARK    8  A    between atoms: N_19  and  C_21 
REMARK    9  A    between atoms: C_21  and  C_22 
ROOT
HETATM    1  C   UNL     1      40.332  -9.915   6.450  1.00  0.00     0.034 A 
HETATM    2  C   UNL     1      41.601 -10.272   6.013  1.00  0.00     0.032 A 
HETATM    3  C   UNL     1      41.881 -11.588   5.637  1.00  0.00     0.031 A 
HETATM    4  C   UNL     1      40.914 -12.600   5.689  1.00  0.00     0.030 A 
HETATM    5  C   UNL     1      39.669 -12.245   6.227  1.00  0.00     0.031 A 
HETATM    6  C   UNL     1      39.383 -10.923   6.615  1.00  0.00     0.032 A 
ENDROOT
BRANCH   1   7
HETATM    7  N   UNL     1      39.975  -8.586   6.754  1.00  0.00    -0.333 N 
HETATM    8  H   UNL     1      39.238  -8.170   6.180  1.00  0.00     0.168 HD
BRANCH   7   9
HETATM    9  C   UNL     1      40.642  -7.675   7.542  1.00  0.00     0.179 C 
HETATM   10  S   UNL     1      41.474  -6.291   7.092  1.00  0.00    -0.040 SA
BRANCH   9  11
HETATM   11  N   UNL     1      40.592  -7.909   8.900  1.00  0.00    -0.299 N 
HETATM   12  C   UNL     1      39.582  -8.451   9.685  1.00  0.00     0.257 C 
HETATM   13  O   UNL     1      38.448  -8.677   9.281  1.00  0.00    -0.267 OA
HETATM   14  H   UNL     1      41.432  -7.597   9.368  1.00  0.00     0.171 HD
BRANCH  12  15
HETATM   15  C   UNL     1      39.962  -8.638  11.114  1.00  0.00     0.032 A 
HETATM   16  C   UNL     1      39.399  -7.805  12.083  1.00  0.00     0.020 A 
HETATM   17  C   UNL     1      39.844  -7.884  13.408  1.00  0.00     0.038 A 
HETATM   18  C   UNL     1      40.848  -8.788  13.769  1.00  0.00     0.068 A 
HETATM   19  C   UNL     1      41.353  -9.671  12.816  1.00  0.00     0.038 A 
HETATM   20  C   UNL     1      40.910  -9.601  11.492  1.00  0.00     0.020 A 
BRANCH  18  21
HETATM   21  O   UNL     1      41.249  -8.729  15.076  1.00  0.00    -0.352 OA
BRANCH  21  22
HETATM   22  C   UNL     1      41.720  -7.458  15.529  1.00  0.00     0.171 C 
HETATM   23  C   UNL     1      42.898  -7.049  14.665  1.00  0.00     0.034 C 
ENDBRANCH  21  22
ENDBRANCH  18  21
ENDBRANCH  12  15
ENDBRANCH   9  11
ENDBRANCH   7   9
ENDBRANCH   1   7
BRANCH   4  24
HETATM   24  N   UNL     1      41.213 -13.873   5.246  1.00  0.00    -0.378 N 
HETATM   25  C   UNL     1      40.700 -15.090   5.878  1.00  0.00     0.150 C 
HETATM   26  C   UNL     1      41.864 -16.097   6.054  1.00  0.00     0.255 C 
HETATM   27  N   UNL     1      42.641 -16.313   4.749  1.00  0.00    -0.064 N 
HETATM   28  H   UNL     1      42.006 -16.775   4.083  1.00  0.00     0.280 HD
HETATM   29  C   UNL     1      43.062 -14.991   4.107  1.00  0.00     0.255 C 
HETATM   30  C   UNL     1      41.848 -14.067   3.935  1.00  0.00     0.150 C 
BRANCH  27  31
HETATM   31  C   UNL     1      43.830 -17.224   4.927  1.00  0.00     0.276 C 
BRANCH  31  32
HETATM   32  C   UNL     1      43.784 -18.451   4.069  1.00  0.00     0.006 A 
HETATM   33  C   UNL     1      43.928 -19.709   4.660  1.00  0.00     0.124 A 
HETATM   34  F   UNL     1      44.158 -19.780   5.980  1.00  0.00    -0.206 F 
HETATM   35  C   UNL     1      43.866 -20.877   3.912  1.00  0.00     0.043 A 
HETATM   36  C   UNL     1      43.659 -20.795   2.538  1.00  0.00     0.003 A 
HETATM   37  C   UNL     1      43.518 -19.547   1.927  1.00  0.00     0.001 A 
HETATM   38  C   UNL     1      43.577 -18.378   2.686  1.00  0.00     0.012 A 
ENDBRANCH  31  32
ENDBRANCH  27  31
ENDBRANCH   4  24
TORSDOF 9
ENDMDL
MODEL 6
REMARK VINA RESULT:      -8.3      4.226     11.412
REMARK  9 active torsions:
REMARK  status: ('A' for Active; 'I' for Inactive)
REMARK    1  A    between atoms: C_2  and  O_3 
REMARK    2  A    between atoms: O_3  and  C_4 
REMARK    3  A    between atoms: C_7  and  C_8 
REMARK       I    between atoms: C_8  and  N_9 
REMARK    4  A    between atoms: N_9  and  C_10 
REMARK    5  A    between atoms: C_10  and  N_11 
REMARK    6  A    between atoms: N_11  and  C_12 
REMARK    7  A    between atoms: C_15  and  N_16 
REMARK    8  A    between atoms: N_19  and  C_21 
REMARK    9  A    between atoms: C_21  and  C_22 
ROOT
HETATM    1  C   UNL     1      40.278  -9.968   6.675  1.00  0.00     0.034 A 
HETATM    2  C   UNL     1      39.325 -10.977   6.609  1.00  0.00     0.032 A 
HETATM    3  C   UNL     1      39.680 -12.266   6.204  1.00  0.00     0.031 A 
HETATM    4  C   UNL     1      40.991 -12.599   5.842  1.00  0.00     0.030 A 
HETATM    5  C   UNL     1      41.917 -11.546   5.816  1.00  0.00     0.031 A 
HETATM    6  C   UNL     1      41.564 -10.244   6.215  1.00  0.00     0.032 A 
ENDROOT
BRANCH   1   7
HETATM    7  N   UNL     1      39.990  -8.677   7.162  1.00  0.00    -0.333 N 
HETATM    8  H   UNL     1      39.132  -8.241   6.817  1.00  0.00     0.168 HD
BRANCH   7   9
HETATM    9  C   UNL     1      40.818  -7.808   7.837  1.00  0.00     0.179 C 
HETATM   10  S   UNL     1      41.692  -6.504   7.252  1.00  0.00    -0.040 SA
BRANCH   9  11
HETATM   11  N   UNL     1      40.917  -8.013   9.197  1.00  0.00    -0.299 N 
HETATM   12  C   UNL     1      41.797  -8.800   9.929  1.00  0.00     0.257 C 
HETATM   13  O   UNL     1      42.574  -9.606   9.429  1.00  0.00    -0.267 OA
HETATM   14  H   UNL     1      40.200  -7.516   9.707  1.00  0.00     0.171 HD
BRANCH  12  15
HETATM   15  C   UNL     1      41.644  -8.667  11.406  1.00  0.00     0.032 A 
HETATM   16  C   UNL     1      42.351  -7.667  12.076  1.00  0.00     0.020 A 
HETATM   17  C   UNL     1      42.318  -7.614  13.475  1.00  0.00     0.038 A 
HETATM   18  C   UNL     1      41.587  -8.555  14.206  1.00  0.00     0.068 A 
HETATM   19  C   UNL     1      40.820  -9.504  13.532  1.00  0.00     0.038 A 
HETATM   20  C   UNL     1      40.845  -9.560  12.135  1.00  0.00     0.020 A 
BRANCH  18  21
HETATM   21  O   UNL     1      41.682  -8.445  15.566  1.00  0.00    -0.352 OA
BRANCH  21  22
HETATM   22  C   UNL     1      41.682  -7.113  16.087  1.00  0.00     0.171 C 
HETATM   23  C   UNL     1      40.558  -6.995  17.098  1.00  0.00     0.034 C 
ENDBRANCH  21  22
ENDBRANCH  18  21
ENDBRANCH  12  15
ENDBRANCH   9  11
ENDBRANCH   7   9
ENDBRANCH   1   7
BRANCH   4  24
HETATM   24  N   UNL     1      41.313 -13.900   5.511  1.00  0.00    -0.378 N 
HETATM   25  C   UNL     1      41.096 -15.039   6.405  1.00  0.00     0.150 C 
HETATM   26  C   UNL     1      42.370 -15.920   6.420  1.00  0.00     0.255 C 
HETATM   27  N   UNL     1      42.838 -16.279   5.004  1.00  0.00    -0.064 N 
HETATM   28  H   UNL     1      42.118 -16.882   4.583  1.00  0.00     0.280 HD
HETATM   29  C   UNL     1      42.953 -15.045   4.108  1.00  0.00     0.255 C 
HETATM   30  C   UNL     1      41.640 -14.248   4.121  1.00  0.00     0.150 C 
BRANCH  27  31
HETATM   31  C   UNL     1      44.128 -17.062   5.002  1.00  0.00     0.276 C 
BRANCH  31  32
HETATM   32  C   UNL     1      43.992 -18.443   4.436  1.00  0.00     0.006 A 
HETATM   33  C   UNL     1      43.874 -18.611   3.053  1.00  0.00     0.124 A 
HETATM   34  F   UNL     1      43.831 -17.521   2.272  1.00  0.00    -0.206 F 
HETATM   35  C   UNL     1      43.774 -19.870   2.478  1.00  0.00     0.043 A 
HETATM   36  C   UNL     1      43.787 -20.996   3.297  1.00  0.00     0.003 A 
HETATM   37  C   UNL     1      43.900 -20.850   4.682  1.00  0.00     0.001 A 
HETATM   38  C   UNL     1      44.005 -19.581   5.252  1.00  0.00     0.012 A 
ENDBRANCH  31  32
ENDBRANCH  27  31
ENDBRANCH   4  24
TORSDOF 9
ENDMDL
MODEL 7
REMARK VINA RESULT:      -8.2      2.878      4.762
REMARK  9 active torsions:
REMARK  status: ('A' for Active; 'I' for Inactive)
REMARK    1  A    between atoms: C_2  and  O_3 
REMARK    2  A    between atoms: O_3  and  C_4 
REMARK    3  A    between atoms: C_7  and  C_8 
REMARK       I    between atoms: C_8  and  N_9 
REMARK    4  A    between atoms: N_9  and  C_10 
REMARK    5  A    between atoms: C_10  and  N_11 
REMARK    6  A    between atoms: N_11  and  C_12 
REMARK    7  A    between atoms: C_15  and  N_16 
REMARK    8  A    between atoms: N_19  and  C_21 
REMARK    9  A    between atoms: C_21  and  C_22 
ROOT
HETATM    1  C   UNL     1      43.051 -10.039   9.143  1.00  0.00     0.034 A 
HETATM    2  C   UNL     1      43.803 -10.370  10.262  1.00  0.00     0.032 A 
HETATM    3  C   UNL     1      43.585  -9.726  11.483  1.00  0.00     0.031 A 
HETATM    4  C   UNL     1      42.618  -8.724  11.635  1.00  0.00     0.030 A 
HETATM    5  C   UNL     1      41.939  -8.332  10.472  1.00  0.00     0.031 A 
HETATM    6  C   UNL     1      42.160  -8.971   9.238  1.00  0.00     0.032 A 
ENDROOT
BRANCH   1   7
HETATM    7  N   UNL     1      43.170 -10.720   7.914  1.00  0.00    -0.333 N 
HETATM    8  H   UNL     1      42.299 -10.925   7.421  1.00  0.00     0.168 HD
BRANCH   7   9
HETATM    9  C   UNL     1      44.266 -11.375   7.397  1.00  0.00     0.179 C 
HETATM   10  S   UNL     1      45.866 -10.880   7.336  1.00  0.00    -0.040 SA
BRANCH   9  11
HETATM   11  N   UNL     1      44.025 -12.634   6.889  1.00  0.00    -0.299 N 
HETATM   12  C   UNL     1      43.004 -13.095   6.068  1.00  0.00     0.257 C 
HETATM   13  O   UNL     1      42.011 -12.440   5.776  1.00  0.00    -0.267 OA
HETATM   14  H   UNL     1      44.707 -13.307   7.211  1.00  0.00     0.171 HD
BRANCH  12  15
HETATM   15  C   UNL     1      43.160 -14.517   5.649  1.00  0.00     0.032 A 
HETATM   16  C   UNL     1      44.015 -15.351   6.372  1.00  0.00     0.020 A 
HETATM   17  C   UNL     1      44.270 -16.648   5.913  1.00  0.00     0.038 A 
HETATM   18  C   UNL     1      43.680 -17.116   4.735  1.00  0.00     0.068 A 
HETATM   19  C   UNL     1      42.767 -16.309   4.057  1.00  0.00     0.038 A 
HETATM   20  C   UNL     1      42.504 -15.014   4.513  1.00  0.00     0.020 A 
BRANCH  18  21
HETATM   21  O   UNL     1      44.054 -18.373   4.349  1.00  0.00    -0.352 OA
BRANCH  21  22
HETATM   22  C   UNL     1      43.915 -18.667   2.957  1.00  0.00     0.171 C 
HETATM   23  C   UNL     1      43.758 -20.167   2.797  1.00  0.00     0.034 C 
ENDBRANCH  21  22
ENDBRANCH  18  21
ENDBRANCH  12  15
ENDBRANCH   9  11
ENDBRANCH   7   9
ENDBRANCH   1   7
BRANCH   4  24
HETATM   24  N   UNL     1      42.388  -8.159  12.873  1.00  0.00    -0.378 N 
HETATM   25  C   UNL     1      42.362  -8.927  14.120  1.00  0.00     0.150 C 
HETATM   26  C   UNL     1      41.125  -8.502  14.949  1.00  0.00     0.255 C 
HETATM   27  N   UNL     1      41.039  -6.980  15.116  1.00  0.00    -0.064 N 
HETATM   28  H   UNL     1      41.842  -6.685  15.689  1.00  0.00     0.280 HD
HETATM   29  C   UNL     1      41.165  -6.248  13.778  1.00  0.00     0.255 C 
HETATM   30  C   UNL     1      42.432  -6.700  13.037  1.00  0.00     0.150 C 
BRANCH  27  31
HETATM   31  C   UNL     1      39.792  -6.546  15.846  1.00  0.00     0.276 C 
BRANCH  31  32
HETATM   32  C   UNL     1      40.050  -6.046  17.235  1.00  0.00     0.006 A 
HETATM   33  C   UNL     1      40.187  -6.964  18.280  1.00  0.00     0.124 A 
HETATM   34  F   UNL     1      40.030  -8.270  18.019  1.00  0.00    -0.206 F 
HETATM   35  C   UNL     1      40.454  -6.553  19.580  1.00  0.00     0.043 A 
HETATM   36  C   UNL     1      40.584  -5.194  19.850  1.00  0.00     0.003 A 
HETATM   37  C   UNL     1      40.446  -4.260  18.821  1.00  0.00     0.001 A 
HETATM   38  C   UNL     1      40.183  -4.681  17.517  1.00  0.00     0.012 A 
ENDBRANCH  31  32
ENDBRANCH  27  31
ENDBRANCH   4  24
TORSDOF 9
ENDMDL
MODEL 8
REMARK VINA RESULT:      -8.1      6.822     12.009
REMARK  9 active torsions:
REMARK  status: ('A' for Active; 'I' for Inactive)
REMARK    1  A    between atoms: C_2  and  O_3 
REMARK    2  A    between atoms: O_3  and  C_4 
REMARK    3  A    between atoms: C_7  and  C_8 
REMARK       I    between atoms: C_8  and  N_9 
REMARK    4  A    between atoms: N_9  and  C_10 
REMARK    5  A    between atoms: C_10  and  N_11 
REMARK    6  A    between atoms: N_11  and  C_12 
REMARK    7  A    between atoms: C_15  and  N_16 
REMARK    8  A    between atoms: N_19  and  C_21 
REMARK    9  A    between atoms: C_21  and  C_22 
ROOT
HETATM    1  C   UNL     1      38.897 -10.091   5.127  1.00  0.00     0.034 A 
HETATM    2  C   UNL     1      39.144 -10.869   6.251  1.00  0.00     0.032 A 
HETATM    3  C   UNL     1      39.618 -12.177   6.121  1.00  0.00     0.031 A 
HETATM    4  C   UNL     1      39.855 -12.764   4.872  1.00  0.00     0.030 A 
HETATM    5  C   UNL     1      39.505 -12.001   3.749  1.00  0.00     0.031 A 
HETATM    6  C   UNL     1      39.020 -10.686   3.873  1.00  0.00     0.032 A 
ENDROOT
BRANCH   1   7
HETATM    7  N   UNL     1      38.505  -8.739   5.205  1.00  0.00    -0.333 N 
HETATM    8  H   UNL     1      38.444  -8.337   6.143  1.00  0.00     0.168 HD
BRANCH   7   9
HETATM    9  C   UNL     1      37.948  -7.947   4.226  1.00  0.00     0.179 C 
HETATM   10  S   UNL     1      38.691  -7.170   2.940  1.00  0.00    -0.040 SA
BRANCH   9  11
HETATM   11  N   UNL     1      36.579  -7.797   4.285  1.00  0.00    -0.299 N 
HETATM   12  C   UNL     1      35.781  -7.162   5.228  1.00  0.00     0.257 C 
HETATM   13  O   UNL     1      36.192  -6.742   6.302  1.00  0.00    -0.267 OA
HETATM   14  H   UNL     1      36.115  -8.262   3.516  1.00  0.00     0.171 HD
BRANCH  12  15
HETATM   15  C   UNL     1      34.333  -7.128   4.871  1.00  0.00     0.032 A 
HETATM   16  C   UNL     1      33.961  -6.794   3.568  1.00  0.00     0.020 A 
HETATM   17  C   UNL     1      32.606  -6.632   3.254  1.00  0.00     0.038 A 
HETATM   18  C   UNL     1      31.623  -6.797   4.235  1.00  0.00     0.068 A 
HETATM   19  C   UNL     1      31.993  -7.206   5.516  1.00  0.00     0.038 A 
HETATM   20  C   UNL     1      33.344  -7.374   5.834  1.00  0.00     0.020 A 
BRANCH  18  21
HETATM   21  O   UNL     1      30.341  -6.548   3.830  1.00  0.00    -0.352 OA
BRANCH  21  22
HETATM   22  C   UNL     1      29.376  -7.549   4.160  1.00  0.00     0.171 C 
HETATM   23  C   UNL     1      29.477  -8.666   3.139  1.00  0.00     0.034 C 
ENDBRANCH  21  22
ENDBRANCH  18  21
ENDBRANCH  12  15
ENDBRANCH   9  11
ENDBRANCH   7   9
ENDBRANCH   1   7
BRANCH   4  24
HETATM   24  N   UNL     1      40.386 -14.035   4.789  1.00  0.00    -0.378 N 
HETATM   25  C   UNL     1      40.620 -14.891   5.954  1.00  0.00     0.150 C 
HETATM   26  C   UNL     1      42.035 -15.514   5.846  1.00  0.00     0.255 C 
HETATM   27  N   UNL     1      42.267 -16.182   4.485  1.00  0.00    -0.064 N 
HETATM   28  H   UNL     1      41.630 -16.987   4.422  1.00  0.00     0.280 HD
HETATM   29  C   UNL     1      41.913 -15.253   3.322  1.00  0.00     0.255 C 
HETATM   30  C   UNL     1      40.487 -14.708   3.486  1.00  0.00     0.150 C 
BRANCH  27  31
HETATM   31  C   UNL     1      43.670 -16.715   4.333  1.00  0.00     0.276 C 
BRANCH  31  32
HETATM   32  C   UNL     1      43.730 -18.191   4.085  1.00  0.00     0.006 A 
HETATM   33  C   UNL     1      43.522 -18.679   2.792  1.00  0.00     0.124 A 
HETATM   34  F   UNL     1      43.221 -17.811   1.814  1.00  0.00    -0.206 F 
HETATM   35  C   UNL     1      43.594 -20.035   2.504  1.00  0.00     0.043 A 
HETATM   36  C   UNL     1      43.876 -20.934   3.530  1.00  0.00     0.003 A 
HETATM   37  C   UNL     1      44.082 -20.468   4.829  1.00  0.00     0.001 A 
HETATM   38  C   UNL     1      44.013 -19.103   5.110  1.00  0.00     0.012 A 
ENDBRANCH  31  32
ENDBRANCH  27  31
ENDBRANCH   4  24
TORSDOF 9
ENDMDL
MODEL 9
REMARK VINA RESULT:      -8.0      5.007     11.967
REMARK  9 active torsions:
REMARK  status: ('A' for Active; 'I' for Inactive)
REMARK    1  A    between atoms: C_2  and  O_3 
REMARK    2  A    between atoms: O_3  and  C_4 
REMARK    3  A    between atoms: C_7  and  C_8 
REMARK       I    between atoms: C_8  and  N_9 
REMARK    4  A    between atoms: N_9  and  C_10 
REMARK    5  A    between atoms: C_10  and  N_11 
REMARK    6  A    between atoms: N_11  and  C_12 
REMARK    7  A    between atoms: C_15  and  N_16 
REMARK    8  A    between atoms: N_19  and  C_21 
REMARK    9  A    between atoms: C_21  and  C_22 
ROOT
HETATM    1  C   UNL     1      42.686 -13.106   6.475  1.00  0.00     0.034 A 
HETATM    2  C   UNL     1      42.445 -14.414   6.074  1.00  0.00     0.032 A 
HETATM    3  C   UNL     1      41.622 -14.683   4.978  1.00  0.00     0.031 A 
HETATM    4  C   UNL     1      41.001 -13.664   4.244  1.00  0.00     0.030 A 
HETATM    5  C   UNL     1      41.174 -12.358   4.723  1.00  0.00     0.031 A 
HETATM    6  C   UNL     1      41.995 -12.081   5.832  1.00  0.00     0.032 A 
ENDROOT
BRANCH   1   7
HETATM    7  N   UNL     1      43.578 -12.778   7.516  1.00  0.00    -0.333 N 
HETATM    8  H   UNL     1      43.667 -13.462   8.271  1.00  0.00     0.168 HD
BRANCH   7   9
HETATM    9  C   UNL     1      44.161 -11.563   7.799  1.00  0.00     0.179 C 
HETATM   10  S   UNL     1      45.467 -10.816   7.062  1.00  0.00    -0.040 SA
BRANCH   9  11
HETATM   11  N   UNL     1      43.566 -10.835   8.807  1.00  0.00    -0.299 N 
HETATM   12  C   UNL     1      44.069 -10.408  10.029  1.00  0.00     0.257 C 
HETATM   13  O   UNL     1      45.145 -10.770  10.491  1.00  0.00    -0.267 OA
HETATM   14  H   UNL     1      42.600 -10.622   8.599  1.00  0.00     0.171 HD
BRANCH  12  15
HETATM   15  C   UNL     1      43.132  -9.543  10.801  1.00  0.00     0.032 A 
HETATM   16  C   UNL     1      43.605  -8.857  11.922  1.00  0.00     0.020 A 
HETATM   17  C   UNL     1      42.709  -8.147  12.728  1.00  0.00     0.038 A 
HETATM   18  C   UNL     1      41.344  -8.120  12.425  1.00  0.00     0.068 A 
HETATM   19  C   UNL     1      40.887  -8.742  11.263  1.00  0.00     0.038 A 
HETATM   20  C   UNL     1      41.777  -9.449  10.450  1.00  0.00     0.020 A 
BRANCH  18  21
HETATM   21  O   UNL     1      40.555  -7.452  13.320  1.00  0.00    -0.352 OA
BRANCH  21  22
HETATM   22  C   UNL     1      39.625  -6.522  12.760  1.00  0.00     0.171 C 
HETATM   23  C   UNL     1      38.221  -6.989  13.095  1.00  0.00     0.034 C 
ENDBRANCH  21  22
ENDBRANCH  18  21
ENDBRANCH  12  15
ENDBRANCH   9  11
ENDBRANCH   7   9
ENDBRANCH   1   7
BRANCH   4  24
HETATM   24  N   UNL     1      40.249 -13.969   3.127  1.00  0.00    -0.378 N 
HETATM   25  C   UNL     1      40.051 -15.333   2.634  1.00  0.00     0.150 C 
HETATM   26  C   UNL     1      40.272 -15.354   1.100  1.00  0.00     0.255 C 
HETATM   27  N   UNL     1      39.451 -14.272   0.386  1.00  0.00    -0.064 N 
HETATM   28  H   UNL     1      38.457 -14.512   0.502  1.00  0.00     0.280 HD
HETATM   29  C   UNL     1      39.645 -12.893   1.019  1.00  0.00     0.255 C 
HETATM   30  C   UNL     1      39.373 -12.952   2.529  1.00  0.00     0.150 C 
BRANCH  27  31
HETATM   31  C   UNL     1      39.724 -14.223  -1.096  1.00  0.00     0.276 C 
BRANCH  31  32
HETATM   32  C   UNL     1      39.132 -13.027  -1.778  1.00  0.00     0.006 A 
HETATM   33  C   UNL     1      39.979 -12.059  -2.325  1.00  0.00     0.124 A 
HETATM   34  F   UNL     1      41.305 -12.201  -2.176  1.00  0.00    -0.206 F 
HETATM   35  C   UNL     1      39.481 -10.947  -2.990  1.00  0.00     0.043 A 
HETATM   36  C   UNL     1      38.103 -10.788  -3.113  1.00  0.00     0.003 A 
HETATM   37  C   UNL     1      37.240 -11.742  -2.571  1.00  0.00     0.001 A 
HETATM   38  C   UNL     1      37.748 -12.859  -1.907  1.00  0.00     0.012 A 
ENDBRANCH  31  32
ENDBRANCH  27  31
ENDBRANCH   4  24
TORSDOF 9
ENDMDL
MODEL 10
REMARK VINA RESULT:      -8.0      3.139      5.184
REMARK  9 active torsions:
REMARK  status: ('A' for Active; 'I' for Inactive)
REMARK    1  A    between atoms: C_2  and  O_3 
REMARK    2  A    between atoms: O_3  and  C_4 
REMARK    3  A    between atoms: C_7  and  C_8 
REMARK       I    between atoms: C_8  and  N_9 
REMARK    4  A    between atoms: N_9  and  C_10 
REMARK    5  A    between atoms: C_10  and  N_11 
REMARK    6  A    between atoms: N_11  and  C_12 
REMARK    7  A    between atoms: C_15  and  N_16 
REMARK    8  A    between atoms: N_19  and  C_21 
REMARK    9  A    between atoms: C_21  and  C_22 
ROOT
HETATM    1  C   UNL     1      42.873  -9.539   9.157  1.00  0.00     0.034 A 
HETATM    2  C   UNL     1      43.281 -10.067  10.376  1.00  0.00     0.032 A 
HETATM    3  C   UNL     1      42.758  -9.577  11.575  1.00  0.00     0.031 A 
HETATM    4  C   UNL     1      41.817  -8.540  11.610  1.00  0.00     0.030 A 
HETATM    5  C   UNL     1      41.493  -7.952  10.379  1.00  0.00     0.031 A 
HETATM    6  C   UNL     1      42.022  -8.435   9.168  1.00  0.00     0.032 A 
ENDROOT
BRANCH   1   7
HETATM    7  N   UNL     1      43.302 -10.058   7.919  1.00  0.00    -0.333 N 
HETATM    8  H   UNL     1      42.604 -10.089   7.172  1.00  0.00     0.168 HD
BRANCH   7   9
HETATM    9  C   UNL     1      44.449 -10.763   7.633  1.00  0.00     0.179 C 
HETATM   10  S   UNL     1      46.051 -10.315   7.846  1.00  0.00    -0.040 SA
BRANCH   9  11
HETATM   11  N   UNL     1      44.261 -12.035   7.135  1.00  0.00    -0.299 N 
HETATM   12  C   UNL     1      43.239 -12.554   6.351  1.00  0.00     0.257 C 
HETATM   13  O   UNL     1      42.201 -11.956   6.094  1.00  0.00    -0.267 OA
HETATM   14  H   UNL     1      44.990 -12.668   7.433  1.00  0.00     0.171 HD
BRANCH  12  15
HETATM   15  C   UNL     1      43.459 -13.967   5.928  1.00  0.00     0.032 A 
HETATM   16  C   UNL     1      42.867 -14.425   4.750  1.00  0.00     0.020 A 
HETATM   17  C   UNL     1      42.958 -15.780   4.410  1.00  0.00     0.038 A 
HETATM   18  C   UNL     1      43.633 -16.679   5.241  1.00  0.00     0.068 A 
HETATM   19  C   UNL     1      44.289 -16.205   6.377  1.00  0.00     0.038 A 
HETATM   20  C   UNL     1      44.206 -14.852   6.719  1.00  0.00     0.020 A 
BRANCH  18  21
HETATM   21  O   UNL     1      43.599 -17.987   4.842  1.00  0.00    -0.352 OA
BRANCH  21  22
HETATM   22  C   UNL     1      43.634 -18.960   5.889  1.00  0.00     0.171 C 
HETATM   23  C   UNL     1      44.043 -20.292   5.291  1.00  0.00     0.034 C 
ENDBRANCH  21  22
ENDBRANCH  18  21
ENDBRANCH  12  15
ENDBRANCH   9  11
ENDBRANCH   7   9
ENDBRANCH   1   7
BRANCH   4  24
HETATM   24  N   UNL     1      41.275  -8.131  12.812  1.00  0.00    -0.378 N 
HETATM   25  C   UNL     1      40.662  -6.817  13.017  1.00  0.00     0.150 C 
HETATM   26  C   UNL     1      41.193  -6.213  14.341  1.00  0.00     0.255 C 
HETATM   27  N   UNL     1      41.056  -7.191  15.515  1.00  0.00    -0.064 N 
HETATM   28  H   UNL     1      40.051  -7.331  15.686  1.00  0.00     0.280 HD
HETATM   29  C   UNL     1      41.640  -8.566  15.188  1.00  0.00     0.255 C 
HETATM   30  C   UNL     1      41.037  -9.108  13.883  1.00  0.00     0.150 C 
BRANCH  27  31
HETATM   31  C   UNL     1      41.649  -6.649  16.792  1.00  0.00     0.276 C 
BRANCH  31  32
HETATM   32  C   UNL     1      41.160  -7.344  18.026  1.00  0.00     0.006 A 
HETATM   33  C   UNL     1      42.056  -7.614  19.064  1.00  0.00     0.124 A 
HETATM   34  F   UNL     1      43.348  -7.289  18.903  1.00  0.00    -0.206 F 
HETATM   35  C   UNL     1      41.647  -8.230  20.238  1.00  0.00     0.043 A 
HETATM   36  C   UNL     1      40.311  -8.594  20.386  1.00  0.00     0.003 A 
HETATM   37  C   UNL     1      39.400  -8.337  19.360  1.00  0.00     0.001 A 
HETATM   38  C   UNL     1      39.818  -7.712  18.184  1.00  0.00     0.012 A 
ENDBRANCH  31  32
ENDBRANCH  27  31
ENDBRANCH   4  24
TORSDOF 9
ENDMDL
