MODEL 1
REMARK VINA RESULT:      -9.6      0.000      0.000
REMARK  3 active torsions:
REMARK  status: ('A' for Active; 'I' for Inactive)
REMARK    1  A    between atoms: N_7  and  N_8 
REMARK       I    between atoms: N_8  and  C_9 
REMARK    2  A    between atoms: C_9  and  C_10 
REMARK    3  A    between atoms: C_14  and  C_15 
ROOT
HETATM    1  C   UNL     1      43.913 -11.838   6.522  1.00  0.00     0.121 A 
HETATM    2  N   UNL     1      44.014 -11.152   5.343  1.00  0.00    -0.272 N 
HETATM    3  H   UNL     1      44.359 -10.205   5.220  1.00  0.00     0.189 HD
HETATM    4  N   UNL     1      43.606 -11.845   4.267  1.00  0.00    -0.178 NA
HETATM    5  C   UNL     1      43.223 -13.030   4.760  1.00  0.00     0.066 A 
HETATM    6  C   UNL     1      43.396 -13.069   6.169  1.00  0.00     0.066 A 
ENDROOT
BRANCH   1   7
HETATM    7  C   UNL     1      44.312 -11.251   7.778  1.00  0.00     0.289 C 
HETATM    8  N   UNL     1      43.272 -10.678   8.490  1.00  0.00    -0.241 N 
HETATM    9  H   UNL     1      42.326 -10.693   8.109  1.00  0.00     0.192 HD
HETATM   10  O   UNL     1      45.482 -11.274   8.153  1.00  0.00    -0.264 OA
BRANCH   8  11
HETATM   11  N   UNL     1      43.479 -10.090   9.707  1.00  0.00    -0.165 NA
HETATM   12  C   UNL     1      42.577  -9.243  10.088  1.00  0.00     0.157 A 
HETATM   13  C   UNL     1      42.576  -8.496  11.341  1.00  0.00     0.027 A 
HETATM   14  C   UNL     1      41.306  -8.811   9.344  1.00  0.00     0.277 A 
HETATM   15  C   UNL     1      43.471  -8.493  12.388  1.00  0.00     0.016 A 
HETATM   16  C   UNL     1      41.425  -7.707  11.332  1.00  0.00     0.048 A 
HETATM   17  C   UNL     1      43.178  -7.653  13.466  1.00  0.00     0.001 A 
HETATM   18  C   UNL     1      42.016  -6.852  13.465  1.00  0.00     0.002 A 
HETATM   19  C   UNL     1      41.122  -6.873  12.387  1.00  0.00     0.030 A 
HETATM   20  N   UNL     1      40.688  -7.894  10.166  1.00  0.00    -0.321 N 
HETATM   21  H   UNL     1      39.820  -7.435   9.933  1.00  0.00     0.169 HD
HETATM   22  O   UNL     1      40.967  -9.229   8.257  1.00  0.00    -0.266 OA
ENDBRANCH   8  11
ENDBRANCH   1   7
BRANCH   5  23
HETATM   23  C   UNL     1      42.690 -14.137   3.870  1.00  0.00     0.007 C 
HETATM   24  C   UNL     1      41.143 -14.087   3.711  1.00  0.00     0.020 C 
HETATM   25  C   UNL     1      40.642 -15.223   2.801  1.00  0.00    -0.013 C 
HETATM   26  C   UNL     1      41.037 -16.575   3.415  1.00  0.00     0.009 C 
HETATM   27  C   UNL     1      41.290 -15.084   1.415  1.00  0.00     0.009 C 
HETATM   28  C   UNL     1      42.565 -16.663   3.550  1.00  0.00    -0.013 C 
HETATM   29  C   UNL     1      43.061 -15.527   4.461  1.00  0.00     0.020 C 
HETATM   30  C   UNL     1      43.207 -16.517   2.161  1.00  0.00     0.009 C 
HETATM   31  C   UNL     1      42.818 -15.166   1.540  1.00  0.00    -0.013 C 
HETATM   32  C   UNL     1      43.314 -14.029   2.450  1.00  0.00     0.020 C 
ENDBRANCH   5  23
TORSDOF 3
ENDMDL
MODEL 2
REMARK VINA RESULT:      -9.6      0.148      1.404
REMARK  3 active torsions:
REMARK  status: ('A' for Active; 'I' for Inactive)
REMARK    1  A    between atoms: N_7  and  N_8 
REMARK       I    between atoms: N_8  and  C_9 
REMARK    2  A    between atoms: C_9  and  C_10 
REMARK    3  A    between atoms: C_14  and  C_15 
ROOT
HETATM    1  C   UNL     1      43.928 -11.870   6.488  1.00  0.00     0.121 A 
HETATM    2  N   UNL     1      44.035 -11.180   5.312  1.00  0.00    -0.272 N 
HETATM    3  H   UNL     1      44.378 -10.231   5.194  1.00  0.00     0.189 HD
HETATM    4  N   UNL     1      43.635 -11.870   4.231  1.00  0.00    -0.178 NA
HETATM    5  C   UNL     1      43.252 -13.057   4.718  1.00  0.00     0.066 A 
HETATM    6  C   UNL     1      43.416 -13.100   6.128  1.00  0.00     0.066 A 
ENDROOT
BRANCH   1   7
HETATM    7  C   UNL     1      44.318 -11.285   7.748  1.00  0.00     0.289 C 
HETATM    8  N   UNL     1      43.268 -10.739   8.467  1.00  0.00    -0.241 N 
HETATM    9  H   UNL     1      42.322 -10.769   8.088  1.00  0.00     0.192 HD
HETATM   10  O   UNL     1      45.488 -11.289   8.121  1.00  0.00    -0.264 OA
BRANCH   8  11
HETATM   11  N   UNL     1      43.466 -10.157   9.689  1.00  0.00    -0.165 NA
HETATM   12  C   UNL     1      42.636  -9.215  10.009  1.00  0.00     0.157 A 
HETATM   13  C   UNL     1      42.642  -8.454  11.252  1.00  0.00     0.027 A 
HETATM   14  C   UNL     1      41.462  -8.666   9.189  1.00  0.00     0.277 A 
HETATM   15  C   UNL     1      43.472  -8.527  12.350  1.00  0.00     0.016 A 
HETATM   16  C   UNL     1      41.582  -7.551  11.170  1.00  0.00     0.048 A 
HETATM   17  C   UNL     1      43.207  -7.645  13.402  1.00  0.00     0.001 A 
HETATM   18  C   UNL     1      42.137  -6.729  13.325  1.00  0.00     0.002 A 
HETATM   19  C   UNL     1      41.308  -6.674  12.197  1.00  0.00     0.030 A 
HETATM   20  N   UNL     1      40.897  -7.678   9.965  1.00  0.00    -0.321 N 
HETATM   21  H   UNL     1      40.096  -7.135   9.678  1.00  0.00     0.169 HD
HETATM   22  O   UNL     1      41.143  -9.063   8.088  1.00  0.00    -0.266 OA
ENDBRANCH   8  11
ENDBRANCH   1   7
BRANCH   5  23
HETATM   23  C   UNL     1      42.728 -14.163   3.821  1.00  0.00     0.007 C 
HETATM   24  C   UNL     1      43.308 -14.091   2.379  1.00  0.00     0.020 C 
HETATM   25  C   UNL     1      42.756 -15.228   1.501  1.00  0.00    -0.013 C 
HETATM   26  C   UNL     1      41.225 -15.113   1.428  1.00  0.00     0.009 C 
HETATM   27  C   UNL     1      43.136 -16.580   2.125  1.00  0.00     0.009 C 
HETATM   28  C   UNL     1      40.624 -15.216   2.839  1.00  0.00    -0.013 C 
HETATM   29  C   UNL     1      41.179 -14.078   3.712  1.00  0.00     0.020 C 
HETATM   30  C   UNL     1      41.014 -16.568   3.460  1.00  0.00     0.009 C 
HETATM   31  C   UNL     1      42.543 -16.690   3.538  1.00  0.00    -0.013 C 
HETATM   32  C   UNL     1      43.099 -15.553   4.411  1.00  0.00     0.020 C 
ENDBRANCH   5  23
TORSDOF 3
ENDMDL
MODEL 3
REMARK VINA RESULT:      -9.5      1.908      9.767
REMARK  3 active torsions:
REMARK  status: ('A' for Active; 'I' for Inactive)
REMARK    1  A    between atoms: N_7  and  N_8 
REMARK       I    between atoms: N_8  and  C_9 
REMARK    2  A    between atoms: C_9  and  C_10 
REMARK    3  A    between atoms: C_14  and  C_15 
ROOT
HETATM    1  C   UNL     1      44.109 -10.896   7.763  1.00  0.00     0.121 A 
HETATM    2  N   UNL     1      45.170 -10.816   8.621  1.00  0.00    -0.272 N 
HETATM    3  H   UNL     1      46.121 -11.125   8.442  1.00  0.00     0.189 HD
HETATM    4  N   UNL     1      44.876 -10.263   9.810  1.00  0.00    -0.178 NA
HETATM    5  C   UNL     1      43.572  -9.969   9.725  1.00  0.00     0.066 A 
HETATM    6  C   UNL     1      43.050 -10.351   8.461  1.00  0.00     0.066 A 
ENDROOT
BRANCH   1   7
HETATM    7  C   UNL     1      44.244 -11.458   6.441  1.00  0.00     0.289 C 
HETATM    8  N   UNL     1      43.226 -12.327   6.089  1.00  0.00    -0.241 N 
HETATM    9  H   UNL     1      42.474 -12.523   6.749  1.00  0.00     0.192 HD
HETATM   10  O   UNL     1      45.193 -11.168   5.716  1.00  0.00    -0.264 OA
BRANCH   8  11
HETATM   11  N   UNL     1      43.197 -12.935   4.864  1.00  0.00    -0.165 NA
HETATM   12  C   UNL     1      43.173 -14.230   4.874  1.00  0.00     0.157 A 
HETATM   13  C   UNL     1      43.136 -15.095   3.701  1.00  0.00     0.027 A 
HETATM   14  C   UNL     1      43.176 -15.170   6.086  1.00  0.00     0.277 A 
HETATM   15  C   UNL     1      43.115 -14.792   2.357  1.00  0.00     0.016 A 
HETATM   16  C   UNL     1      43.120 -16.407   4.176  1.00  0.00     0.048 A 
HETATM   17  C   UNL     1      43.077 -15.869   1.467  1.00  0.00     0.001 A 
HETATM   18  C   UNL     1      43.061 -17.198   1.940  1.00  0.00     0.002 A 
HETATM   19  C   UNL     1      43.084 -17.480   3.312  1.00  0.00     0.030 A 
HETATM   20  N   UNL     1      43.144 -16.445   5.568  1.00  0.00    -0.321 N 
HETATM   21  H   UNL     1      43.139 -17.277   6.138  1.00  0.00     0.169 HD
HETATM   22  O   UNL     1      43.200 -14.804   7.243  1.00  0.00    -0.266 OA
ENDBRANCH   8  11
ENDBRANCH   1   7
BRANCH   5  23
HETATM   23  C   UNL     1      42.821  -9.310  10.868  1.00  0.00     0.007 C 
HETATM   24  C   UNL     1      41.278  -9.341  10.668  1.00  0.00     0.020 C 
HETATM   25  C   UNL     1      40.553  -8.667  11.846  1.00  0.00    -0.013 C 
HETATM   26  C   UNL     1      41.012  -7.204  11.953  1.00  0.00     0.009 C 
HETATM   27  C   UNL     1      40.901  -9.407  13.146  1.00  0.00     0.009 C 
HETATM   28  C   UNL     1      42.530  -7.148  12.187  1.00  0.00    -0.013 C 
HETATM   29  C   UNL     1      43.251  -7.822  11.006  1.00  0.00     0.020 C 
HETATM   30  C   UNL     1      42.873  -7.897  13.485  1.00  0.00     0.009 C 
HETATM   31  C   UNL     1      42.418  -9.361  13.385  1.00  0.00    -0.013 C 
HETATM   32  C   UNL     1      43.138 -10.036  12.206  1.00  0.00     0.020 C 
ENDBRANCH   5  23
TORSDOF 3
ENDMDL
MODEL 4
REMARK VINA RESULT:      -9.5      2.912      9.773
REMARK  3 active torsions:
REMARK  status: ('A' for Active; 'I' for Inactive)
REMARK    1  A    between atoms: N_7  and  N_8 
REMARK       I    between atoms: N_8  and  C_9 
REMARK    2  A    between atoms: C_9  and  C_10 
REMARK    3  A    between atoms: C_14  and  C_15 
ROOT
HETATM    1  C   UNL     1      43.107 -12.149   4.911  1.00  0.00     0.121 A 
HETATM    2  N   UNL     1      42.498 -10.959   4.627  1.00  0.00    -0.272 N 
HETATM    3  H   UNL     1      42.048 -10.700   3.753  1.00  0.00     0.189 HD
HETATM    4  N   UNL     1      42.520 -10.075   5.638  1.00  0.00    -0.178 NA
HETATM    5  C   UNL     1      43.168 -10.711   6.622  1.00  0.00     0.066 A 
HETATM    6  C   UNL     1      43.556 -12.014   6.209  1.00  0.00     0.066 A 
ENDROOT
BRANCH   1   7
HETATM    7  C   UNL     1      43.173 -13.218   3.943  1.00  0.00     0.289 C 
HETATM    8  N   UNL     1      42.784 -14.451   4.435  1.00  0.00    -0.241 N 
HETATM    9  H   UNL     1      42.493 -14.542   5.408  1.00  0.00     0.192 HD
HETATM   10  O   UNL     1      43.545 -13.015   2.789  1.00  0.00    -0.264 OA
BRANCH   8  11
HETATM   11  N   UNL     1      42.776 -15.566   3.643  1.00  0.00    -0.165 NA
HETATM   12  C   UNL     1      43.242 -16.648   4.181  1.00  0.00     0.157 A 
HETATM   13  C   UNL     1      43.332 -17.954   3.541  1.00  0.00     0.027 A 
HETATM   14  C   UNL     1      43.807 -16.837   5.595  1.00  0.00     0.277 A 
HETATM   15  C   UNL     1      42.968 -18.365   2.277  1.00  0.00     0.016 A 
HETATM   16  C   UNL     1      43.893 -18.820   4.480  1.00  0.00     0.048 A 
HETATM   17  C   UNL     1      43.184 -19.710   1.963  1.00  0.00     0.001 A 
HETATM   18  C   UNL     1      43.752 -20.591   2.908  1.00  0.00     0.002 A 
HETATM   19  C   UNL     1      44.114 -20.148   4.186  1.00  0.00     0.030 A 
HETATM   20  N   UNL     1      44.169 -18.163   5.677  1.00  0.00    -0.321 N 
HETATM   21  H   UNL     1      44.575 -18.580   6.501  1.00  0.00     0.169 HD
HETATM   22  O   UNL     1      43.891 -15.959   6.428  1.00  0.00    -0.266 OA
ENDBRANCH   8  11
ENDBRANCH   1   7
BRANCH   5  23
HETATM   23  C   UNL     1      43.413 -10.065   7.973  1.00  0.00     0.007 C 
HETATM   24  C   UNL     1      43.842 -11.093   9.060  1.00  0.00     0.020 C 
HETATM   25  C   UNL     1      44.082 -10.401  10.413  1.00  0.00    -0.013 C 
HETATM   26  C   UNL     1      42.787  -9.709  10.865  1.00  0.00     0.009 C 
HETATM   27  C   UNL     1      45.192  -9.350  10.255  1.00  0.00     0.009 C 
HETATM   28  C   UNL     1      42.360  -8.663   9.823  1.00  0.00    -0.013 C 
HETATM   29  C   UNL     1      42.120  -9.360   8.473  1.00  0.00     0.020 C 
HETATM   30  C   UNL     1      43.477  -7.619   9.664  1.00  0.00     0.009 C 
HETATM   31  C   UNL     1      44.777  -8.303   9.211  1.00  0.00    -0.013 C 
HETATM   32  C   UNL     1      44.538  -8.999   7.860  1.00  0.00     0.020 C 
ENDBRANCH   5  23
TORSDOF 3
ENDMDL
MODEL 5
REMARK VINA RESULT:      -9.0      6.213      9.449
REMARK  3 active torsions:
REMARK  status: ('A' for Active; 'I' for Inactive)
REMARK    1  A    between atoms: N_7  and  N_8 
REMARK       I    between atoms: N_8  and  C_9 
REMARK    2  A    between atoms: C_9  and  C_10 
REMARK    3  A    between atoms: C_14  and  C_15 
ROOT
HETATM    1  C   UNL     1      40.725 -14.595   1.354  1.00  0.00     0.121 A 
HETATM    2  N   UNL     1      39.772 -15.364   1.963  1.00  0.00    -0.272 N 
HETATM    3  H   UNL     1      38.843 -15.573   1.608  1.00  0.00     0.189 HD
HETATM    4  N   UNL     1      40.151 -15.875   3.146  1.00  0.00    -0.178 NA
HETATM    5  C   UNL     1      41.400 -15.423   3.318  1.00  0.00     0.066 A 
HETATM    6  C   UNL     1      41.799 -14.615   2.220  1.00  0.00     0.066 A 
ENDROOT
BRANCH   1   7
HETATM    7  C   UNL     1      40.492 -13.971   0.074  1.00  0.00     0.289 C 
HETATM    8  N   UNL     1      41.054 -12.712  -0.052  1.00  0.00    -0.241 N 
HETATM    9  H   UNL     1      41.571 -12.306   0.727  1.00  0.00     0.192 HD
HETATM   10  O   UNL     1      39.846 -14.536  -0.806  1.00  0.00    -0.264 OA
BRANCH   8  11
HETATM   11  N   UNL     1      40.936 -11.990  -1.208  1.00  0.00    -0.165 NA
HETATM   12  C   UNL     1      41.275 -10.742  -1.134  1.00  0.00     0.157 A 
HETATM   13  C   UNL     1      41.241  -9.779  -2.227  1.00  0.00     0.027 A 
HETATM   14  C   UNL     1      41.787  -9.969   0.088  1.00  0.00     0.277 A 
HETATM   15  C   UNL     1      40.868  -9.924  -3.546  1.00  0.00     0.016 A 
HETATM   16  C   UNL     1      41.685  -8.565  -1.701  1.00  0.00     0.048 A 
HETATM   17  C   UNL     1      40.953  -8.788  -4.355  1.00  0.00     0.001 A 
HETATM   18  C   UNL     1      41.402  -7.557  -3.830  1.00  0.00     0.002 A 
HETATM   19  C   UNL     1      41.774  -7.436  -2.486  1.00  0.00     0.030 A 
HETATM   20  N   UNL     1      42.003  -8.681  -0.350  1.00  0.00    -0.321 N 
HETATM   21  H   UNL     1      42.344  -7.941   0.244  1.00  0.00     0.169 HD
HETATM   22  O   UNL     1      41.951 -10.449   1.190  1.00  0.00    -0.266 OA
ENDBRANCH   8  11
ENDBRANCH   1   7
BRANCH   5  23
HETATM   23  C   UNL     1      42.219 -15.775   4.545  1.00  0.00     0.007 C 
HETATM   24  C   UNL     1      42.980 -14.550   5.130  1.00  0.00     0.020 C 
HETATM   25  C   UNL     1      43.797 -14.945   6.373  1.00  0.00    -0.013 C 
HETATM   26  C   UNL     1      44.818 -16.027   5.985  1.00  0.00     0.009 C 
HETATM   27  C   UNL     1      42.849 -15.502   7.446  1.00  0.00     0.009 C 
HETATM   28  C   UNL     1      44.088 -17.263   5.436  1.00  0.00    -0.013 C 
HETATM   29  C   UNL     1      43.274 -16.863   4.194  1.00  0.00     0.020 C 
HETATM   30  C   UNL     1      43.136 -17.810   6.512  1.00  0.00     0.009 C 
HETATM   31  C   UNL     1      42.111 -16.735   6.905  1.00  0.00    -0.013 C 
HETATM   32  C   UNL     1      41.296 -16.335   5.664  1.00  0.00     0.020 C 
ENDBRANCH   5  23
TORSDOF 3
ENDMDL
MODEL 6
REMARK VINA RESULT:      -9.0      1.340      2.540
REMARK  3 active torsions:
REMARK  status: ('A' for Active; 'I' for Inactive)
REMARK    1  A    between atoms: N_7  and  N_8 
REMARK       I    between atoms: N_8  and  C_9 
REMARK    2  A    between atoms: C_9  and  C_10 
REMARK    3  A    between atoms: C_14  and  C_15 
ROOT
HETATM    1  C   UNL     1      42.114 -11.423   6.193  1.00  0.00     0.121 A 
HETATM    2  N   UNL     1      43.259 -12.105   6.499  1.00  0.00    -0.272 N 
HETATM    3  H   UNL     1      43.918 -11.883   7.239  1.00  0.00     0.189 HD
HETATM    4  N   UNL     1      43.491 -13.170   5.714  1.00  0.00    -0.178 NA
HETATM    5  C   UNL     1      42.458 -13.186   4.862  1.00  0.00     0.066 A 
HETATM    6  C   UNL     1      41.572 -12.108   5.124  1.00  0.00     0.066 A 
ENDROOT
BRANCH   1   7
HETATM    7  C   UNL     1      41.704 -10.257   6.937  1.00  0.00     0.289 C 
HETATM    8  N   UNL     1      42.488  -9.990   8.046  1.00  0.00    -0.241 N 
HETATM    9  H   UNL     1      43.271 -10.601   8.275  1.00  0.00     0.192 HD
HETATM   10  O   UNL     1      40.738  -9.581   6.589  1.00  0.00    -0.264 OA
BRANCH   8  11
HETATM   11  N   UNL     1      42.242  -8.912   8.852  1.00  0.00    -0.165 NA
HETATM   12  C   UNL     1      42.669  -9.006  10.071  1.00  0.00     0.157 A 
HETATM   13  C   UNL     1      42.530  -7.992  11.108  1.00  0.00     0.027 A 
HETATM   14  C   UNL     1      43.412 -10.176  10.728  1.00  0.00     0.277 A 
HETATM   15  C   UNL     1      41.950  -6.742  11.076  1.00  0.00     0.016 A 
HETATM   16  C   UNL     1      43.128  -8.513  12.256  1.00  0.00     0.048 A 
HETATM   17  C   UNL     1      41.985  -5.998  12.259  1.00  0.00     0.001 A 
HETATM   18  C   UNL     1      42.587  -6.519  13.423  1.00  0.00     0.002 A 
HETATM   19  C   UNL     1      43.169  -7.793  13.431  1.00  0.00     0.030 A 
HETATM   20  N   UNL     1      43.641  -9.787  12.029  1.00  0.00    -0.321 N 
HETATM   21  H   UNL     1      44.117 -10.363  12.707  1.00  0.00     0.169 HD
HETATM   22  O   UNL     1      43.712 -11.208  10.165  1.00  0.00    -0.266 OA
ENDBRANCH   8  11
ENDBRANCH   1   7
BRANCH   5  23
HETATM   23  C   UNL     1      42.318 -14.249   3.788  1.00  0.00     0.007 C 
HETATM   24  C   UNL     1      43.164 -15.520   4.088  1.00  0.00     0.020 C 
HETATM   25  C   UNL     1      42.995 -16.574   2.980  1.00  0.00    -0.013 C 
HETATM   26  C   UNL     1      43.452 -15.977   1.639  1.00  0.00     0.009 C 
HETATM   27  C   UNL     1      41.514 -16.972   2.881  1.00  0.00     0.009 C 
HETATM   28  C   UNL     1      42.607 -14.738   1.303  1.00  0.00    -0.013 C 
HETATM   29  C   UNL     1      42.780 -13.688   2.413  1.00  0.00     0.020 C 
HETATM   30  C   UNL     1      41.126 -15.142   1.213  1.00  0.00     0.009 C 
HETATM   31  C   UNL     1      40.661 -15.739   2.550  1.00  0.00    -0.013 C 
HETATM   32  C   UNL     1      40.833 -14.689   3.661  1.00  0.00     0.020 C 
ENDBRANCH   5  23
TORSDOF 3
ENDMDL
MODEL 7
REMARK VINA RESULT:      -8.8      3.410      5.613
REMARK  3 active torsions:
REMARK  status: ('A' for Active; 'I' for Inactive)
REMARK    1  A    between atoms: N_7  and  N_8 
REMARK       I    between atoms: N_8  and  C_9 
REMARK    2  A    between atoms: C_9  and  C_10 
REMARK    3  A    between atoms: C_14  and  C_15 
ROOT
HETATM    1  C   UNL     1      40.277 -12.965   3.591  1.00  0.00     0.121 A 
HETATM    2  N   UNL     1      39.893 -14.249   3.316  1.00  0.00    -0.272 N 
HETATM    3  H   UNL     1      39.781 -15.005   3.984  1.00  0.00     0.189 HD
HETATM    4  N   UNL     1      39.648 -14.483   2.016  1.00  0.00    -0.178 NA
HETATM    5  C   UNL     1      39.880 -13.308   1.417  1.00  0.00     0.066 A 
HETATM    6  C   UNL     1      40.279 -12.329   2.366  1.00  0.00     0.066 A 
ENDROOT
BRANCH   1   7
HETATM    7  C   UNL     1      40.575 -12.534   4.935  1.00  0.00     0.289 C 
HETATM    8  N   UNL     1      41.391 -11.419   5.003  1.00  0.00    -0.241 N 
HETATM    9  H   UNL     1      41.730 -10.983   4.146  1.00  0.00     0.192 HD
HETATM   10  O   UNL     1      40.126 -13.129   5.912  1.00  0.00    -0.264 OA
BRANCH   8  11
HETATM   11  N   UNL     1      41.757 -10.874   6.204  1.00  0.00    -0.165 NA
HETATM   12  C   UNL     1      43.028 -10.864   6.457  1.00  0.00     0.157 A 
HETATM   13  C   UNL     1      43.657 -10.336   7.661  1.00  0.00     0.027 A 
HETATM   14  C   UNL     1      44.175 -11.389   5.583  1.00  0.00     0.277 A 
HETATM   15  C   UNL     1      43.110  -9.743   8.779  1.00  0.00     0.016 A 
HETATM   16  C   UNL     1      45.030 -10.532   7.511  1.00  0.00     0.048 A 
HETATM   17  C   UNL     1      43.999  -9.335   9.777  1.00  0.00     0.001 A 
HETATM   18  C   UNL     1      45.389  -9.530   9.632  1.00  0.00     0.002 A 
HETATM   19  C   UNL     1      45.920 -10.136   8.486  1.00  0.00     0.030 A 
HETATM   20  N   UNL     1      45.327 -11.146   6.297  1.00  0.00    -0.321 N 
HETATM   21  H   UNL     1      46.248 -11.389   5.966  1.00  0.00     0.169 HD
HETATM   22  O   UNL     1      44.032 -11.901   4.493  1.00  0.00    -0.266 OA
ENDBRANCH   8  11
ENDBRANCH   1   7
BRANCH   5  23
HETATM   23  C   UNL     1      39.713 -13.121  -0.080  1.00  0.00     0.007 C 
HETATM   24  C   UNL     1      40.912 -12.369  -0.728  1.00  0.00     0.020 C 
HETATM   25  C   UNL     1      40.707 -12.202  -2.244  1.00  0.00    -0.013 C 
HETATM   26  C   UNL     1      39.420 -11.399  -2.495  1.00  0.00     0.009 C 
HETATM   27  C   UNL     1      40.578 -13.588  -2.894  1.00  0.00     0.009 C 
HETATM   28  C   UNL     1      38.216 -12.140  -1.894  1.00  0.00    -0.013 C 
HETATM   29  C   UNL     1      38.425 -12.304  -0.379  1.00  0.00     0.020 C 
HETATM   30  C   UNL     1      38.096 -13.528  -2.543  1.00  0.00     0.009 C 
HETATM   31  C   UNL     1      39.378 -14.338  -2.295  1.00  0.00    -0.013 C 
HETATM   32  C   UNL     1      39.588 -14.503  -0.781  1.00  0.00     0.020 C 
ENDBRANCH   5  23
TORSDOF 3
ENDMDL
MODEL 8
REMARK VINA RESULT:      -8.8      6.188      9.188
REMARK  3 active torsions:
REMARK  status: ('A' for Active; 'I' for Inactive)
REMARK    1  A    between atoms: N_7  and  N_8 
REMARK       I    between atoms: N_8  and  C_9 
REMARK    2  A    between atoms: C_9  and  C_10 
REMARK    3  A    between atoms: C_14  and  C_15 
ROOT
HETATM    1  C   UNL     1      40.991 -14.747   1.185  1.00  0.00     0.121 A 
HETATM    2  N   UNL     1      42.247 -15.157   0.831  1.00  0.00    -0.272 N 
HETATM    3  H   UNL     1      42.643 -15.161  -0.105  1.00  0.00     0.189 HD
HETATM    4  N   UNL     1      42.995 -15.589   1.860  1.00  0.00    -0.178 NA
HETATM    5  C   UNL     1      42.200 -15.454   2.928  1.00  0.00     0.066 A 
HETATM    6  C   UNL     1      40.934 -14.932   2.552  1.00  0.00     0.066 A 
ENDROOT
BRANCH   1   7
HETATM    7  C   UNL     1      40.053 -14.247   0.209  1.00  0.00     0.289 C 
HETATM    8  N   UNL     1      39.756 -12.902   0.348  1.00  0.00    -0.241 N 
HETATM    9  H   UNL     1      40.187 -12.361   1.097  1.00  0.00     0.192 HD
HETATM   10  O   UNL     1      39.579 -14.979  -0.657  1.00  0.00    -0.264 OA
BRANCH   8  11
HETATM   11  N   UNL     1      38.894 -12.270  -0.506  1.00  0.00    -0.165 NA
HETATM   12  C   UNL     1      38.015 -11.497   0.047  1.00  0.00     0.157 A 
HETATM   13  C   UNL     1      36.999 -10.718  -0.650  1.00  0.00     0.027 A 
HETATM   14  C   UNL     1      37.814 -11.203   1.540  1.00  0.00     0.277 A 
HETATM   15  C   UNL     1      36.719 -10.599  -1.995  1.00  0.00     0.016 A 
HETATM   16  C   UNL     1      36.275 -10.039   0.330  1.00  0.00     0.048 A 
HETATM   17  C   UNL     1      35.663  -9.755  -2.348  1.00  0.00     0.001 A 
HETATM   18  C   UNL     1      34.927  -9.065  -1.361  1.00  0.00     0.002 A 
HETATM   19  C   UNL     1      35.231  -9.204  -0.001  1.00  0.00     0.030 A 
HETATM   20  N   UNL     1      36.755 -10.325   1.606  1.00  0.00    -0.321 N 
HETATM   21  H   UNL     1      36.393  -9.953   2.472  1.00  0.00     0.169 HD
HETATM   22  O   UNL     1      38.485 -11.676   2.433  1.00  0.00    -0.266 OA
ENDBRANCH   8  11
ENDBRANCH   1   7
BRANCH   5  23
HETATM   23  C   UNL     1      42.660 -15.826   4.325  1.00  0.00     0.007 C 
HETATM   24  C   UNL     1      43.749 -16.939   4.322  1.00  0.00     0.020 C 
HETATM   25  C   UNL     1      44.191 -17.286   5.754  1.00  0.00    -0.013 C 
HETATM   26  C   UNL     1      42.976 -17.782   6.553  1.00  0.00     0.009 C 
HETATM   27  C   UNL     1      44.765 -16.030   6.427  1.00  0.00     0.009 C 
HETATM   28  C   UNL     1      41.899 -16.686   6.601  1.00  0.00    -0.013 C 
HETATM   29  C   UNL     1      41.459 -16.343   5.168  1.00  0.00     0.020 C 
HETATM   30  C   UNL     1      42.481 -15.430   7.268  1.00  0.00     0.009 C 
HETATM   31  C   UNL     1      43.697 -14.927   6.474  1.00  0.00    -0.013 C 
HETATM   32  C   UNL     1      43.258 -14.583   5.041  1.00  0.00     0.020 C 
ENDBRANCH   5  23
TORSDOF 3
ENDMDL
MODEL 9
REMARK VINA RESULT:      -8.7      1.866      2.421
REMARK  3 active torsions:
REMARK  status: ('A' for Active; 'I' for Inactive)
REMARK    1  A    between atoms: N_7  and  N_8 
REMARK       I    between atoms: N_8  and  C_9 
REMARK    2  A    between atoms: C_9  and  C_10 
REMARK    3  A    between atoms: C_14  and  C_15 
ROOT
HETATM    1  C   UNL     1      43.518 -12.402   6.879  1.00  0.00     0.121 A 
HETATM    2  N   UNL     1      43.325 -13.630   7.449  1.00  0.00    -0.272 N 
HETATM    3  H   UNL     1      43.392 -13.858   8.437  1.00  0.00     0.189 HD
HETATM    4  N   UNL     1      43.014 -14.600   6.574  1.00  0.00    -0.178 NA
HETATM    5  C   UNL     1      43.003 -13.984   5.385  1.00  0.00     0.066 A 
HETATM    6  C   UNL     1      43.315 -12.606   5.529  1.00  0.00     0.066 A 
ENDROOT
BRANCH   1   7
HETATM    7  C   UNL     1      43.853 -11.243   7.670  1.00  0.00     0.289 C 
HETATM    8  N   UNL     1      43.103 -10.119   7.371  1.00  0.00    -0.241 N 
HETATM    9  H   UNL     1      42.392 -10.160   6.641  1.00  0.00     0.192 HD
HETATM   10  O   UNL     1      44.734 -11.284   8.526  1.00  0.00    -0.264 OA
BRANCH   8  11
HETATM   11  N   UNL     1      43.287  -8.939   8.040  1.00  0.00    -0.165 NA
HETATM   12  C   UNL     1      42.211  -8.358   8.469  1.00  0.00     0.157 A 
HETATM   13  C   UNL     1      42.153  -7.102   9.207  1.00  0.00     0.027 A 
HETATM   14  C   UNL     1      40.757  -8.821   8.318  1.00  0.00     0.277 A 
HETATM   15  C   UNL     1      43.156  -6.254   9.624  1.00  0.00     0.016 A 
HETATM   16  C   UNL     1      40.804  -6.853   9.462  1.00  0.00     0.048 A 
HETATM   17  C   UNL     1      42.764  -5.111  10.327  1.00  0.00     0.001 A 
HETATM   18  C   UNL     1      41.402  -4.853  10.588  1.00  0.00     0.002 A 
HETATM   19  C   UNL     1      40.401  -5.731  10.152  1.00  0.00     0.030 A 
HETATM   20  N   UNL     1      39.994  -7.859   8.941  1.00  0.00    -0.321 N 
HETATM   21  H   UNL     1      38.987  -7.899   8.999  1.00  0.00     0.169 HD
HETATM   22  O   UNL     1      40.411  -9.839   7.755  1.00  0.00    -0.266 OA
ENDBRANCH   8  11
ENDBRANCH   1   7
BRANCH   5  23
HETATM   23  C   UNL     1      42.684 -14.723   4.099  1.00  0.00     0.007 C 
HETATM   24  C   UNL     1      43.442 -16.077   3.982  1.00  0.00     0.020 C 
HETATM   25  C   UNL     1      43.092 -16.797   2.668  1.00  0.00    -0.013 C 
HETATM   26  C   UNL     1      43.483 -15.903   1.480  1.00  0.00     0.009 C 
HETATM   27  C   UNL     1      41.580 -17.067   2.625  1.00  0.00     0.009 C 
HETATM   28  C   UNL     1      42.720 -14.571   1.554  1.00  0.00    -0.013 C 
HETATM   29  C   UNL     1      43.074 -13.855   2.869  1.00  0.00     0.020 C 
HETATM   30  C   UNL     1      41.208 -14.849   1.519  1.00  0.00     0.009 C 
HETATM   31  C   UNL     1      40.809 -15.742   2.704  1.00  0.00    -0.013 C 
HETATM   32  C   UNL     1      41.161 -15.026   4.019  1.00  0.00     0.020 C 
ENDBRANCH   5  23
TORSDOF 3
ENDMDL
MODEL 10
REMARK VINA RESULT:      -8.6      2.010      9.754
REMARK  3 active torsions:
REMARK  status: ('A' for Active; 'I' for Inactive)
REMARK    1  A    between atoms: N_7  and  N_8 
REMARK       I    between atoms: N_8  and  C_9 
REMARK    2  A    between atoms: C_9  and  C_10 
REMARK    3  A    between atoms: C_14  and  C_15 
ROOT
HETATM    1  C   UNL     1      42.280 -10.279   6.828  1.00  0.00     0.121 A 
HETATM    2  N   UNL     1      41.178  -9.470   6.800  1.00  0.00    -0.272 N 
HETATM    3  H   UNL     1      40.585  -9.279   5.998  1.00  0.00     0.189 HD
HETATM    4  N   UNL     1      40.889  -8.892   7.978  1.00  0.00    -0.178 NA
HETATM    5  C   UNL     1      41.838  -9.341   8.810  1.00  0.00     0.066 A 
HETATM    6  C   UNL     1      42.733 -10.211   8.131  1.00  0.00     0.066 A 
ENDROOT
BRANCH   1   7
HETATM    7  C   UNL     1      42.734 -10.984   5.654  1.00  0.00     0.289 C 
HETATM    8  N   UNL     1      41.992 -12.113   5.352  1.00  0.00    -0.241 N 
HETATM    9  H   UNL     1      41.208 -12.381   5.946  1.00  0.00     0.192 HD
HETATM   10  O   UNL     1      43.697 -10.589   5.002  1.00  0.00    -0.264 OA
BRANCH   8  11
HETATM   11  N   UNL     1      42.283 -12.887   4.262  1.00  0.00    -0.165 NA
HETATM   12  C   UNL     1      42.484 -14.145   4.498  1.00  0.00     0.157 A 
HETATM   13  C   UNL     1      42.802 -15.163   3.504  1.00  0.00     0.027 A 
HETATM   14  C   UNL     1      42.443 -14.877   5.846  1.00  0.00     0.277 A 
HETATM   15  C   UNL     1      42.961 -15.071   2.138  1.00  0.00     0.016 A 
HETATM   16  C   UNL     1      42.936 -16.367   4.197  1.00  0.00     0.048 A 
HETATM   17  C   UNL     1      43.267 -16.252   1.457  1.00  0.00     0.001 A 
HETATM   18  C   UNL     1      43.403 -17.473   2.151  1.00  0.00     0.002 A 
HETATM   19  C   UNL     1      43.237 -17.540   3.540  1.00  0.00     0.030 A 
HETATM   20  N   UNL     1      42.725 -16.194   5.562  1.00  0.00    -0.321 N 
HETATM   21  H   UNL     1      42.768 -16.918   6.264  1.00  0.00     0.169 HD
HETATM   22  O   UNL     1      42.202 -14.348   6.911  1.00  0.00    -0.266 OA
ENDBRANCH   8  11
ENDBRANCH   1   7
BRANCH   5  23
HETATM   23  C   UNL     1      41.884  -8.935  10.271  1.00  0.00     0.007 C 
HETATM   24  C   UNL     1      42.699  -9.933  11.145  1.00  0.00     0.020 C 
HETATM   25  C   UNL     1      42.724  -9.486  12.618  1.00  0.00    -0.013 C 
HETATM   26  C   UNL     1      41.284  -9.418  13.151  1.00  0.00     0.009 C 
HETATM   27  C   UNL     1      43.370  -8.096  12.715  1.00  0.00     0.009 C 
HETATM   28  C   UNL     1      40.468  -8.412  12.325  1.00  0.00    -0.013 C 
HETATM   29  C   UNL     1      40.444  -8.862  10.854  1.00  0.00     0.020 C 
HETATM   30  C   UNL     1      41.123  -7.024  12.420  1.00  0.00     0.009 C 
HETATM   31  C   UNL     1      42.563  -7.084  11.888  1.00  0.00    -0.013 C 
HETATM   32  C   UNL     1      42.541  -7.534  10.417  1.00  0.00     0.020 C 
ENDBRANCH   5  23
TORSDOF 3
ENDMDL
