MODEL 1
REMARK VINA RESULT:      -8.5      0.000      0.000
REMARK  7 active torsions:
REMARK  status: ('A' for Active; 'I' for Inactive)
REMARK    1  A    between atoms: C_7  and  C_8 
REMARK    2  A    between atoms: C_8  and  C_9 
REMARK    3  A    between atoms: C_9  and  C_10 
REMARK    4  A    between atoms: C_10  and  O_11 
REMARK    5  A    between atoms: C_13  and  C_14 
REMARK    6  A    between atoms: C_21  and  C_22 
REMARK       I    between atoms: C_22  and  N_23 
REMARK    7  A    between atoms: N_23  and  C_24 
ROOT
HETATM    1  C   UNL     1      39.474  -9.957   3.419  1.00  0.00     0.070 C 
HETATM    2  C   UNL     1      40.770 -10.667   3.722  1.00  0.00     0.037 C 
HETATM    3  N   UNL     1      41.268 -10.477   5.007  1.00  0.00    -0.192 N 
HETATM    4  C   UNL     1      42.510 -10.842   5.378  1.00  0.00     0.726 A 
HETATM    5  N   UNL     1      43.289 -11.554   4.508  1.00  0.00    -0.083 N 
HETATM    6  N   UNL     1      44.520 -11.773   5.019  1.00  0.00    -0.140 NA
HETATM    7  C   UNL     1      44.399 -11.194   6.222  1.00  0.00     0.166 A 
HETATM    8  N   UNL     1      43.180 -10.610   6.476  1.00  0.00    -0.046 NA
HETATM    9  C   UNL     1      42.857 -11.971   3.169  1.00  0.00     0.202 C 
HETATM   10  C   UNL     1      41.486 -11.393   2.826  1.00  0.00     0.062 C 
HETATM   11  H   UNL     1      40.747  -9.864   5.631  1.00  0.00     0.184 HD
ENDROOT
BRANCH  10  12
HETATM   12  C   UNL     1      41.086 -11.604   1.409  1.00  0.00     0.256 C 
HETATM   13  N   UNL     1      40.230 -12.670   1.233  1.00  0.00    -0.323 N 
HETATM   14  H   UNL     1      39.979 -13.199   2.057  1.00  0.00     0.169 HD
HETATM   15  O   UNL     1      41.560 -10.874   0.550  1.00  0.00    -0.267 OA
BRANCH  13  16
HETATM   16  C   UNL     1      39.637 -13.096   0.026  1.00  0.00     0.035 A 
HETATM   17  C   UNL     1      38.715 -12.339  -0.701  1.00  0.00     0.031 A 
HETATM   18  C   UNL     1      38.158 -12.840  -1.883  1.00  0.00     0.026 A 
HETATM   19  C   UNL     1      38.518 -14.105  -2.339  1.00  0.00     0.034 A 
HETATM   20 CL   UNL     1      37.824 -14.726  -3.785  1.00  0.00    -0.084 Cl
HETATM   21  C   UNL     1      39.437 -14.871  -1.628  1.00  0.00     0.026 A 
HETATM   22  C   UNL     1      39.999 -14.363  -0.452  1.00  0.00     0.031 A 
ENDBRANCH  13  16
ENDBRANCH  10  12
BRANCH   9  23
HETATM   23  C   UNL     1      42.890 -13.495   3.052  1.00  0.00    -0.028 A 
HETATM   24  C   UNL     1      43.460 -14.142   1.939  1.00  0.00     0.012 A 
HETATM   25  C   UNL     1      43.472 -15.536   1.862  1.00  0.00     0.043 A 
HETATM   26  C   UNL     1      42.924 -16.287   2.894  1.00  0.00     0.116 A 
HETATM   27  F   UNL     1      42.934 -17.624   2.815  1.00  0.00    -0.206 F 
HETATM   28  C   UNL     1      42.365 -15.672   4.007  1.00  0.00     0.043 A 
HETATM   29  C   UNL     1      42.351 -14.279   4.089  1.00  0.00     0.012 A 
ENDBRANCH   9  23
BRANCH   7  30
HETATM   30  C   UNL     1      45.500 -11.193   7.219  1.00  0.00     0.085 C 
BRANCH  30  31
HETATM   31  C   UNL     1      45.190 -10.356   8.458  1.00  0.00     0.034 C 
BRANCH  31  32
HETATM   32  C   UNL     1      45.812  -8.966   8.408  1.00  0.00     0.164 C 
BRANCH  32  33
HETATM   33  O   UNL     1      46.896  -8.961   7.484  1.00  0.00    -0.401 OA
HETATM   34  H   UNL     1      47.651  -8.532   7.922  1.00  0.00     0.209 HD
ENDBRANCH  32  33
ENDBRANCH  31  32
ENDBRANCH  30  31
ENDBRANCH   7  30
TORSDOF 7
ENDMDL
MODEL 2
REMARK VINA RESULT:      -8.2      1.710      2.111
REMARK  7 active torsions:
REMARK  status: ('A' for Active; 'I' for Inactive)
REMARK    1  A    between atoms: C_7  and  C_8 
REMARK    2  A    between atoms: C_8  and  C_9 
REMARK    3  A    between atoms: C_9  and  C_10 
REMARK    4  A    between atoms: C_10  and  O_11 
REMARK    5  A    between atoms: C_13  and  C_14 
REMARK    6  A    between atoms: C_21  and  C_22 
REMARK       I    between atoms: C_22  and  N_23 
REMARK    7  A    between atoms: N_23  and  C_24 
ROOT
HETATM    1  C   UNL     1      38.955 -11.663   5.041  1.00  0.00     0.070 C 
HETATM    2  C   UNL     1      40.383 -12.126   5.192  1.00  0.00     0.037 C 
HETATM    3  N   UNL     1      41.103 -11.514   6.213  1.00  0.00    -0.192 N 
HETATM    4  C   UNL     1      42.437 -11.635   6.347  1.00  0.00     0.726 A 
HETATM    5  N   UNL     1      43.119 -12.499   5.537  1.00  0.00    -0.083 N 
HETATM    6  N   UNL     1      44.450 -12.441   5.765  1.00  0.00    -0.140 NA
HETATM    7  C   UNL     1      44.494 -11.540   6.758  1.00  0.00     0.166 A 
HETATM    8  N   UNL     1      43.278 -11.022   7.140  1.00  0.00    -0.046 NA
HETATM    9  C   UNL     1      42.488 -13.337   4.511  1.00  0.00     0.202 C 
HETATM   10  C   UNL     1      41.000 -13.018   4.377  1.00  0.00     0.062 C 
HETATM   11  H   UNL     1      40.634 -10.793   6.757  1.00  0.00     0.184 HD
ENDROOT
BRANCH  10  12
HETATM   12  C   UNL     1      40.350 -13.680   3.215  1.00  0.00     0.256 C 
HETATM   13  N   UNL     1      40.369 -12.919   2.066  1.00  0.00    -0.323 N 
HETATM   14  H   UNL     1      40.796 -12.004   2.129  1.00  0.00     0.169 HD
HETATM   15  O   UNL     1      39.837 -14.779   3.377  1.00  0.00    -0.267 OA
BRANCH  13  16
HETATM   16  C   UNL     1      39.881 -13.283   0.794  1.00  0.00     0.035 A 
HETATM   17  C   UNL     1      40.180 -14.491   0.159  1.00  0.00     0.031 A 
HETATM   18  C   UNL     1      39.669 -14.772  -1.114  1.00  0.00     0.026 A 
HETATM   19  C   UNL     1      38.860 -13.840  -1.758  1.00  0.00     0.034 A 
HETATM   20 CL   UNL     1      38.243 -14.180  -3.327  1.00  0.00    -0.084 Cl
HETATM   21  C   UNL     1      38.551 -12.634  -1.138  1.00  0.00     0.026 A 
HETATM   22  C   UNL     1      39.055 -12.360   0.138  1.00  0.00     0.031 A 
ENDBRANCH  13  16
ENDBRANCH  10  12
BRANCH   9  23
HETATM   23  C   UNL     1      42.739 -14.816   4.805  1.00  0.00    -0.028 A 
HETATM   24  C   UNL     1      43.294 -15.681   3.843  1.00  0.00     0.012 A 
HETATM   25  C   UNL     1      43.509 -17.027   4.142  1.00  0.00     0.043 A 
HETATM   26  C   UNL     1      43.180 -17.513   5.402  1.00  0.00     0.116 A 
HETATM   27  F   UNL     1      43.386 -18.805   5.685  1.00  0.00    -0.206 F 
HETATM   28  C   UNL     1      42.642 -16.678   6.372  1.00  0.00     0.043 A 
HETATM   29  C   UNL     1      42.425 -15.331   6.077  1.00  0.00     0.012 A 
ENDBRANCH   9  23
BRANCH   7  30
HETATM   30  C   UNL     1      45.766 -11.138   7.412  1.00  0.00     0.085 C 
BRANCH  30  31
HETATM   31  C   UNL     1      45.557 -10.382   8.722  1.00  0.00     0.034 C 
BRANCH  31  32
HETATM   32  C   UNL     1      45.850  -8.893   8.603  1.00  0.00     0.164 C 
BRANCH  32  33
HETATM   33  O   UNL     1      46.658  -8.655   7.455  1.00  0.00    -0.401 OA
HETATM   34  H   UNL     1      46.063  -8.434   6.718  1.00  0.00     0.209 HD
ENDBRANCH  32  33
ENDBRANCH  31  32
ENDBRANCH  30  31
ENDBRANCH   7  30
TORSDOF 7
ENDMDL
MODEL 3
REMARK VINA RESULT:      -7.9      4.404      7.051
REMARK  7 active torsions:
REMARK  status: ('A' for Active; 'I' for Inactive)
REMARK    1  A    between atoms: C_7  and  C_8 
REMARK    2  A    between atoms: C_8  and  C_9 
REMARK    3  A    between atoms: C_9  and  C_10 
REMARK    4  A    between atoms: C_10  and  O_11 
REMARK    5  A    between atoms: C_13  and  C_14 
REMARK    6  A    between atoms: C_21  and  C_22 
REMARK       I    between atoms: C_22  and  N_23 
REMARK    7  A    between atoms: N_23  and  C_24 
ROOT
HETATM    1  C   UNL     1      39.449 -14.979  -0.939  1.00  0.00     0.070 C 
HETATM    2  C   UNL     1      40.061 -13.809  -0.209  1.00  0.00     0.037 C 
HETATM    3  N   UNL     1      39.956 -12.582  -0.855  1.00  0.00    -0.192 N 
HETATM    4  C   UNL     1      40.633 -11.485  -0.466  1.00  0.00     0.726 A 
HETATM    5  N   UNL     1      41.358 -11.518   0.693  1.00  0.00    -0.083 N 
HETATM    6  N   UNL     1      42.022 -10.358   0.890  1.00  0.00    -0.140 NA
HETATM    7  C   UNL     1      41.618  -9.654  -0.177  1.00  0.00     0.166 A 
HETATM    8  N   UNL     1      40.767 -10.314  -1.032  1.00  0.00    -0.046 NA
HETATM    9  C   UNL     1      41.448 -12.688   1.574  1.00  0.00     0.202 C 
HETATM   10  C   UNL     1      40.742 -13.895   0.962  1.00  0.00     0.062 C 
HETATM   11  H   UNL     1      39.508 -12.564  -1.768  1.00  0.00     0.184 HD
ENDROOT
BRANCH  10  12
HETATM   12  C   UNL     1      40.975 -15.163   1.704  1.00  0.00     0.256 C 
HETATM   13  N   UNL     1      42.306 -15.507   1.800  1.00  0.00    -0.323 N 
HETATM   14  H   UNL     1      42.973 -14.890   1.356  1.00  0.00     0.169 HD
HETATM   15  O   UNL     1      40.008 -15.791   2.113  1.00  0.00    -0.267 OA
BRANCH  13  16
HETATM   16  C   UNL     1      42.853 -16.616   2.478  1.00  0.00     0.035 A 
HETATM   17  C   UNL     1      43.039 -17.873   1.897  1.00  0.00     0.031 A 
HETATM   18  C   UNL     1      43.574 -18.930   2.644  1.00  0.00     0.026 A 
HETATM   19  C   UNL     1      43.918 -18.733   3.978  1.00  0.00     0.034 A 
HETATM   20 CL   UNL     1      44.563 -20.035   4.897  1.00  0.00    -0.084 Cl
HETATM   21  C   UNL     1      43.742 -17.487   4.570  1.00  0.00     0.026 A 
HETATM   22  C   UNL     1      43.216 -16.430   3.819  1.00  0.00     0.031 A 
ENDBRANCH  13  16
ENDBRANCH  10  12
BRANCH   9  23
HETATM   23  C   UNL     1      40.913 -12.347   2.965  1.00  0.00    -0.028 A 
HETATM   24  C   UNL     1      39.553 -12.065   3.190  1.00  0.00     0.012 A 
HETATM   25  C   UNL     1      39.097 -11.755   4.472  1.00  0.00     0.043 A 
HETATM   26  C   UNL     1      39.993 -11.732   5.534  1.00  0.00     0.116 A 
HETATM   27  F   UNL     1      39.553 -11.431   6.762  1.00  0.00    -0.206 F 
HETATM   28  C   UNL     1      41.338 -12.017   5.340  1.00  0.00     0.043 A 
HETATM   29  C   UNL     1      41.799 -12.328   4.060  1.00  0.00     0.012 A 
ENDBRANCH   9  23
BRANCH   7  30
HETATM   30  C   UNL     1      42.048  -8.252  -0.415  1.00  0.00     0.085 C 
BRANCH  30  31
HETATM   31  C   UNL     1      43.132  -8.127  -1.484  1.00  0.00     0.034 C 
BRANCH  31  32
HETATM   32  C   UNL     1      42.635  -7.460  -2.760  1.00  0.00     0.164 C 
BRANCH  32  33
HETATM   33  O   UNL     1      41.542  -8.202  -3.292  1.00  0.00    -0.401 OA
HETATM   34  H   UNL     1      41.185  -8.753  -2.574  1.00  0.00     0.209 HD
ENDBRANCH  32  33
ENDBRANCH  31  32
ENDBRANCH  30  31
ENDBRANCH   7  30
TORSDOF 7
ENDMDL
MODEL 4
REMARK VINA RESULT:      -7.9      3.850      6.117
REMARK  7 active torsions:
REMARK  status: ('A' for Active; 'I' for Inactive)
REMARK    1  A    between atoms: C_7  and  C_8 
REMARK    2  A    between atoms: C_8  and  C_9 
REMARK    3  A    between atoms: C_9  and  C_10 
REMARK    4  A    between atoms: C_10  and  O_11 
REMARK    5  A    between atoms: C_13  and  C_14 
REMARK    6  A    between atoms: C_21  and  C_22 
REMARK       I    between atoms: C_22  and  N_23 
REMARK    7  A    between atoms: N_23  and  C_24 
ROOT
HETATM    1  C   UNL     1      43.866 -13.573   7.077  1.00  0.00     0.070 C 
HETATM    2  C   UNL     1      42.720 -12.854   6.408  1.00  0.00     0.037 C 
HETATM    3  N   UNL     1      42.587 -11.509   6.735  1.00  0.00    -0.192 N 
HETATM    4  C   UNL     1      41.503 -10.777   6.416  1.00  0.00     0.726 A 
HETATM    5  N   UNL     1      40.535 -11.322   5.617  1.00  0.00    -0.083 N 
HETATM    6  N   UNL     1      39.496 -10.474   5.457  1.00  0.00    -0.140 NA
HETATM    7  C   UNL     1      39.924  -9.417   6.161  1.00  0.00     0.166 A 
HETATM    8  N   UNL     1      41.151  -9.568   6.766  1.00  0.00    -0.046 NA
HETATM    9  C   UNL     1      40.597 -12.677   5.059  1.00  0.00     0.202 C 
HETATM   10  C   UNL     1      41.807 -13.440   5.593  1.00  0.00     0.062 C 
HETATM   11  H   UNL     1      43.241 -11.118   7.410  1.00  0.00     0.184 HD
ENDROOT
BRANCH  10  12
HETATM   12  C   UNL     1      41.811 -14.883   5.231  1.00  0.00     0.256 C 
HETATM   13  N   UNL     1      42.804 -15.222   4.337  1.00  0.00    -0.323 N 
HETATM   14  H   UNL     1      43.405 -14.476   4.012  1.00  0.00     0.169 HD
HETATM   15  O   UNL     1      40.946 -15.609   5.701  1.00  0.00    -0.267 OA
BRANCH  13  16
HETATM   16  C   UNL     1      43.100 -16.508   3.841  1.00  0.00     0.035 A 
HETATM   17  C   UNL     1      43.945 -17.418   4.481  1.00  0.00     0.031 A 
HETATM   18  C   UNL     1      44.202 -18.672   3.913  1.00  0.00     0.026 A 
HETATM   19  C   UNL     1      43.618 -19.017   2.698  1.00  0.00     0.034 A 
HETATM   20 CL   UNL     1      43.943 -20.552   1.995  1.00  0.00    -0.084 Cl
HETATM   21  C   UNL     1      42.772 -18.123   2.049  1.00  0.00     0.026 A 
HETATM   22  C   UNL     1      42.510 -16.874   2.623  1.00  0.00     0.031 A 
ENDBRANCH  13  16
ENDBRANCH  10  12
BRANCH   9  23
HETATM   23  C   UNL     1      40.573 -12.623   3.531  1.00  0.00    -0.028 A 
HETATM   24  C   UNL     1      39.588 -13.291   2.779  1.00  0.00     0.012 A 
HETATM   25  C   UNL     1      39.596 -13.223   1.385  1.00  0.00     0.043 A 
HETATM   26  C   UNL     1      40.579 -12.484   0.738  1.00  0.00     0.116 A 
HETATM   27  F   UNL     1      40.585 -12.424  -0.600  1.00  0.00    -0.206 F 
HETATM   28  C   UNL     1      41.555 -11.808   1.457  1.00  0.00     0.043 A 
HETATM   29  C   UNL     1      41.551 -11.873   2.851  1.00  0.00     0.012 A 
ENDBRANCH   9  23
BRANCH   7  30
HETATM   30  C   UNL     1      39.137  -8.162   6.272  1.00  0.00     0.085 C 
BRANCH  30  31
HETATM   31  C   UNL     1      38.897  -7.480   4.927  1.00  0.00     0.034 C 
BRANCH  31  32
HETATM   32  C   UNL     1      37.498  -7.728   4.377  1.00  0.00     0.164 C 
BRANCH  32  33
HETATM   33  O   UNL     1      36.801  -8.629   5.231  1.00  0.00    -0.401 OA
HETATM   34  H   UNL     1      37.092  -8.453   6.142  1.00  0.00     0.209 HD
ENDBRANCH  32  33
ENDBRANCH  31  32
ENDBRANCH  30  31
ENDBRANCH   7  30
TORSDOF 7
ENDMDL
MODEL 5
REMARK VINA RESULT:      -7.8      4.503      7.128
REMARK  7 active torsions:
REMARK  status: ('A' for Active; 'I' for Inactive)
REMARK    1  A    between atoms: C_7  and  C_8 
REMARK    2  A    between atoms: C_8  and  C_9 
REMARK    3  A    between atoms: C_9  and  C_10 
REMARK    4  A    between atoms: C_10  and  O_11 
REMARK    5  A    between atoms: C_13  and  C_14 
REMARK    6  A    between atoms: C_21  and  C_22 
REMARK       I    between atoms: C_22  and  N_23 
REMARK    7  A    between atoms: N_23  and  C_24 
ROOT
HETATM    1  C   UNL     1      39.548 -14.578  -1.249  1.00  0.00     0.070 C 
HETATM    2  C   UNL     1      40.109 -13.269  -0.751  1.00  0.00     0.037 C 
HETATM    3  N   UNL     1      40.046 -12.211  -1.651  1.00  0.00    -0.192 N 
HETATM    4  C   UNL     1      40.694 -11.046  -1.466  1.00  0.00     0.726 A 
HETATM    5  N   UNL     1      41.342 -10.818  -0.283  1.00  0.00    -0.083 N 
HETATM    6  N   UNL     1      41.990  -9.632  -0.299  1.00  0.00    -0.140 NA
HETATM    7  C   UNL     1      41.656  -9.181  -1.516  1.00  0.00     0.166 A 
HETATM    8  N   UNL     1      40.864 -10.023  -2.262  1.00  0.00    -0.046 NA
HETATM    9  C   UNL     1      41.375 -11.769   0.834  1.00  0.00     0.202 C 
HETATM   10  C   UNL     1      40.712 -13.091   0.452  1.00  0.00     0.062 C 
HETATM   11  H   UNL     1      39.658 -12.397  -2.574  1.00  0.00     0.184 HD
ENDROOT
BRANCH  10  12
HETATM   12  C   UNL     1      40.897 -14.166   1.463  1.00  0.00     0.256 C 
HETATM   13  N   UNL     1      42.162 -14.713   1.458  1.00  0.00    -0.323 N 
HETATM   14  H   UNL     1      42.816 -14.353   0.776  1.00  0.00     0.169 HD
HETATM   15  O   UNL     1      39.943 -14.490   2.157  1.00  0.00    -0.267 OA
BRANCH  13  16
HETATM   16  C   UNL     1      42.663 -15.709   2.321  1.00  0.00     0.035 A 
HETATM   17  C   UNL     1      43.024 -15.481   3.651  1.00  0.00     0.031 A 
HETATM   18  C   UNL     1      43.530 -16.522   4.440  1.00  0.00     0.026 A 
HETATM   19  C   UNL     1      43.682 -17.794   3.897  1.00  0.00     0.034 A 
HETATM   20 CL   UNL     1      44.315 -19.068   4.862  1.00  0.00    -0.084 Cl
HETATM   21  C   UNL     1      43.325 -18.038   2.575  1.00  0.00     0.026 A 
HETATM   22  C   UNL     1      42.810 -16.999   1.792  1.00  0.00     0.031 A 
ENDBRANCH  13  16
ENDBRANCH  10  12
BRANCH   9  23
HETATM   23  C   UNL     1      40.749 -11.145   2.081  1.00  0.00    -0.028 A 
HETATM   24  C   UNL     1      41.521 -10.804   3.208  1.00  0.00     0.012 A 
HETATM   25  C   UNL     1      40.919 -10.237   4.332  1.00  0.00     0.043 A 
HETATM   26  C   UNL     1      39.549 -10.002   4.334  1.00  0.00     0.116 A 
HETATM   27  F   UNL     1      38.974  -9.461   5.416  1.00  0.00    -0.206 F 
HETATM   28  C   UNL     1      38.768 -10.321   3.231  1.00  0.00     0.043 A 
HETATM   29  C   UNL     1      39.365 -10.887   2.105  1.00  0.00     0.012 A 
ENDBRANCH   9  23
BRANCH   7  30
HETATM   30  C   UNL     1      42.099  -7.856  -2.023  1.00  0.00     0.085 C 
BRANCH  30  31
HETATM   31  C   UNL     1      43.450  -7.417  -1.462  1.00  0.00     0.034 C 
BRANCH  31  32
HETATM   32  C   UNL     1      43.604  -5.903  -1.398  1.00  0.00     0.164 C 
BRANCH  32  33
HETATM   33  O   UNL     1      44.917  -5.538  -1.809  1.00  0.00    -0.401 OA
HETATM   34  H   UNL     1      45.508  -6.281  -1.595  1.00  0.00     0.209 HD
ENDBRANCH  32  33
ENDBRANCH  31  32
ENDBRANCH  30  31
ENDBRANCH   7  30
TORSDOF 7
ENDMDL
MODEL 6
REMARK VINA RESULT:      -7.8      4.491      7.467
REMARK  7 active torsions:
REMARK  status: ('A' for Active; 'I' for Inactive)
REMARK    1  A    between atoms: C_7  and  C_8 
REMARK    2  A    between atoms: C_8  and  C_9 
REMARK    3  A    between atoms: C_9  and  C_10 
REMARK    4  A    between atoms: C_10  and  O_11 
REMARK    5  A    between atoms: C_13  and  C_14 
REMARK    6  A    between atoms: C_21  and  C_22 
REMARK       I    between atoms: C_22  and  N_23 
REMARK    7  A    between atoms: N_23  and  C_24 
ROOT
HETATM    1  C   UNL     1      38.732 -12.785   2.323  1.00  0.00     0.070 C 
HETATM    2  C   UNL     1      39.902 -13.469   2.986  1.00  0.00     0.037 C 
HETATM    3  N   UNL     1      40.502 -14.479   2.242  1.00  0.00    -0.192 N 
HETATM    4  C   UNL     1      41.401 -15.339   2.757  1.00  0.00     0.726 A 
HETATM    5  N   UNL     1      41.861 -15.147   4.031  1.00  0.00    -0.083 N 
HETATM    6  N   UNL     1      42.701 -16.138   4.403  1.00  0.00    -0.140 NA
HETATM    7  C   UNL     1      42.730 -16.876   3.285  1.00  0.00     0.166 A 
HETATM    8  N   UNL     1      41.942 -16.417   2.254  1.00  0.00    -0.046 NA
HETATM    9  C   UNL     1      41.446 -14.038   4.897  1.00  0.00     0.202 C 
HETATM   10  C   UNL     1      40.340 -13.213   4.245  1.00  0.00     0.062 C 
HETATM   11  H   UNL     1      40.101 -14.700   1.333  1.00  0.00     0.184 HD
ENDROOT
BRANCH  10  12
HETATM   12  C   UNL     1      39.731 -12.205   5.154  1.00  0.00     0.256 C 
HETATM   13  N   UNL     1      40.060 -10.906   4.833  1.00  0.00    -0.323 N 
HETATM   14  H   UNL     1      40.678 -10.769   4.045  1.00  0.00     0.169 HD
HETATM   15  O   UNL     1      39.053 -12.596   6.094  1.00  0.00    -0.267 OA
BRANCH  13  16
HETATM   16  C   UNL     1      39.606  -9.731   5.468  1.00  0.00     0.035 A 
HETATM   17  C   UNL     1      40.113  -9.251   6.678  1.00  0.00     0.031 A 
HETATM   18  C   UNL     1      39.597  -8.083   7.253  1.00  0.00     0.026 A 
HETATM   19  C   UNL     1      38.566  -7.395   6.621  1.00  0.00     0.034 A 
HETATM   20 CL   UNL     1      37.924  -5.968   7.334  1.00  0.00    -0.084 Cl
HETATM   21  C   UNL     1      38.052  -7.859   5.414  1.00  0.00     0.026 A 
HETATM   22  C   UNL     1      38.576  -9.020   4.837  1.00  0.00     0.031 A 
ENDBRANCH  13  16
ENDBRANCH  10  12
BRANCH   9  23
HETATM   23  C   UNL     1      42.655 -13.186   5.285  1.00  0.00    -0.028 A 
HETATM   24  C   UNL     1      43.199 -13.215   6.582  1.00  0.00     0.012 A 
HETATM   25  C   UNL     1      44.302 -12.423   6.904  1.00  0.00     0.043 A 
HETATM   26  C   UNL     1      44.870 -11.607   5.934  1.00  0.00     0.116 A 
HETATM   27  F   UNL     1      45.926 -10.846   6.247  1.00  0.00    -0.206 F 
HETATM   28  C   UNL     1      44.357 -11.568   4.643  1.00  0.00     0.043 A 
HETATM   29  C   UNL     1      43.255 -12.358   4.316  1.00  0.00     0.012 A 
ENDBRANCH   9  23
BRANCH   7  30
HETATM   30  C   UNL     1      43.564 -18.099   3.159  1.00  0.00     0.085 C 
BRANCH  30  31
HETATM   31  C   UNL     1      42.929 -19.174   2.279  1.00  0.00     0.034 C 
BRANCH  31  32
HETATM   32  C   UNL     1      43.881 -20.318   1.958  1.00  0.00     0.164 C 
BRANCH  32  33
HETATM   33  O   UNL     1      43.875 -21.259   3.027  1.00  0.00    -0.401 OA
HETATM   34  H   UNL     1      44.606 -21.882   2.873  1.00  0.00     0.209 HD
ENDBRANCH  32  33
ENDBRANCH  31  32
ENDBRANCH  30  31
ENDBRANCH   7  30
TORSDOF 7
ENDMDL
MODEL 7
REMARK VINA RESULT:      -7.6      3.731      6.399
REMARK  7 active torsions:
REMARK  status: ('A' for Active; 'I' for Inactive)
REMARK    1  A    between atoms: C_7  and  C_8 
REMARK    2  A    between atoms: C_8  and  C_9 
REMARK    3  A    between atoms: C_9  and  C_10 
REMARK    4  A    between atoms: C_10  and  O_11 
REMARK    5  A    between atoms: C_13  and  C_14 
REMARK    6  A    between atoms: C_21  and  C_22 
REMARK       I    between atoms: C_22  and  N_23 
REMARK    7  A    between atoms: N_23  and  C_24 
ROOT
HETATM    1  C   UNL     1      44.558 -11.651   3.827  1.00  0.00     0.070 C 
HETATM    2  C   UNL     1      43.124 -11.659   3.358  1.00  0.00     0.037 C 
HETATM    3  N   UNL     1      42.445 -10.453   3.491  1.00  0.00    -0.192 N 
HETATM    4  C   UNL     1      41.112 -10.337   3.339  1.00  0.00     0.726 A 
HETATM    5  N   UNL     1      40.389 -11.412   2.903  1.00  0.00    -0.083 N 
HETATM    6  N   UNL     1      39.067 -11.136   2.873  1.00  0.00    -0.140 NA
HETATM    7  C   UNL     1      39.070  -9.856   3.272  1.00  0.00     0.166 A 
HETATM    8  N   UNL     1      40.308  -9.332   3.569  1.00  0.00    -0.046 NA
HETATM    9  C   UNL     1      40.974 -12.716   2.568  1.00  0.00     0.202 C 
HETATM   10  C   UNL     1      42.464 -12.753   2.899  1.00  0.00     0.062 C 
HETATM   11  H   UNL     1      42.945  -9.672   3.911  1.00  0.00     0.184 HD
ENDROOT
BRANCH  10  12
HETATM   12  C   UNL     1      43.068 -14.107   2.781  1.00  0.00     0.256 C 
HETATM   13  N   UNL     1      42.820 -14.917   3.868  1.00  0.00    -0.323 N 
HETATM   14  H   UNL     1      42.281 -14.517   4.625  1.00  0.00     0.169 HD
HETATM   15  O   UNL     1      43.741 -14.366   1.793  1.00  0.00    -0.267 OA
BRANCH  13  16
HETATM   16  C   UNL     1      43.211 -16.261   4.036  1.00  0.00     0.035 A 
HETATM   17  C   UNL     1      43.188 -17.215   3.016  1.00  0.00     0.031 A 
HETATM   18  C   UNL     1      43.577 -18.536   3.268  1.00  0.00     0.026 A 
HETATM   19  C   UNL     1      43.985 -18.909   4.546  1.00  0.00     0.034 A 
HETATM   20 CL   UNL     1      44.451 -20.534   4.858  1.00  0.00    -0.084 Cl
HETATM   21  C   UNL     1      44.015 -17.970   5.572  1.00  0.00     0.026 A 
HETATM   22  C   UNL     1      43.635 -16.648   5.315  1.00  0.00     0.031 A 
ENDBRANCH  13  16
ENDBRANCH  10  12
BRANCH   9  23
HETATM   23  C   UNL     1      40.695 -13.063   1.106  1.00  0.00    -0.028 A 
HETATM   24  C   UNL     1      41.029 -12.185   0.057  1.00  0.00     0.012 A 
HETATM   25  C   UNL     1      40.759 -12.531  -1.267  1.00  0.00     0.043 A 
HETATM   26  C   UNL     1      40.165 -13.754  -1.552  1.00  0.00     0.116 A 
HETATM   27  F   UNL     1      39.905 -14.082  -2.824  1.00  0.00    -0.206 F 
HETATM   28  C   UNL     1      39.836 -14.643  -0.536  1.00  0.00     0.043 A 
HETATM   29  C   UNL     1      40.104 -14.301   0.790  1.00  0.00     0.012 A 
ENDBRANCH   9  23
BRANCH   7  30
HETATM   30  C   UNL     1      37.826  -9.051   3.375  1.00  0.00     0.085 C 
BRANCH  30  31
HETATM   31  C   UNL     1      38.076  -7.604   3.795  1.00  0.00     0.034 C 
BRANCH  31  32
HETATM   32  C   UNL     1      37.742  -7.343   5.258  1.00  0.00     0.164 C 
BRANCH  32  33
HETATM   33  O   UNL     1      38.236  -8.412   6.059  1.00  0.00    -0.401 OA
HETATM   34  H   UNL     1      38.805  -8.024   6.746  1.00  0.00     0.209 HD
ENDBRANCH  32  33
ENDBRANCH  31  32
ENDBRANCH  30  31
ENDBRANCH   7  30
TORSDOF 7
ENDMDL
MODEL 8
REMARK VINA RESULT:      -7.5      4.013      8.838
REMARK  7 active torsions:
REMARK  status: ('A' for Active; 'I' for Inactive)
REMARK    1  A    between atoms: C_7  and  C_8 
REMARK    2  A    between atoms: C_8  and  C_9 
REMARK    3  A    between atoms: C_9  and  C_10 
REMARK    4  A    between atoms: C_10  and  O_11 
REMARK    5  A    between atoms: C_13  and  C_14 
REMARK    6  A    between atoms: C_21  and  C_22 
REMARK       I    between atoms: C_22  and  N_23 
REMARK    7  A    between atoms: N_23  and  C_24 
ROOT
HETATM    1  C   UNL     1      42.884 -14.892   3.725  1.00  0.00     0.070 C 
HETATM    2  C   UNL     1      42.193 -13.936   2.783  1.00  0.00     0.037 C 
HETATM    3  N   UNL     1      41.431 -14.530   1.784  1.00  0.00    -0.192 N 
HETATM    4  C   UNL     1      40.935 -13.850   0.733  1.00  0.00     0.726 A 
HETATM    5  N   UNL     1      41.061 -12.489   0.693  1.00  0.00    -0.083 N 
HETATM    6  N   UNL     1      40.569 -11.984  -0.460  1.00  0.00    -0.140 NA
HETATM    7  C   UNL     1      40.128 -13.102  -1.055  1.00  0.00     0.166 A 
HETATM    8  N   UNL     1      40.338 -14.267  -0.353  1.00  0.00    -0.046 NA
HETATM    9  C   UNL     1      41.702 -11.691   1.744  1.00  0.00     0.202 C 
HETATM   10  C   UNL     1      42.326 -12.586   2.812  1.00  0.00     0.062 C 
HETATM   11  H   UNL     1      41.414 -15.547   1.742  1.00  0.00     0.184 HD
ENDROOT
BRANCH  10  12
HETATM   12  C   UNL     1      43.170 -11.848   3.791  1.00  0.00     0.256 C 
HETATM   13  N   UNL     1      42.634 -11.812   5.061  1.00  0.00    -0.323 N 
HETATM   14  H   UNL     1      41.738 -12.262   5.194  1.00  0.00     0.169 HD
HETATM   15  O   UNL     1      44.202 -11.322   3.398  1.00  0.00    -0.267 OA
BRANCH  13  16
HETATM   16  C   UNL     1      43.210 -11.236   6.212  1.00  0.00     0.035 A 
HETATM   17  C   UNL     1      42.645 -10.172   6.919  1.00  0.00     0.031 A 
HETATM   18  C   UNL     1      43.289  -9.645   8.046  1.00  0.00     0.026 A 
HETATM   19  C   UNL     1      44.504 -10.178   8.464  1.00  0.00     0.034 A 
HETATM   20 CL   UNL     1      45.301  -9.522   9.840  1.00  0.00    -0.084 Cl
HETATM   21  C   UNL     1      45.079 -11.240   7.771  1.00  0.00     0.026 A 
HETATM   22  C   UNL     1      44.428 -11.771   6.652  1.00  0.00     0.031 A 
ENDBRANCH  13  16
ENDBRANCH  10  12
BRANCH   9  23
HETATM   23  C   UNL     1      40.707 -10.691   2.333  1.00  0.00    -0.028 A 
HETATM   24  C   UNL     1      39.600 -11.107   3.097  1.00  0.00     0.012 A 
HETATM   25  C   UNL     1      38.709 -10.168   3.619  1.00  0.00     0.043 A 
HETATM   26  C   UNL     1      38.922  -8.815   3.388  1.00  0.00     0.116 A 
HETATM   27  F   UNL     1      38.063  -7.917   3.888  1.00  0.00    -0.206 F 
HETATM   28  C   UNL     1      40.012  -8.379   2.647  1.00  0.00     0.043 A 
HETATM   29  C   UNL     1      40.906  -9.313   2.123  1.00  0.00     0.012 A 
ENDBRANCH   9  23
BRANCH   7  30
HETATM   30  C   UNL     1      39.446 -13.085  -2.374  1.00  0.00     0.085 C 
BRANCH  30  31
HETATM   31  C   UNL     1      38.160 -13.908  -2.399  1.00  0.00     0.034 C 
BRANCH  31  32
HETATM   32  C   UNL     1      38.310 -15.224  -3.151  1.00  0.00     0.164 C 
BRANCH  32  33
HETATM   33  O   UNL     1      38.448 -16.293  -2.222  1.00  0.00    -0.401 OA
HETATM   34  H   UNL     1      38.519 -17.118  -2.732  1.00  0.00     0.209 HD
ENDBRANCH  32  33
ENDBRANCH  31  32
ENDBRANCH  30  31
ENDBRANCH   7  30
TORSDOF 7
ENDMDL
MODEL 9
REMARK VINA RESULT:      -7.5      8.958     13.686
REMARK  7 active torsions:
REMARK  status: ('A' for Active; 'I' for Inactive)
REMARK    1  A    between atoms: C_7  and  C_8 
REMARK    2  A    between atoms: C_8  and  C_9 
REMARK    3  A    between atoms: C_9  and  C_10 
REMARK    4  A    between atoms: C_10  and  O_11 
REMARK    5  A    between atoms: C_13  and  C_14 
REMARK    6  A    between atoms: C_21  and  C_22 
REMARK       I    between atoms: C_22  and  N_23 
REMARK    7  A    between atoms: N_23  and  C_24 
ROOT
HETATM    1  C   UNL     1      39.586 -10.473  13.187  1.00  0.00     0.070 C 
HETATM    2  C   UNL     1      40.800  -9.748  12.659  1.00  0.00     0.037 C 
HETATM    3  N   UNL     1      41.457 -10.375  11.606  1.00  0.00    -0.192 N 
HETATM    4  C   UNL     1      42.672  -9.994  11.165  1.00  0.00     0.726 A 
HETATM    5  N   UNL     1      43.246  -8.861  11.670  1.00  0.00    -0.083 N 
HETATM    6  N   UNL     1      44.485  -8.671  11.166  1.00  0.00    -0.140 NA
HETATM    7  C   UNL     1      44.577  -9.715  10.330  1.00  0.00     0.166 A 
HETATM    8  N   UNL     1      43.484 -10.551  10.305  1.00  0.00    -0.046 NA
HETATM    9  C   UNL     1      42.616  -7.998  12.676  1.00  0.00     0.202 C 
HETATM   10  C   UNL     1      41.307  -8.602  13.179  1.00  0.00     0.062 C 
HETATM   11  H   UNL     1      41.097 -11.272  11.289  1.00  0.00     0.184 HD
ENDROOT
BRANCH  10  12
HETATM   12  C   UNL     1      40.728  -7.884  14.346  1.00  0.00     0.256 C 
HETATM   13  N   UNL     1      41.457  -8.041  15.505  1.00  0.00    -0.323 N 
HETATM   14  H   UNL     1      42.280  -8.626  15.454  1.00  0.00     0.169 HD
HETATM   15  O   UNL     1      39.677  -7.274  14.199  1.00  0.00    -0.267 OA
BRANCH  13  16
HETATM   16  C   UNL     1      41.199  -7.453  16.761  1.00  0.00     0.035 A 
HETATM   17  C   UNL     1      40.361  -8.012  17.728  1.00  0.00     0.031 A 
HETATM   18  C   UNL     1      40.142  -7.355  18.946  1.00  0.00     0.026 A 
HETATM   19  C   UNL     1      40.758  -6.133  19.196  1.00  0.00     0.034 A 
HETATM   20 CL   UNL     1      40.480  -5.321  20.686  1.00  0.00    -0.084 Cl
HETATM   21  C   UNL     1      41.598  -5.564  18.243  1.00  0.00     0.026 A 
HETATM   22  C   UNL     1      41.822  -6.227  17.032  1.00  0.00     0.031 A 
ENDBRANCH  13  16
ENDBRANCH  10  12
BRANCH   9  23
HETATM   23  C   UNL     1      42.428  -6.586  12.121  1.00  0.00    -0.028 A 
HETATM   24  C   UNL     1      42.106  -6.355  10.770  1.00  0.00     0.012 A 
HETATM   25  C   UNL     1      41.943  -5.053  10.295  1.00  0.00     0.043 A 
HETATM   26  C   UNL     1      42.094  -3.979  11.164  1.00  0.00     0.116 A 
HETATM   27  F   UNL     1      41.940  -2.731  10.704  1.00  0.00    -0.206 F 
HETATM   28  C   UNL     1      42.401  -4.181  12.503  1.00  0.00     0.043 A 
HETATM   29  C   UNL     1      42.564  -5.481  12.983  1.00  0.00     0.012 A 
ENDBRANCH   9  23
BRANCH   7  30
HETATM   30  C   UNL     1      45.772  -9.950   9.478  1.00  0.00     0.085 C 
BRANCH  30  31
HETATM   31  C   UNL     1      45.474  -9.857   7.983  1.00  0.00     0.034 C 
BRANCH  31  32
HETATM   32  C   UNL     1      45.508 -11.210   7.285  1.00  0.00     0.164 C 
BRANCH  32  33
HETATM   33  O   UNL     1      44.417 -12.007   7.733  1.00  0.00    -0.401 OA
HETATM   34  H   UNL     1      43.950 -12.334   6.945  1.00  0.00     0.209 HD
ENDBRANCH  32  33
ENDBRANCH  31  32
ENDBRANCH  30  31
ENDBRANCH   7  30
TORSDOF 7
ENDMDL
MODEL 10
REMARK VINA RESULT:      -7.4      3.686      5.743
REMARK  7 active torsions:
REMARK  status: ('A' for Active; 'I' for Inactive)
REMARK    1  A    between atoms: C_7  and  C_8 
REMARK    2  A    between atoms: C_8  and  C_9 
REMARK    3  A    between atoms: C_9  and  C_10 
REMARK    4  A    between atoms: C_10  and  O_11 
REMARK    5  A    between atoms: C_13  and  C_14 
REMARK    6  A    between atoms: C_21  and  C_22 
REMARK       I    between atoms: C_22  and  N_23 
REMARK    7  A    between atoms: N_23  and  C_24 
ROOT
HETATM    1  C   UNL     1      45.225 -11.575   5.399  1.00  0.00     0.070 C 
HETATM    2  C   UNL     1      43.732 -11.404   5.538  1.00  0.00     0.037 C 
HETATM    3  N   UNL     1      43.326 -10.396   6.406  1.00  0.00    -0.192 N 
HETATM    4  C   UNL     1      42.053 -10.251   6.822  1.00  0.00     0.726 A 
HETATM    5  N   UNL     1      41.074 -11.036   6.277  1.00  0.00    -0.083 N 
HETATM    6  N   UNL     1      39.877 -10.802   6.858  1.00  0.00    -0.140 NA
HETATM    7  C   UNL     1      40.205  -9.833   7.724  1.00  0.00     0.166 A 
HETATM    8  N   UNL     1      41.532  -9.471   7.732  1.00  0.00    -0.046 NA
HETATM    9  C   UNL     1      41.311 -12.043   5.236  1.00  0.00     0.202 C 
HETATM   10  C   UNL     1      42.802 -12.193   4.943  1.00  0.00     0.062 C 
HETATM   11  H   UNL     1      44.048  -9.873   6.896  1.00  0.00     0.184 HD
ENDROOT
BRANCH  10  12
HETATM   12  C   UNL     1      43.123 -13.341   4.053  1.00  0.00     0.256 C 
HETATM   13  N   UNL     1      42.931 -14.569   4.649  1.00  0.00    -0.323 N 
HETATM   14  H   UNL     1      42.616 -14.569   5.610  1.00  0.00     0.169 HD
HETATM   15  O   UNL     1      43.552 -13.112   2.930  1.00  0.00    -0.267 OA
BRANCH  13  16
HETATM   16  C   UNL     1      43.098 -15.838   4.058  1.00  0.00     0.035 A 
HETATM   17  C   UNL     1      42.591 -16.190   2.805  1.00  0.00     0.031 A 
HETATM   18  C   UNL     1      42.787 -17.479   2.294  1.00  0.00     0.026 A 
HETATM   19  C   UNL     1      43.486 -18.423   3.040  1.00  0.00     0.034 A 
HETATM   20 CL   UNL     1      43.715 -20.009   2.417  1.00  0.00    -0.084 Cl
HETATM   21  C   UNL     1      43.999 -18.088   4.289  1.00  0.00     0.026 A 
HETATM   22  C   UNL     1      43.811 -16.796   4.792  1.00  0.00     0.031 A 
ENDBRANCH  13  16
ENDBRANCH  10  12
BRANCH   9  23
HETATM   23  C   UNL     1      40.504 -11.710   3.982  1.00  0.00    -0.028 A 
HETATM   24  C   UNL     1      40.734 -10.536   3.240  1.00  0.00     0.012 A 
HETATM   25  C   UNL     1      39.978 -10.260   2.100  1.00  0.00     0.043 A 
HETATM   26  C   UNL     1      38.996 -11.155   1.692  1.00  0.00     0.116 A 
HETATM   27  F   UNL     1      38.270 -10.886   0.599  1.00  0.00    -0.206 F 
HETATM   28  C   UNL     1      38.757 -12.325   2.401  1.00  0.00     0.043 A 
HETATM   29  C   UNL     1      39.511 -12.606   3.541  1.00  0.00     0.012 A 
ENDBRANCH   9  23
BRANCH   7  30
HETATM   30  C   UNL     1      39.203  -9.182   8.608  1.00  0.00     0.085 C 
BRANCH  30  31
HETATM   31  C   UNL     1      39.042  -9.883   9.955  1.00  0.00     0.034 C 
BRANCH  31  32
HETATM   32  C   UNL     1      39.964  -9.323  11.030  1.00  0.00     0.164 C 
BRANCH  32  33
HETATM   33  O   UNL     1      40.733 -10.378  11.598  1.00  0.00    -0.401 OA
HETATM   34  H   UNL     1      40.172 -10.832  12.250  1.00  0.00     0.209 HD
ENDBRANCH  32  33
ENDBRANCH  31  32
ENDBRANCH  30  31
ENDBRANCH   7  30
TORSDOF 7
ENDMDL
