MODEL 1
REMARK VINA RESULT:      -8.6      0.000      0.000
REMARK  5 active torsions:
REMARK  status: ('A' for Active; 'I' for Inactive)
REMARK    1  A    between atoms: C_5  and  C_6 
REMARK    2  A    between atoms: C_10  and  C_11 
REMARK       I    between atoms: C_11  and  N_12 
REMARK    3  A    between atoms: N_12  and  C_13 
REMARK    4  A    between atoms: C_13  and  C_14 
REMARK    5  A    between atoms: C_14  and  O_15 
ROOT
HETATM    1  C   UNL     1      42.647 -15.443   2.919  1.00  0.00     0.068 A 
HETATM    2  N   UNL     1      43.084 -14.602   3.887  1.00  0.00    -0.248 NA
HETATM    3  C   UNL     1      42.817 -13.287   3.810  1.00  0.00     0.068 A 
HETATM    4  C   UNL     1      42.063 -12.714   2.767  1.00  0.00     0.008 A 
HETATM    5  C   UNL     1      41.564 -13.618   1.806  1.00  0.00     0.046 A 
HETATM    6  C   UNL     1      41.871 -14.979   1.873  1.00  0.00     0.050 A 
HETATM    7  C   UNL     1      43.319 -12.462   4.808  1.00  0.00     0.032 A 
HETATM    8  C   UNL     1      43.119 -11.081   4.798  1.00  0.00     0.002 A 
HETATM    9  C   UNL     1      42.407 -10.498   3.760  1.00  0.00     0.001 A 
HETATM   10  C   UNL     1      41.889 -11.304   2.747  1.00  0.00     0.015 A 
ENDROOT
BRANCH   5  11
HETATM   11  C   UNL     1      40.679 -13.240   0.676  1.00  0.00     0.252 C 
HETATM   12  N   UNL     1      41.297 -12.962  -0.523  1.00  0.00    -0.354 N 
HETATM   13  H   UNL     1      42.309 -12.903  -0.508  1.00  0.00     0.162 HD
HETATM   14  O   UNL     1      39.477 -13.108   0.876  1.00  0.00    -0.268 OA
BRANCH  12  15
HETATM   15  C   UNL     1      40.639 -12.249  -1.617  1.00  0.00     0.154 C 
BRANCH  15  16
HETATM   16  C   UNL     1      40.424 -13.059  -2.912  1.00  0.00     0.132 C 
HETATM   17  C   UNL     1      39.581 -14.299  -2.645  1.00  0.00     0.041 C 
BRANCH  16  18
HETATM   18  O   UNL     1      41.672 -13.518  -3.431  1.00  0.00    -0.394 OA
HETATM   19  H   UNL     1      42.179 -13.853  -2.657  1.00  0.00     0.210 HD
ENDBRANCH  16  18
ENDBRANCH  15  16
ENDBRANCH  12  15
ENDBRANCH   5  11
BRANCH   1  20
HETATM   20  C   UNL     1      43.028 -16.864   3.064  1.00  0.00    -0.007 A 
HETATM   21  C   UNL     1      43.670 -17.325   4.226  1.00  0.00     0.014 A 
HETATM   22  C   UNL     1      44.020 -18.671   4.386  1.00  0.00     0.007 A 
HETATM   23  C   UNL     1      43.750 -19.598   3.378  1.00  0.00    -0.062 A 
HETATM   24  C   UNL     1      44.094 -21.047   3.545  1.00  0.00     0.048 C 
HETATM   25  C   UNL     1      43.118 -19.159   2.212  1.00  0.00     0.007 A 
HETATM   26  C   UNL     1      42.770 -17.813   2.056  1.00  0.00     0.014 A 
ENDBRANCH   1  20
TORSDOF 5
ENDMDL
MODEL 2
REMARK VINA RESULT:      -8.4      3.962      6.009
REMARK  5 active torsions:
REMARK  status: ('A' for Active; 'I' for Inactive)
REMARK    1  A    between atoms: C_5  and  C_6 
REMARK    2  A    between atoms: C_10  and  C_11 
REMARK       I    between atoms: C_11  and  N_12 
REMARK    3  A    between atoms: N_12  and  C_13 
REMARK    4  A    between atoms: C_13  and  C_14 
REMARK    5  A    between atoms: C_14  and  O_15 
ROOT
HETATM    1  C   UNL     1      42.518 -15.351   4.181  1.00  0.00     0.068 A 
HETATM    2  N   UNL     1      41.399 -14.811   3.640  1.00  0.00    -0.248 NA
HETATM    3  C   UNL     1      40.958 -13.613   4.060  1.00  0.00     0.068 A 
HETATM    4  C   UNL     1      41.621 -12.846   5.037  1.00  0.00     0.008 A 
HETATM    5  C   UNL     1      42.819 -13.399   5.538  1.00  0.00     0.046 A 
HETATM    6  C   UNL     1      43.257 -14.659   5.122  1.00  0.00     0.050 A 
HETATM    7  C   UNL     1      39.786 -13.120   3.501  1.00  0.00     0.032 A 
HETATM    8  C   UNL     1      39.233 -11.899   3.893  1.00  0.00     0.002 A 
HETATM    9  C   UNL     1      39.858 -11.149   4.878  1.00  0.00     0.001 A 
HETATM   10  C   UNL     1      41.039 -11.619   5.453  1.00  0.00     0.015 A 
ENDROOT
BRANCH   5  11
HETATM   11  C   UNL     1      43.717 -12.721   6.506  1.00  0.00     0.252 C 
HETATM   12  N   UNL     1      44.492 -11.697   6.012  1.00  0.00    -0.354 N 
HETATM   13  H   UNL     1      44.494 -11.575   5.005  1.00  0.00     0.162 HD
HETATM   14  O   UNL     1      43.792 -13.148   7.652  1.00  0.00    -0.268 OA
BRANCH  12  15
HETATM   15  C   UNL     1      45.659 -11.165   6.715  1.00  0.00     0.154 C 
BRANCH  15  16
HETATM   16  C   UNL     1      45.358 -10.231   7.904  1.00  0.00     0.132 C 
HETATM   17  C   UNL     1      46.440  -9.169   8.051  1.00  0.00     0.041 C 
BRANCH  16  18
HETATM   18  O   UNL     1      45.337 -10.965   9.129  1.00  0.00    -0.394 OA
HETATM   19  H   UNL     1      45.397 -11.913   8.875  1.00  0.00     0.210 HD
ENDBRANCH  16  18
ENDBRANCH  15  16
ENDBRANCH  12  15
ENDBRANCH   5  11
BRANCH   1  20
HETATM   20  C   UNL     1      42.901 -16.692   3.691  1.00  0.00    -0.007 A 
HETATM   21  C   UNL     1      43.820 -17.485   4.400  1.00  0.00     0.014 A 
HETATM   22  C   UNL     1      44.179 -18.765   3.959  1.00  0.00     0.007 A 
HETATM   23  C   UNL     1      43.636 -19.286   2.784  1.00  0.00    -0.062 A 
HETATM   24  C   UNL     1      43.988 -20.665   2.313  1.00  0.00     0.048 C 
HETATM   25  C   UNL     1      42.725 -18.512   2.062  1.00  0.00     0.007 A 
HETATM   26  C   UNL     1      42.370 -17.234   2.506  1.00  0.00     0.014 A 
ENDBRANCH   1  20
TORSDOF 5
ENDMDL
MODEL 3
REMARK VINA RESULT:      -8.2      2.517      5.288
REMARK  5 active torsions:
REMARK  status: ('A' for Active; 'I' for Inactive)
REMARK    1  A    between atoms: C_5  and  C_6 
REMARK    2  A    between atoms: C_10  and  C_11 
REMARK       I    between atoms: C_11  and  N_12 
REMARK    3  A    between atoms: N_12  and  C_13 
REMARK    4  A    between atoms: C_13  and  C_14 
REMARK    5  A    between atoms: C_14  and  O_15 
ROOT
HETATM    1  C   UNL     1      42.873 -15.710   3.062  1.00  0.00     0.068 A 
HETATM    2  N   UNL     1      42.106 -15.651   1.946  1.00  0.00    -0.248 NA
HETATM    3  C   UNL     1      41.668 -14.464   1.491  1.00  0.00     0.068 A 
HETATM    4  C   UNL     1      41.989 -13.238   2.104  1.00  0.00     0.008 A 
HETATM    5  C   UNL     1      42.842 -13.320   3.225  1.00  0.00     0.046 A 
HETATM    6  C   UNL     1      43.269 -14.557   3.713  1.00  0.00     0.050 A 
HETATM    7  C   UNL     1      40.854 -14.461   0.366  1.00  0.00     0.032 A 
HETATM    8  C   UNL     1      40.327 -13.282  -0.164  1.00  0.00     0.002 A 
HETATM    9  C   UNL     1      40.608 -12.069   0.449  1.00  0.00     0.001 A 
HETATM   10  C   UNL     1      41.426 -12.044   1.578  1.00  0.00     0.015 A 
ENDROOT
BRANCH   5  11
HETATM   11  C   UNL     1      43.372 -12.147   3.965  1.00  0.00     0.252 C 
HETATM   12  N   UNL     1      43.080 -12.085   5.309  1.00  0.00    -0.354 N 
HETATM   13  H   UNL     1      42.415 -12.765   5.660  1.00  0.00     0.162 HD
HETATM   14  O   UNL     1      43.957 -11.265   3.348  1.00  0.00    -0.268 OA
BRANCH  12  15
HETATM   15  C   UNL     1      43.211 -10.862   6.101  1.00  0.00     0.154 C 
BRANCH  15  16
HETATM   16  C   UNL     1      44.193 -10.934   7.288  1.00  0.00     0.132 C 
HETATM   17  C   UNL     1      45.604 -11.248   6.809  1.00  0.00     0.041 C 
BRANCH  16  18
HETATM   18  O   UNL     1      43.823 -11.983   8.184  1.00  0.00    -0.394 OA
HETATM   19  H   UNL     1      42.862 -12.135   8.039  1.00  0.00     0.210 HD
ENDBRANCH  16  18
ENDBRANCH  15  16
ENDBRANCH  12  15
ENDBRANCH   5  11
BRANCH   1  20
HETATM   20  C   UNL     1      43.269 -17.060   3.514  1.00  0.00    -0.007 A 
HETATM   21  C   UNL     1      43.539 -17.318   4.869  1.00  0.00     0.014 A 
HETATM   22  C   UNL     1      43.897 -18.597   5.316  1.00  0.00     0.007 A 
HETATM   23  C   UNL     1      44.009 -19.656   4.414  1.00  0.00    -0.062 A 
HETATM   24  C   UNL     1      44.364 -21.036   4.880  1.00  0.00     0.048 C 
HETATM   25  C   UNL     1      43.750 -19.419   3.062  1.00  0.00     0.007 A 
HETATM   26  C   UNL     1      43.394 -18.140   2.620  1.00  0.00     0.014 A 
ENDBRANCH   1  20
TORSDOF 5
ENDMDL
MODEL 4
REMARK VINA RESULT:      -8.1      1.573      2.276
REMARK  5 active torsions:
REMARK  status: ('A' for Active; 'I' for Inactive)
REMARK    1  A    between atoms: C_5  and  C_6 
REMARK    2  A    between atoms: C_10  and  C_11 
REMARK       I    between atoms: C_11  and  N_12 
REMARK    3  A    between atoms: N_12  and  C_13 
REMARK    4  A    between atoms: C_13  and  C_14 
REMARK    5  A    between atoms: C_14  and  O_15 
ROOT
HETATM    1  C   UNL     1      43.081 -15.182   4.029  1.00  0.00     0.068 A 
HETATM    2  N   UNL     1      43.453 -14.770   5.265  1.00  0.00    -0.248 NA
HETATM    3  C   UNL     1      43.346 -13.473   5.603  1.00  0.00     0.068 A 
HETATM    4  C   UNL     1      42.832 -12.490   4.736  1.00  0.00     0.008 A 
HETATM    5  C   UNL     1      42.392 -12.955   3.479  1.00  0.00     0.046 A 
HETATM    6  C   UNL     1      42.533 -14.297   3.120  1.00  0.00     0.050 A 
HETATM    7  C   UNL     1      43.775 -13.095   6.869  1.00  0.00     0.032 A 
HETATM    8  C   UNL     1      43.732 -11.768   7.301  1.00  0.00     0.002 A 
HETATM    9  C   UNL     1      43.259 -10.784   6.446  1.00  0.00     0.001 A 
HETATM   10  C   UNL     1      42.818 -11.137   5.171  1.00  0.00     0.015 A 
ENDROOT
BRANCH   5  11
HETATM   11  C   UNL     1      41.739 -12.106   2.451  1.00  0.00     0.252 C 
HETATM   12  N   UNL     1      40.439 -12.421   2.128  1.00  0.00    -0.354 N 
HETATM   13  H   UNL     1      40.074 -13.286   2.511  1.00  0.00     0.162 HD
HETATM   14  O   UNL     1      42.396 -11.239   1.886  1.00  0.00    -0.268 OA
BRANCH  12  15
HETATM   15  C   UNL     1      39.773 -11.935   0.920  1.00  0.00     0.154 C 
BRANCH  15  16
HETATM   16  C   UNL     1      40.019 -12.760  -0.360  1.00  0.00     0.132 C 
HETATM   17  C   UNL     1      40.036 -14.251  -0.052  1.00  0.00     0.041 C 
BRANCH  16  18
HETATM   18  O   UNL     1      41.293 -12.445  -0.924  1.00  0.00    -0.394 OA
HETATM   19  H   UNL     1      41.581 -11.611  -0.488  1.00  0.00     0.210 HD
ENDBRANCH  16  18
ENDBRANCH  15  16
ENDBRANCH  12  15
ENDBRANCH   5  11
BRANCH   1  20
HETATM   20  C   UNL     1      43.277 -16.617   3.731  1.00  0.00    -0.007 A 
HETATM   21  C   UNL     1      42.781 -17.182   2.544  1.00  0.00     0.014 A 
HETATM   22  C   UNL     1      42.975 -18.536   2.238  1.00  0.00     0.007 A 
HETATM   23  C   UNL     1      43.662 -19.369   3.121  1.00  0.00    -0.062 A 
HETATM   24  C   UNL     1      43.902 -20.813   2.797  1.00  0.00     0.048 C 
HETATM   25  C   UNL     1      44.159 -18.827   4.309  1.00  0.00     0.007 A 
HETATM   26  C   UNL     1      43.963 -17.475   4.611  1.00  0.00     0.014 A 
ENDBRANCH   1  20
TORSDOF 5
ENDMDL
MODEL 5
REMARK VINA RESULT:      -8.1      1.860      5.670
REMARK  5 active torsions:
REMARK  status: ('A' for Active; 'I' for Inactive)
REMARK    1  A    between atoms: C_5  and  C_6 
REMARK    2  A    between atoms: C_10  and  C_11 
REMARK       I    between atoms: C_11  and  N_12 
REMARK    3  A    between atoms: N_12  and  C_13 
REMARK    4  A    between atoms: C_13  and  C_14 
REMARK    5  A    between atoms: C_14  and  O_15 
ROOT
HETATM    1  C   UNL     1      42.755 -14.449   4.518  1.00  0.00     0.068 A 
HETATM    2  N   UNL     1      43.546 -15.525   4.750  1.00  0.00    -0.248 NA
HETATM    3  C   UNL     1      43.427 -16.626   3.989  1.00  0.00     0.068 A 
HETATM    4  C   UNL     1      42.523 -16.726   2.914  1.00  0.00     0.008 A 
HETATM    5  C   UNL     1      41.757 -15.570   2.651  1.00  0.00     0.046 A 
HETATM    6  C   UNL     1      41.861 -14.440   3.464  1.00  0.00     0.050 A 
HETATM    7  C   UNL     1      44.234 -17.715   4.292  1.00  0.00     0.032 A 
HETATM    8  C   UNL     1      44.162 -18.912   3.577  1.00  0.00     0.002 A 
HETATM    9  C   UNL     1      43.253 -19.036   2.537  1.00  0.00     0.001 A 
HETATM   10  C   UNL     1      42.434 -17.957   2.210  1.00  0.00     0.015 A 
ENDROOT
BRANCH   5  11
HETATM   11  C   UNL     1      40.811 -15.431   1.516  1.00  0.00     0.252 C 
HETATM   12  N   UNL     1      41.262 -14.726   0.422  1.00  0.00    -0.354 N 
HETATM   13  H   UNL     1      42.147 -14.243   0.529  1.00  0.00     0.162 HD
HETATM   14  O   UNL     1      39.669 -15.860   1.632  1.00  0.00    -0.268 OA
BRANCH  12  15
HETATM   15  C   UNL     1      40.374 -14.198  -0.612  1.00  0.00     0.154 C 
BRANCH  15  16
HETATM   16  C   UNL     1      39.748 -12.819  -0.320  1.00  0.00     0.132 C 
HETATM   17  C   UNL     1      40.780 -11.867   0.272  1.00  0.00     0.041 C 
BRANCH  16  18
HETATM   18  O   UNL     1      38.701 -12.936   0.644  1.00  0.00    -0.394 OA
HETATM   19  H   UNL     1      38.493 -13.896   0.701  1.00  0.00     0.210 HD
ENDBRANCH  16  18
ENDBRANCH  15  16
ENDBRANCH  12  15
ENDBRANCH   5  11
BRANCH   1  20
HETATM   20  C   UNL     1      42.924 -13.301   5.434  1.00  0.00    -0.007 A 
HETATM   21  C   UNL     1      43.920 -13.310   6.426  1.00  0.00     0.014 A 
HETATM   22  C   UNL     1      44.105 -12.222   7.289  1.00  0.00     0.007 A 
HETATM   23  C   UNL     1      43.287 -11.096   7.194  1.00  0.00    -0.062 A 
HETATM   24  C   UNL     1      43.490  -9.913   8.092  1.00  0.00     0.048 C 
HETATM   25  C   UNL     1      42.287 -11.070   6.219  1.00  0.00     0.007 A 
HETATM   26  C   UNL     1      42.106 -12.159   5.359  1.00  0.00     0.014 A 
ENDBRANCH   1  20
TORSDOF 5
ENDMDL
MODEL 6
REMARK VINA RESULT:      -7.9      2.149      2.688
REMARK  5 active torsions:
REMARK  status: ('A' for Active; 'I' for Inactive)
REMARK    1  A    between atoms: C_5  and  C_6 
REMARK    2  A    between atoms: C_10  and  C_11 
REMARK       I    between atoms: C_11  and  N_12 
REMARK    3  A    between atoms: N_12  and  C_13 
REMARK    4  A    between atoms: C_13  and  C_14 
REMARK    5  A    between atoms: C_14  and  O_15 
ROOT
HETATM    1  C   UNL     1      41.269 -15.195   2.383  1.00  0.00     0.068 A 
HETATM    2  N   UNL     1      40.717 -14.329   3.267  1.00  0.00    -0.248 NA
HETATM    3  C   UNL     1      39.997 -13.282   2.826  1.00  0.00     0.068 A 
HETATM    4  C   UNL     1      39.750 -13.037   1.462  1.00  0.00     0.008 A 
HETATM    5  C   UNL     1      40.280 -13.989   0.564  1.00  0.00     0.046 A 
HETATM    6  C   UNL     1      41.053 -15.057   1.025  1.00  0.00     0.050 A 
HETATM    7  C   UNL     1      39.485 -12.403   3.771  1.00  0.00     0.032 A 
HETATM    8  C   UNL     1      38.750 -11.272   3.409  1.00  0.00     0.002 A 
HETATM    9  C   UNL     1      38.527 -11.000   2.067  1.00  0.00     0.001 A 
HETATM   10  C   UNL     1      39.028 -11.869   1.099  1.00  0.00     0.015 A 
ENDROOT
BRANCH   5  11
HETATM   11  C   UNL     1      40.066 -13.969  -0.904  1.00  0.00     0.252 C 
HETATM   12  N   UNL     1      40.969 -13.243  -1.647  1.00  0.00    -0.354 N 
HETATM   13  H   UNL     1      41.625 -12.669  -1.129  1.00  0.00     0.162 HD
HETATM   14  O   UNL     1      39.071 -14.512  -1.371  1.00  0.00    -0.268 OA
BRANCH  12  15
HETATM   15  C   UNL     1      40.721 -12.829  -3.028  1.00  0.00     0.154 C 
BRANCH  15  16
HETATM   16  C   UNL     1      39.832 -11.581  -3.204  1.00  0.00     0.132 C 
HETATM   17  C   UNL     1      40.085 -10.571  -2.093  1.00  0.00     0.041 C 
BRANCH  16  18
HETATM   18  O   UNL     1      38.450 -11.933  -3.130  1.00  0.00    -0.394 OA
HETATM   19  H   UNL     1      37.969 -11.094  -2.946  1.00  0.00     0.210 HD
ENDBRANCH  16  18
ENDBRANCH  15  16
ENDBRANCH  12  15
ENDBRANCH   5  11
BRANCH   1  20
HETATM   20  C   UNL     1      42.081 -16.289   2.958  1.00  0.00    -0.007 A 
HETATM   21  C   UNL     1      42.546 -17.343   2.153  1.00  0.00     0.014 A 
HETATM   22  C   UNL     1      43.332 -18.376   2.679  1.00  0.00     0.007 A 
HETATM   23  C   UNL     1      43.667 -18.391   4.033  1.00  0.00    -0.062 A 
HETATM   24  C   UNL     1      44.530 -19.475   4.605  1.00  0.00     0.048 C 
HETATM   25  C   UNL     1      43.210 -17.355   4.851  1.00  0.00     0.007 A 
HETATM   26  C   UNL     1      42.425 -16.326   4.322  1.00  0.00     0.014 A 
ENDBRANCH   1  20
TORSDOF 5
ENDMDL
MODEL 7
REMARK VINA RESULT:      -7.8      3.041      7.201
REMARK  5 active torsions:
REMARK  status: ('A' for Active; 'I' for Inactive)
REMARK    1  A    between atoms: C_5  and  C_6 
REMARK    2  A    between atoms: C_10  and  C_11 
REMARK       I    between atoms: C_11  and  N_12 
REMARK    3  A    between atoms: N_12  and  C_13 
REMARK    4  A    between atoms: C_13  and  C_14 
REMARK    5  A    between atoms: C_14  and  O_15 
ROOT
HETATM    1  C   UNL     1      41.496 -14.792   2.190  1.00  0.00     0.068 A 
HETATM    2  N   UNL     1      41.926 -16.060   1.981  1.00  0.00    -0.248 NA
HETATM    3  C   UNL     1      42.683 -16.676   2.904  1.00  0.00     0.068 A 
HETATM    4  C   UNL     1      43.046 -16.079   4.127  1.00  0.00     0.008 A 
HETATM    5  C   UNL     1      42.533 -14.783   4.350  1.00  0.00     0.046 A 
HETATM    6  C   UNL     1      41.772 -14.135   3.374  1.00  0.00     0.050 A 
HETATM    7  C   UNL     1      43.129 -17.961   2.626  1.00  0.00     0.032 A 
HETATM    8  C   UNL     1      43.944 -18.671   3.509  1.00  0.00     0.002 A 
HETATM    9  C   UNL     1      44.338 -18.082   4.702  1.00  0.00     0.001 A 
HETATM   10  C   UNL     1      43.900 -16.794   5.008  1.00  0.00     0.015 A 
ENDROOT
BRANCH   5  11
HETATM   11  C   UNL     1      42.721 -14.010   5.603  1.00  0.00     0.252 C 
HETATM   12  N   UNL     1      43.363 -12.798   5.486  1.00  0.00    -0.354 N 
HETATM   13  H   UNL     1      43.779 -12.590   4.585  1.00  0.00     0.162 HD
HETATM   14  O   UNL     1      42.384 -14.508   6.670  1.00  0.00    -0.268 OA
BRANCH  12  15
HETATM   15  C   UNL     1      43.936 -12.082   6.625  1.00  0.00     0.154 C 
BRANCH  15  16
HETATM   16  C   UNL     1      45.442 -11.761   6.528  1.00  0.00     0.132 C 
HETATM   17  C   UNL     1      45.845 -10.723   7.567  1.00  0.00     0.041 C 
BRANCH  16  18
HETATM   18  O   UNL     1      45.756 -11.204   5.251  1.00  0.00    -0.394 OA
HETATM   19  H   UNL     1      45.460 -10.267   5.286  1.00  0.00     0.210 HD
ENDBRANCH  16  18
ENDBRANCH  15  16
ENDBRANCH  12  15
ENDBRANCH   5  11
BRANCH   1  20
HETATM   20  C   UNL     1      40.708 -14.179   1.100  1.00  0.00    -0.007 A 
HETATM   21  C   UNL     1      40.207 -14.959   0.044  1.00  0.00     0.014 A 
HETATM   22  C   UNL     1      39.443 -14.396  -0.986  1.00  0.00     0.007 A 
HETATM   23  C   UNL     1      39.168 -13.028  -0.997  1.00  0.00    -0.062 A 
HETATM   24  C   UNL     1      38.329 -12.415  -2.078  1.00  0.00     0.048 C 
HETATM   25  C   UNL     1      39.662 -12.234   0.040  1.00  0.00     0.007 A 
HETATM   26  C   UNL     1      40.425 -12.800   1.067  1.00  0.00     0.014 A 
ENDBRANCH   1  20
TORSDOF 5
ENDMDL
MODEL 8
REMARK VINA RESULT:      -7.8      2.348      4.444
REMARK  5 active torsions:
REMARK  status: ('A' for Active; 'I' for Inactive)
REMARK    1  A    between atoms: C_5  and  C_6 
REMARK    2  A    between atoms: C_10  and  C_11 
REMARK       I    between atoms: C_11  and  N_12 
REMARK    3  A    between atoms: N_12  and  C_13 
REMARK    4  A    between atoms: C_13  and  C_14 
REMARK    5  A    between atoms: C_14  and  O_15 
ROOT
HETATM    1  C   UNL     1      42.660 -15.556   2.853  1.00  0.00     0.068 A 
HETATM    2  N   UNL     1      41.903 -15.607   1.731  1.00  0.00    -0.248 NA
HETATM    3  C   UNL     1      41.378 -14.480   1.219  1.00  0.00     0.068 A 
HETATM    4  C   UNL     1      41.596 -13.206   1.778  1.00  0.00     0.008 A 
HETATM    5  C   UNL     1      42.441 -13.171   2.908  1.00  0.00     0.046 A 
HETATM    6  C   UNL     1      42.957 -14.348   3.455  1.00  0.00     0.050 A 
HETATM    7  C   UNL     1      40.579 -14.591   0.089  1.00  0.00     0.032 A 
HETATM    8  C   UNL     1      39.967 -13.481  -0.497  1.00  0.00     0.002 A 
HETATM    9  C   UNL     1      40.145 -12.225   0.063  1.00  0.00     0.001 A 
HETATM   10  C   UNL     1      40.946 -12.086   1.195  1.00  0.00     0.015 A 
ENDROOT
BRANCH   5  11
HETATM   11  C   UNL     1      42.869 -11.929   3.598  1.00  0.00     0.252 C 
HETATM   12  N   UNL     1      42.073 -11.496   4.635  1.00  0.00    -0.354 N 
HETATM   13  H   UNL     1      41.189 -11.975   4.757  1.00  0.00     0.162 HD
HETATM   14  O   UNL     1      43.837 -11.311   3.172  1.00  0.00    -0.268 OA
BRANCH  12  15
HETATM   15  C   UNL     1      42.139 -10.141   5.183  1.00  0.00     0.154 C 
BRANCH  15  16
HETATM   16  C   UNL     1      41.084  -9.150   4.650  1.00  0.00     0.132 C 
HETATM   17  C   UNL     1      39.928  -9.889   3.989  1.00  0.00     0.041 C 
BRANCH  16  18
HETATM   18  O   UNL     1      41.650  -8.301   3.652  1.00  0.00    -0.394 OA
HETATM   19  H   UNL     1      42.183  -7.632   4.138  1.00  0.00     0.210 HD
ENDBRANCH  16  18
ENDBRANCH  15  16
ENDBRANCH  12  15
ENDBRANCH   5  11
BRANCH   1  20
HETATM   20  C   UNL     1      43.156 -16.850   3.369  1.00  0.00    -0.007 A 
HETATM   21  C   UNL     1      43.513 -17.001   4.720  1.00  0.00     0.014 A 
HETATM   22  C   UNL     1      43.966 -18.225   5.227  1.00  0.00     0.007 A 
HETATM   23  C   UNL     1      44.088 -19.336   4.391  1.00  0.00    -0.062 A 
HETATM   24  C   UNL     1      44.545 -20.660   4.924  1.00  0.00     0.048 C 
HETATM   25  C   UNL     1      43.743 -19.206   3.044  1.00  0.00     0.007 A 
HETATM   26  C   UNL     1      43.292 -17.981   2.541  1.00  0.00     0.014 A 
ENDBRANCH   1  20
TORSDOF 5
ENDMDL
MODEL 9
REMARK VINA RESULT:      -7.7     14.068     17.710
REMARK  5 active torsions:
REMARK  status: ('A' for Active; 'I' for Inactive)
REMARK    1  A    between atoms: C_5  and  C_6 
REMARK    2  A    between atoms: C_10  and  C_11 
REMARK       I    between atoms: C_11  and  N_12 
REMARK    3  A    between atoms: N_12  and  C_13 
REMARK    4  A    between atoms: C_13  and  C_14 
REMARK    5  A    between atoms: C_14  and  O_15 
ROOT
HETATM    1  C   UNL     1      41.659  -7.314  16.029  1.00  0.00     0.068 A 
HETATM    2  N   UNL     1      41.807  -5.974  16.165  1.00  0.00    -0.248 NA
HETATM    3  C   UNL     1      41.403  -5.362  17.291  1.00  0.00     0.068 A 
HETATM    4  C   UNL     1      40.843  -6.051  18.384  1.00  0.00     0.008 A 
HETATM    5  C   UNL     1      40.759  -7.453  18.245  1.00  0.00     0.046 A 
HETATM    6  C   UNL     1      41.152  -8.081  17.061  1.00  0.00     0.050 A 
HETATM    7  C   UNL     1      41.542  -3.982  17.366  1.00  0.00     0.032 A 
HETATM    8  C   UNL     1      41.124  -3.255  18.481  1.00  0.00     0.002 A 
HETATM    9  C   UNL     1      40.540  -3.916  19.552  1.00  0.00     0.001 A 
HETATM   10  C   UNL     1      40.393  -5.301  19.504  1.00  0.00     0.015 A 
ENDROOT
BRANCH   5  11
HETATM   11  C   UNL     1      40.283  -8.375  19.306  1.00  0.00     0.252 C 
HETATM   12  N   UNL     1      41.249  -9.099  19.969  1.00  0.00    -0.354 N 
HETATM   13  H   UNL     1      42.189  -9.051  19.593  1.00  0.00     0.162 HD
HETATM   14  O   UNL     1      39.079  -8.514  19.481  1.00  0.00    -0.268 OA
BRANCH  12  15
HETATM   15  C   UNL     1      40.950 -10.282  20.775  1.00  0.00     0.154 C 
BRANCH  15  16
HETATM   16  C   UNL     1      42.156 -11.176  21.128  1.00  0.00     0.132 C 
HETATM   17  C   UNL     1      43.411 -10.339  21.337  1.00  0.00     0.041 C 
BRANCH  16  18
HETATM   18  O   UNL     1      42.442 -12.080  20.060  1.00  0.00    -0.394 OA
HETATM   19  H   UNL     1      43.397 -12.302  20.144  1.00  0.00     0.210 HD
ENDBRANCH  16  18
ENDBRANCH  15  16
ENDBRANCH  12  15
ENDBRANCH   5  11
BRANCH   1  20
HETATM   20  C   UNL     1      42.090  -7.894  14.738  1.00  0.00    -0.007 A 
HETATM   21  C   UNL     1      43.115  -7.297  13.985  1.00  0.00     0.014 A 
HETATM   22  C   UNL     1      43.547  -7.844  12.770  1.00  0.00     0.007 A 
HETATM   23  C   UNL     1      42.953  -9.002  12.265  1.00  0.00    -0.062 A 
HETATM   24  C   UNL     1      43.422  -9.615  10.980  1.00  0.00     0.048 C 
HETATM   25  C   UNL     1      41.929  -9.607  12.996  1.00  0.00     0.007 A 
HETATM   26  C   UNL     1      41.500  -9.057  14.208  1.00  0.00     0.014 A 
ENDBRANCH   1  20
TORSDOF 5
ENDMDL
MODEL 10
REMARK VINA RESULT:      -7.7      2.782      3.264
REMARK  5 active torsions:
REMARK  status: ('A' for Active; 'I' for Inactive)
REMARK    1  A    between atoms: C_5  and  C_6 
REMARK    2  A    between atoms: C_10  and  C_11 
REMARK       I    between atoms: C_11  and  N_12 
REMARK    3  A    between atoms: N_12  and  C_13 
REMARK    4  A    between atoms: C_13  and  C_14 
REMARK    5  A    between atoms: C_14  and  O_15 
ROOT
HETATM    1  C   UNL     1      42.621 -15.090   4.456  1.00  0.00     0.068 A 
HETATM    2  N   UNL     1      43.516 -14.594   5.346  1.00  0.00    -0.248 NA
HETATM    3  C   UNL     1      43.325 -13.378   5.886  1.00  0.00     0.068 A 
HETATM    4  C   UNL     1      42.205 -12.574   5.600  1.00  0.00     0.008 A 
HETATM    5  C   UNL     1      41.256 -13.140   4.722  1.00  0.00     0.046 A 
HETATM    6  C   UNL     1      41.474 -14.390   4.138  1.00  0.00     0.050 A 
HETATM    7  C   UNL     1      44.289 -12.899   6.763  1.00  0.00     0.032 A 
HETATM    8  C   UNL     1      44.194 -11.637   7.353  1.00  0.00     0.002 A 
HETATM    9  C   UNL     1      43.113 -10.821   7.054  1.00  0.00     0.001 A 
HETATM   10  C   UNL     1      42.129 -11.279   6.179  1.00  0.00     0.015 A 
ENDROOT
BRANCH   5  11
HETATM   11  C   UNL     1      39.967 -12.502   4.355  1.00  0.00     0.252 C 
HETATM   12  N   UNL     1      39.915 -11.884   3.126  1.00  0.00    -0.354 N 
HETATM   13  H   UNL     1      40.793 -11.791   2.628  1.00  0.00     0.162 HD
HETATM   14  O   UNL     1      39.056 -12.478   5.175  1.00  0.00    -0.268 OA
BRANCH  12  15
HETATM   15  C   UNL     1      38.874 -10.926   2.755  1.00  0.00     0.154 C 
BRANCH  15  16
HETATM   16  C   UNL     1      37.822 -11.435   1.748  1.00  0.00     0.132 C 
HETATM   17  C   UNL     1      38.447 -11.672   0.380  1.00  0.00     0.041 C 
BRANCH  16  18
HETATM   18  O   UNL     1      36.792 -10.463   1.563  1.00  0.00    -0.394 OA
HETATM   19  H   UNL     1      36.267 -10.465   2.395  1.00  0.00     0.210 HD
ENDBRANCH  16  18
ENDBRANCH  15  16
ENDBRANCH  12  15
ENDBRANCH   5  11
BRANCH   1  20
HETATM   20  C   UNL     1      42.938 -16.414   3.879  1.00  0.00    -0.007 A 
HETATM   21  C   UNL     1      43.797 -17.305   4.543  1.00  0.00     0.014 A 
HETATM   22  C   UNL     1      44.092 -18.570   4.018  1.00  0.00     0.007 A 
HETATM   23  C   UNL     1      43.543 -18.976   2.801  1.00  0.00    -0.062 A 
HETATM   24  C   UNL     1      43.826 -20.337   2.239  1.00  0.00     0.048 C 
HETATM   25  C   UNL     1      42.690 -18.103   2.122  1.00  0.00     0.007 A 
HETATM   26  C   UNL     1      42.400 -16.840   2.650  1.00  0.00     0.014 A 
ENDBRANCH   1  20
TORSDOF 5
ENDMDL
