MODEL 1
REMARK VINA RESULT:      -7.7      0.000      0.000
REMARK  5 active torsions:
REMARK  status: ('A' for Active; 'I' for Inactive)
REMARK    1  A    between atoms: C_2  and  N_3 
REMARK    2  A    between atoms: N_3  and  C_6 
REMARK    3  A    between atoms: C_6  and  C_7 
REMARK    4  A    between atoms: C_8  and  N_9 
REMARK       I    between atoms: N_9  and  C_10 
REMARK    5  A    between atoms: C_10  and  C_11 
ROOT
HETATM    1  N   UNL     1      41.506 -15.624   2.758  1.00  0.00    -0.322 N 
HETATM    2  C   UNL     1      42.802 -15.592   3.221  1.00  0.00     0.259 C 
HETATM    3  O   UNL     1      43.589 -14.676   3.032  1.00  0.00    -0.267 OA
HETATM    4  H   UNL     1      40.950 -16.371   3.170  1.00  0.00     0.169 HD
ENDROOT
BRANCH   1   5
HETATM    5  C   UNL     1      40.753 -14.634   2.067  1.00  0.00     0.043 A 
HETATM    6  C   UNL     1      40.177 -13.447   2.576  1.00  0.00    -0.006 A 
HETATM    7  C   UNL     1      39.411 -12.643   1.694  1.00  0.00     0.011 A 
HETATM    8  C   UNL     1      39.251 -12.964   0.349  1.00  0.00     0.001 A 
HETATM    9  C   UNL     1      39.861 -14.098  -0.156  1.00  0.00     0.002 A 
HETATM   10  C   UNL     1      40.605 -14.918   0.693  1.00  0.00     0.030 A 
BRANCH   6  11
HETATM   11  C   UNL     1      40.323 -12.891   3.973  1.00  0.00     0.273 C 
BRANCH  11  12
HETATM   12  N   UNL     1      39.713 -13.775   5.007  1.00  0.00    -0.072 N 
HETATM   13  H   UNL     1      39.210 -14.538   4.540  1.00  0.00     0.277 HD
HETATM   14  H   UNL     1      39.012 -13.204   5.488  1.00  0.00     0.277 HD
BRANCH  12  15
HETATM   15  C   UNL     1      40.657 -14.288   6.034  1.00  0.00     0.228 C 
HETATM   16  C   UNL     1      40.268 -15.713   6.373  1.00  0.00     0.034 C 
ENDBRANCH  12  15
ENDBRANCH  11  12
ENDBRANCH   6  11
ENDBRANCH   1   5
BRANCH   2  17
HETATM   17  C   UNL     1      43.219 -16.788   3.916  1.00  0.00     0.067 A 
HETATM   18  C   UNL     1      43.318 -18.137   3.449  1.00  0.00     0.015 A 
HETATM   19  C   UNL     1      43.864 -18.861   4.506  1.00  0.00     0.086 A 
HETATM   20  C   UNL     1      43.057 -18.819   2.244  1.00  0.00     0.015 A 
HETATM   21  C   UNL     1      44.161 -20.220   4.458  1.00  0.00     0.038 A 
HETATM   22  O   UNL     1      44.085 -18.049   5.573  1.00  0.00    -0.321 OA
HETATM   23  C   UNL     1      43.895 -20.874   3.252  1.00  0.00     0.003 A 
HETATM   24  C   UNL     1      43.353 -20.188   2.163  1.00  0.00     0.001 A 
HETATM   25  C   UNL     1      43.713 -16.799   5.205  1.00  0.00     0.160 A 
ENDBRANCH   2  17
TORSDOF 5
ENDMDL
MODEL 2
REMARK VINA RESULT:      -7.7      1.560      2.787
REMARK  5 active torsions:
REMARK  status: ('A' for Active; 'I' for Inactive)
REMARK    1  A    between atoms: C_2  and  N_3 
REMARK    2  A    between atoms: N_3  and  C_6 
REMARK    3  A    between atoms: C_6  and  C_7 
REMARK    4  A    between atoms: C_8  and  N_9 
REMARK       I    between atoms: N_9  and  C_10 
REMARK    5  A    between atoms: C_10  and  C_11 
ROOT
HETATM    1  N   UNL     1      42.539 -14.515   4.032  1.00  0.00    -0.322 N 
HETATM    2  C   UNL     1      43.189 -15.443   3.249  1.00  0.00     0.259 C 
HETATM    3  O   UNL     1      43.452 -15.295   2.064  1.00  0.00    -0.267 OA
HETATM    4  H   UNL     1      42.577 -14.731   5.027  1.00  0.00     0.169 HD
ENDROOT
BRANCH   1   5
HETATM    5  C   UNL     1      42.113 -13.193   3.726  1.00  0.00     0.043 A 
HETATM    6  C   UNL     1      40.908 -12.771   3.117  1.00  0.00    -0.006 A 
HETATM    7  C   UNL     1      40.737 -11.387   2.858  1.00  0.00     0.011 A 
HETATM    8  C   UNL     1      41.692 -10.442   3.223  1.00  0.00     0.001 A 
HETATM    9  C   UNL     1      42.844 -10.854   3.867  1.00  0.00     0.002 A 
HETATM   10  C   UNL     1      43.048 -12.211   4.118  1.00  0.00     0.030 A 
BRANCH   6  11
HETATM   11  C   UNL     1      39.727 -13.635   2.743  1.00  0.00     0.273 C 
BRANCH  11  12
HETATM   12  N   UNL     1      39.488 -13.671   1.272  1.00  0.00    -0.072 N 
HETATM   13  H   UNL     1      39.775 -12.774   0.864  1.00  0.00     0.277 HD
HETATM   14  H   UNL     1      38.473 -13.744   1.153  1.00  0.00     0.277 HD
BRANCH  12  15
HETATM   15  C   UNL     1      40.106 -14.820   0.561  1.00  0.00     0.228 C 
HETATM   16  C   UNL     1      40.030 -16.038   1.462  1.00  0.00     0.034 C 
ENDBRANCH  12  15
ENDBRANCH  11  12
ENDBRANCH   6  11
ENDBRANCH   1   5
BRANCH   2  17
HETATM   17  C   UNL     1      43.494 -16.685   3.921  1.00  0.00     0.067 A 
HETATM   18  C   UNL     1      43.461 -18.029   3.433  1.00  0.00     0.015 A 
HETATM   19  C   UNL     1      43.942 -18.819   4.475  1.00  0.00     0.086 A 
HETATM   20  C   UNL     1      43.129 -18.664   2.219  1.00  0.00     0.015 A 
HETATM   21  C   UNL     1      44.107 -20.199   4.403  1.00  0.00     0.038 A 
HETATM   22  O   UNL     1      44.245 -18.049   5.552  1.00  0.00    -0.321 OA
HETATM   23  C   UNL     1      43.773 -20.805   3.190  1.00  0.00     0.003 A 
HETATM   24  C   UNL     1      43.293 -20.053   2.115  1.00  0.00     0.001 A 
HETATM   25  C   UNL     1      43.992 -16.763   5.207  1.00  0.00     0.160 A 
ENDBRANCH   2  17
TORSDOF 5
ENDMDL
MODEL 3
REMARK VINA RESULT:      -7.6      1.987      6.211
REMARK  5 active torsions:
REMARK  status: ('A' for Active; 'I' for Inactive)
REMARK    1  A    between atoms: C_2  and  N_3 
REMARK    2  A    between atoms: N_3  and  C_6 
REMARK    3  A    between atoms: C_6  and  C_7 
REMARK    4  A    between atoms: C_8  and  N_9 
REMARK       I    between atoms: N_9  and  C_10 
REMARK    5  A    between atoms: C_10  and  C_11 
ROOT
HETATM    1  N   UNL     1      42.995 -16.837   2.742  1.00  0.00    -0.322 N 
HETATM    2  C   UNL     1      41.927 -16.041   3.091  1.00  0.00     0.259 C 
HETATM    3  O   UNL     1      41.025 -16.374   3.845  1.00  0.00    -0.267 OA
HETATM    4  H   UNL     1      43.735 -16.329   2.261  1.00  0.00     0.169 HD
ENDROOT
BRANCH   1   5
HETATM    5  C   UNL     1      43.363 -18.132   3.200  1.00  0.00     0.043 A 
HETATM    6  C   UNL     1      43.867 -18.511   4.466  1.00  0.00    -0.006 A 
HETATM    7  C   UNL     1      44.224 -19.869   4.666  1.00  0.00     0.011 A 
HETATM    8  C   UNL     1      44.050 -20.834   3.677  1.00  0.00     0.001 A 
HETATM    9  C   UNL     1      43.506 -20.468   2.460  1.00  0.00     0.002 A 
HETATM   10  C   UNL     1      43.164 -19.136   2.228  1.00  0.00     0.030 A 
BRANCH   6  11
HETATM   11  C   UNL     1      44.031 -17.628   5.681  1.00  0.00     0.273 C 
BRANCH  11  12
HETATM   12  N   UNL     1      42.729 -17.302   6.330  1.00  0.00    -0.072 N 
HETATM   13  H   UNL     1      42.449 -18.084   6.932  1.00  0.00     0.277 HD
HETATM   14  H   UNL     1      42.042 -17.247   5.572  1.00  0.00     0.277 HD
BRANCH  12  15
HETATM   15  C   UNL     1      42.696 -16.007   7.060  1.00  0.00     0.228 C 
HETATM   16  C   UNL     1      43.594 -15.025   6.333  1.00  0.00     0.034 C 
ENDBRANCH  12  15
ENDBRANCH  11  12
ENDBRANCH   6  11
ENDBRANCH   1   5
BRANCH   2  17
HETATM   17  C   UNL     1      41.898 -14.755   2.431  1.00  0.00     0.067 A 
HETATM   18  C   UNL     1      41.178 -14.332   1.270  1.00  0.00     0.015 A 
HETATM   19  C   UNL     1      41.444 -12.972   1.138  1.00  0.00     0.086 A 
HETATM   20  C   UNL     1      40.295 -14.927   0.347  1.00  0.00     0.015 A 
HETATM   21  C   UNL     1      40.905 -12.158   0.146  1.00  0.00     0.038 A 
HETATM   22  O   UNL     1      42.280 -12.555   2.124  1.00  0.00    -0.321 OA
HETATM   23  C   UNL     1      40.032 -12.770  -0.757  1.00  0.00     0.003 A 
HETATM   24  C   UNL     1      39.730 -14.130  -0.660  1.00  0.00     0.001 A 
HETATM   25  C   UNL     1      42.534 -13.628   2.911  1.00  0.00     0.160 A 
ENDBRANCH   2  17
TORSDOF 5
ENDMDL
MODEL 4
REMARK VINA RESULT:      -7.6      1.320      3.363
REMARK  5 active torsions:
REMARK  status: ('A' for Active; 'I' for Inactive)
REMARK    1  A    between atoms: C_2  and  N_3 
REMARK    2  A    between atoms: N_3  and  C_6 
REMARK    3  A    between atoms: C_6  and  C_7 
REMARK    4  A    between atoms: C_8  and  N_9 
REMARK       I    between atoms: N_9  and  C_10 
REMARK    5  A    between atoms: C_10  and  C_11 
ROOT
HETATM    1  N   UNL     1      41.393 -15.197   3.324  1.00  0.00    -0.322 N 
HETATM    2  C   UNL     1      42.728 -15.467   3.115  1.00  0.00     0.259 C 
HETATM    3  O   UNL     1      43.462 -14.828   2.376  1.00  0.00    -0.267 OA
HETATM    4  H   UNL     1      40.997 -15.712   4.108  1.00  0.00     0.169 HD
ENDROOT
BRANCH   1   5
HETATM    5  C   UNL     1      40.589 -14.125   2.848  1.00  0.00     0.043 A 
HETATM    6  C   UNL     1      40.194 -13.837   1.521  1.00  0.00    -0.006 A 
HETATM    7  C   UNL     1      39.434 -12.663   1.287  1.00  0.00     0.011 A 
HETATM    8  C   UNL     1      39.032 -11.822   2.323  1.00  0.00     0.001 A 
HETATM    9  C   UNL     1      39.374 -12.138   3.625  1.00  0.00     0.002 A 
HETATM   10  C   UNL     1      40.138 -13.276   3.882  1.00  0.00     0.030 A 
BRANCH   6  11
HETATM   11  C   UNL     1      40.452 -14.678   0.293  1.00  0.00     0.273 C 
BRANCH  11  12
HETATM   12  N   UNL     1      39.331 -14.615  -0.688  1.00  0.00    -0.072 N 
HETATM   13  H   UNL     1      38.620 -13.960  -0.343  1.00  0.00     0.277 HD
HETATM   14  H   UNL     1      38.905 -15.546  -0.691  1.00  0.00     0.277 HD
BRANCH  12  15
HETATM   15  C   UNL     1      39.734 -14.302  -2.085  1.00  0.00     0.228 C 
HETATM   16  C   UNL     1      38.655 -14.815  -3.020  1.00  0.00     0.034 C 
ENDBRANCH  12  15
ENDBRANCH  11  12
ENDBRANCH   6  11
ENDBRANCH   1   5
BRANCH   2  17
HETATM   17  C   UNL     1      43.213 -16.645   3.797  1.00  0.00     0.067 A 
HETATM   18  C   UNL     1      43.286 -18.003   3.353  1.00  0.00     0.015 A 
HETATM   19  C   UNL     1      43.926 -18.699   4.375  1.00  0.00     0.086 A 
HETATM   20  C   UNL     1      42.932 -18.713   2.188  1.00  0.00     0.015 A 
HETATM   21  C   UNL     1      44.231 -20.056   4.330  1.00  0.00     0.038 A 
HETATM   22  O   UNL     1      44.228 -17.862   5.401  1.00  0.00    -0.321 OA
HETATM   23  C   UNL     1      43.871 -20.739   3.165  1.00  0.00     0.003 A 
HETATM   24  C   UNL     1      43.233 -20.081   2.112  1.00  0.00     0.001 A 
HETATM   25  C   UNL     1      43.814 -16.623   5.040  1.00  0.00     0.160 A 
ENDBRANCH   2  17
TORSDOF 5
ENDMDL
MODEL 5
REMARK VINA RESULT:      -7.4      2.052      6.341
REMARK  5 active torsions:
REMARK  status: ('A' for Active; 'I' for Inactive)
REMARK    1  A    between atoms: C_2  and  N_3 
REMARK    2  A    between atoms: N_3  and  C_6 
REMARK    3  A    between atoms: C_6  and  C_7 
REMARK    4  A    between atoms: C_8  and  N_9 
REMARK       I    between atoms: N_9  and  C_10 
REMARK    5  A    between atoms: C_10  and  C_11 
ROOT
HETATM    1  N   UNL     1      42.335 -15.734   1.790  1.00  0.00    -0.322 N 
HETATM    2  C   UNL     1      41.049 -15.249   1.704  1.00  0.00     0.259 C 
HETATM    3  O   UNL     1      40.096 -15.680   2.336  1.00  0.00    -0.267 OA
HETATM    4  H   UNL     1      43.023 -15.134   1.339  1.00  0.00     0.169 HD
ENDROOT
BRANCH   1   5
HETATM    5  C   UNL     1      42.885 -16.731   2.644  1.00  0.00     0.043 A 
HETATM    6  C   UNL     1      43.245 -16.626   4.007  1.00  0.00    -0.006 A 
HETATM    7  C   UNL     1      43.838 -17.753   4.632  1.00  0.00     0.011 A 
HETATM    8  C   UNL     1      44.031 -18.957   3.959  1.00  0.00     0.001 A 
HETATM    9  C   UNL     1      43.626 -19.070   2.642  1.00  0.00     0.002 A 
HETATM   10  C   UNL     1      43.058 -17.973   1.996  1.00  0.00     0.030 A 
BRANCH   6  11
HETATM   11  C   UNL     1      43.024 -15.441   4.918  1.00  0.00     0.273 C 
BRANCH  11  12
HETATM   12  N   UNL     1      41.591 -15.265   5.287  1.00  0.00    -0.072 N 
HETATM   13  H   UNL     1      41.004 -15.733   4.587  1.00  0.00     0.277 HD
HETATM   14  H   UNL     1      41.402 -14.260   5.214  1.00  0.00     0.277 HD
BRANCH  12  15
HETATM   15  C   UNL     1      41.239 -15.687   6.669  1.00  0.00     0.228 C 
HETATM   16  C   UNL     1      42.511 -15.731   7.493  1.00  0.00     0.034 C 
ENDBRANCH  12  15
ENDBRANCH  11  12
ENDBRANCH   6  11
ENDBRANCH   1   5
BRANCH   2  17
HETATM   17  C   UNL     1      40.870 -14.199   0.727  1.00  0.00     0.067 A 
HETATM   18  C   UNL     1      40.154 -14.204  -0.511  1.00  0.00     0.015 A 
HETATM   19  C   UNL     1      40.232 -12.901  -0.996  1.00  0.00     0.086 A 
HETATM   20  C   UNL     1      39.409 -15.143  -1.252  1.00  0.00     0.015 A 
HETATM   21  C   UNL     1      39.632 -12.463  -2.172  1.00  0.00     0.038 A 
HETATM   22  O   UNL     1      40.953 -12.122  -0.147  1.00  0.00    -0.321 OA
HETATM   23  C   UNL     1      38.898 -13.411  -2.889  1.00  0.00     0.003 A 
HETATM   24  C   UNL     1      38.787 -14.728  -2.439  1.00  0.00     0.001 A 
HETATM   25  C   UNL     1      41.318 -12.904   0.898  1.00  0.00     0.160 A 
ENDBRANCH   2  17
TORSDOF 5
ENDMDL
MODEL 6
REMARK VINA RESULT:      -7.1      1.754      2.274
REMARK  5 active torsions:
REMARK  status: ('A' for Active; 'I' for Inactive)
REMARK    1  A    between atoms: C_2  and  N_3 
REMARK    2  A    between atoms: N_3  and  C_6 
REMARK    3  A    between atoms: C_6  and  C_7 
REMARK    4  A    between atoms: C_8  and  N_9 
REMARK       I    between atoms: N_9  and  C_10 
REMARK    5  A    between atoms: C_10  and  C_11 
ROOT
HETATM    1  N   UNL     1      41.495 -14.675   4.201  1.00  0.00    -0.322 N 
HETATM    2  C   UNL     1      42.707 -15.072   3.681  1.00  0.00     0.259 C 
HETATM    3  O   UNL     1      43.320 -14.478   2.807  1.00  0.00    -0.267 OA
HETATM    4  H   UNL     1      41.232 -15.183   5.043  1.00  0.00     0.169 HD
ENDROOT
BRANCH   1   5
HETATM    5  C   UNL     1      40.728 -13.504   3.949  1.00  0.00     0.043 A 
HETATM    6  C   UNL     1      40.670 -12.307   4.700  1.00  0.00    -0.006 A 
HETATM    7  C   UNL     1      39.774 -11.293   4.278  1.00  0.00     0.011 A 
HETATM    8  C   UNL     1      38.992 -11.426   3.133  1.00  0.00     0.001 A 
HETATM    9  C   UNL     1      39.092 -12.576   2.372  1.00  0.00     0.002 A 
HETATM   10  C   UNL     1      39.952 -13.598   2.774  1.00  0.00     0.030 A 
BRANCH   6  11
HETATM   11  C   UNL     1      41.508 -11.948   5.905  1.00  0.00     0.273 C 
BRANCH  11  12
HETATM   12  N   UNL     1      42.686 -11.104   5.551  1.00  0.00    -0.072 N 
HETATM   13  H   UNL     1      42.756 -10.329   6.220  1.00  0.00     0.277 HD
HETATM   14  H   UNL     1      42.474 -10.693   4.637  1.00  0.00     0.277 HD
BRANCH  12  15
HETATM   15  C   UNL     1      43.972 -11.839   5.425  1.00  0.00     0.228 C 
HETATM   16  C   UNL     1      44.047 -12.867   6.537  1.00  0.00     0.034 C 
ENDBRANCH  12  15
ENDBRANCH  11  12
ENDBRANCH   6  11
ENDBRANCH   1   5
BRANCH   2  17
HETATM   17  C   UNL     1      43.200 -16.325   4.205  1.00  0.00     0.067 A 
HETATM   18  C   UNL     1      43.265 -17.618   3.595  1.00  0.00     0.015 A 
HETATM   19  C   UNL     1      43.918 -18.435   4.514  1.00  0.00     0.086 A 
HETATM   20  C   UNL     1      42.893 -18.178   2.357  1.00  0.00     0.015 A 
HETATM   21  C   UNL     1      44.220 -19.776   4.297  1.00  0.00     0.038 A 
HETATM   22  O   UNL     1      44.235 -17.731   5.632  1.00  0.00    -0.321 OA
HETATM   23  C   UNL     1      43.843 -20.309   3.062  1.00  0.00     0.003 A 
HETATM   24  C   UNL     1      43.192 -19.526   2.107  1.00  0.00     0.001 A 
HETATM   25  C   UNL     1      43.818 -16.458   5.433  1.00  0.00     0.160 A 
ENDBRANCH   2  17
TORSDOF 5
ENDMDL
MODEL 7
REMARK VINA RESULT:      -7.0      3.064      6.578
REMARK  5 active torsions:
REMARK  status: ('A' for Active; 'I' for Inactive)
REMARK    1  A    between atoms: C_2  and  N_3 
REMARK    2  A    between atoms: N_3  and  C_6 
REMARK    3  A    between atoms: C_6  and  C_7 
REMARK    4  A    between atoms: C_8  and  N_9 
REMARK       I    between atoms: N_9  and  C_10 
REMARK    5  A    between atoms: C_10  and  C_11 
ROOT
HETATM    1  N   UNL     1      42.700 -14.880   4.536  1.00  0.00    -0.322 N 
HETATM    2  C   UNL     1      42.951 -13.593   4.112  1.00  0.00     0.259 C 
HETATM    3  O   UNL     1      43.464 -13.298   3.043  1.00  0.00    -0.267 OA
HETATM    4  H   UNL     1      42.102 -14.922   5.359  1.00  0.00     0.169 HD
ENDROOT
BRANCH   1   5
HETATM    5  C   UNL     1      42.868 -16.118   3.858  1.00  0.00     0.043 A 
HETATM    6  C   UNL     1      42.176 -16.607   2.725  1.00  0.00    -0.006 A 
HETATM    7  C   UNL     1      42.482 -17.913   2.264  1.00  0.00     0.011 A 
HETATM    8  C   UNL     1      43.463 -18.698   2.863  1.00  0.00     0.001 A 
HETATM    9  C   UNL     1      44.174 -18.195   3.937  1.00  0.00     0.002 A 
HETATM   10  C   UNL     1      43.882 -16.921   4.423  1.00  0.00     0.030 A 
BRANCH   6  11
HETATM   11  C   UNL     1      41.157 -15.865   1.892  1.00  0.00     0.273 C 
BRANCH  11  12
HETATM   12  N   UNL     1      41.786 -14.919   0.927  1.00  0.00    -0.072 N 
HETATM   13  H   UNL     1      41.975 -15.414   0.048  1.00  0.00     0.277 HD
HETATM   14  H   UNL     1      42.694 -14.667   1.330  1.00  0.00     0.277 HD
BRANCH  12  15
HETATM   15  C   UNL     1      41.032 -13.659   0.697  1.00  0.00     0.228 C 
HETATM   16  C   UNL     1      39.972 -13.533   1.773  1.00  0.00     0.034 C 
ENDBRANCH  12  15
ENDBRANCH  11  12
ENDBRANCH   6  11
ENDBRANCH   1   5
BRANCH   2  17
HETATM   17  C   UNL     1      42.622 -12.570   5.078  1.00  0.00     0.067 A 
HETATM   18  C   UNL     1      43.434 -11.957   6.084  1.00  0.00     0.015 A 
HETATM   19  C   UNL     1      42.637 -10.972   6.661  1.00  0.00     0.086 A 
HETATM   20  C   UNL     1      44.761 -12.087   6.539  1.00  0.00     0.015 A 
HETATM   21  C   UNL     1      43.059 -10.109   7.668  1.00  0.00     0.038 A 
HETATM   22  O   UNL     1      41.406 -10.960   6.085  1.00  0.00    -0.321 OA
HETATM   23  C   UNL     1      44.379 -10.255   8.102  1.00  0.00     0.003 A 
HETATM   24  C   UNL     1      45.217 -11.226   7.549  1.00  0.00     0.001 A 
HETATM   25  C   UNL     1      41.409 -11.911   5.120  1.00  0.00     0.160 A 
ENDBRANCH   2  17
TORSDOF 5
ENDMDL
MODEL 8
REMARK VINA RESULT:      -6.9      2.531      6.517
REMARK  5 active torsions:
REMARK  status: ('A' for Active; 'I' for Inactive)
REMARK    1  A    between atoms: C_2  and  N_3 
REMARK    2  A    between atoms: N_3  and  C_6 
REMARK    3  A    between atoms: C_6  and  C_7 
REMARK    4  A    between atoms: C_8  and  N_9 
REMARK       I    between atoms: N_9  and  C_10 
REMARK    5  A    between atoms: C_10  and  C_11 
ROOT
HETATM    1  N   UNL     1      43.586 -16.137   4.723  1.00  0.00    -0.322 N 
HETATM    2  C   UNL     1      42.533 -15.369   5.167  1.00  0.00     0.259 C 
HETATM    3  O   UNL     1      41.354 -15.610   4.954  1.00  0.00    -0.267 OA
HETATM    4  H   UNL     1      44.475 -15.888   5.154  1.00  0.00     0.169 HD
ENDROOT
BRANCH   1   5
HETATM    5  C   UNL     1      43.588 -17.379   4.029  1.00  0.00     0.043 A 
HETATM    6  C   UNL     1      43.124 -17.663   2.724  1.00  0.00    -0.006 A 
HETATM    7  C   UNL     1      43.176 -19.006   2.271  1.00  0.00     0.011 A 
HETATM    8  C   UNL     1      43.707 -20.030   3.052  1.00  0.00     0.001 A 
HETATM    9  C   UNL     1      44.209 -19.737   4.307  1.00  0.00     0.002 A 
HETATM   10  C   UNL     1      44.153 -18.428   4.785  1.00  0.00     0.030 A 
BRANCH   6  11
HETATM   11  C   UNL     1      42.610 -16.672   1.706  1.00  0.00     0.273 C 
BRANCH  11  12
HETATM   12  N   UNL     1      43.615 -15.622   1.373  1.00  0.00    -0.072 N 
HETATM   13  H   UNL     1      43.797 -15.641   0.363  1.00  0.00     0.277 HD
HETATM   14  H   UNL     1      44.482 -15.903   1.839  1.00  0.00     0.277 HD
BRANCH  12  15
HETATM   15  C   UNL     1      43.276 -14.254   1.844  1.00  0.00     0.228 C 
HETATM   16  C   UNL     1      41.796 -14.018   1.605  1.00  0.00     0.034 C 
ENDBRANCH  12  15
ENDBRANCH  11  12
ENDBRANCH   6  11
ENDBRANCH   1   5
BRANCH   2  17
HETATM   17  C   UNL     1      42.923 -14.169   5.872  1.00  0.00     0.067 A 
HETATM   18  C   UNL     1      42.579 -12.803   5.626  1.00  0.00     0.015 A 
HETATM   19  C   UNL     1      43.152 -12.077   6.667  1.00  0.00     0.086 A 
HETATM   20  C   UNL     1      41.810 -12.102   4.675  1.00  0.00     0.015 A 
HETATM   21  C   UNL     1      43.028 -10.701   6.828  1.00  0.00     0.038 A 
HETATM   22  O   UNL     1      43.825 -12.906   7.508  1.00  0.00    -0.321 OA
HETATM   23  C   UNL     1      42.260 -10.028   5.874  1.00  0.00     0.003 A 
HETATM   24  C   UNL     1      41.660 -10.714   4.816  1.00  0.00     0.001 A 
HETATM   25  C   UNL     1      43.667 -14.166   7.035  1.00  0.00     0.160 A 
ENDBRANCH   2  17
TORSDOF 5
ENDMDL
MODEL 9
REMARK VINA RESULT:      -6.9      2.227      6.517
REMARK  5 active torsions:
REMARK  status: ('A' for Active; 'I' for Inactive)
REMARK    1  A    between atoms: C_2  and  N_3 
REMARK    2  A    between atoms: N_3  and  C_6 
REMARK    3  A    between atoms: C_6  and  C_7 
REMARK    4  A    between atoms: C_8  and  N_9 
REMARK       I    between atoms: N_9  and  C_10 
REMARK    5  A    between atoms: C_10  and  C_11 
ROOT
HETATM    1  N   UNL     1      42.299 -15.751   2.011  1.00  0.00    -0.322 N 
HETATM    2  C   UNL     1      40.974 -15.384   1.935  1.00  0.00     0.259 C 
HETATM    3  O   UNL     1      40.062 -15.935   2.534  1.00  0.00    -0.267 OA
HETATM    4  H   UNL     1      42.930 -15.066   1.598  1.00  0.00     0.169 HD
ENDROOT
BRANCH   1   5
HETATM    5  C   UNL     1      42.935 -16.735   2.818  1.00  0.00     0.043 A 
HETATM    6  C   UNL     1      43.391 -16.624   4.152  1.00  0.00    -0.006 A 
HETATM    7  C   UNL     1      44.056 -17.736   4.728  1.00  0.00     0.011 A 
HETATM    8  C   UNL     1      44.230 -18.933   4.038  1.00  0.00     0.001 A 
HETATM    9  C   UNL     1      43.734 -19.054   2.753  1.00  0.00     0.002 A 
HETATM   10  C   UNL     1      43.092 -17.970   2.155  1.00  0.00     0.030 A 
BRANCH   6  11
HETATM   11  C   UNL     1      43.206 -15.447   5.081  1.00  0.00     0.273 C 
BRANCH  11  12
HETATM   12  N   UNL     1      41.810 -15.336   5.592  1.00  0.00    -0.072 N 
HETATM   13  H   UNL     1      41.173 -15.789   4.926  1.00  0.00     0.277 HD
HETATM   14  H   UNL     1      41.586 -14.336   5.587  1.00  0.00     0.277 HD
BRANCH  12  15
HETATM   15  C   UNL     1      41.603 -15.835   6.976  1.00  0.00     0.228 C 
HETATM   16  C   UNL     1      42.879 -15.603   7.764  1.00  0.00     0.034 C 
ENDBRANCH  12  15
ENDBRANCH  11  12
ENDBRANCH   6  11
ENDBRANCH   1   5
BRANCH   2  17
HETATM   17  C   UNL     1      40.703 -14.306   1.012  1.00  0.00     0.067 A 
HETATM   18  C   UNL     1      41.033 -12.917   1.096  1.00  0.00     0.015 A 
HETATM   19  C   UNL     1      40.618 -12.359  -0.111  1.00  0.00     0.086 A 
HETATM   20  C   UNL     1      41.677 -12.078   2.027  1.00  0.00     0.015 A 
HETATM   21  C   UNL     1      40.787 -11.021  -0.457  1.00  0.00     0.038 A 
HETATM   22  O   UNL     1      40.053 -13.307  -0.902  1.00  0.00    -0.321 OA
HETATM   23  C   UNL     1      41.429 -10.210   0.482  1.00  0.00     0.003 A 
HETATM   24  C   UNL     1      41.867 -10.726   1.702  1.00  0.00     0.001 A 
HETATM   25  C   UNL     1      40.124 -14.482  -0.229  1.00  0.00     0.160 A 
ENDBRANCH   2  17
TORSDOF 5
ENDMDL
MODEL 10
REMARK VINA RESULT:      -6.9      1.965      6.246
REMARK  5 active torsions:
REMARK  status: ('A' for Active; 'I' for Inactive)
REMARK    1  A    between atoms: C_2  and  N_3 
REMARK    2  A    between atoms: N_3  and  C_6 
REMARK    3  A    between atoms: C_6  and  C_7 
REMARK    4  A    between atoms: C_8  and  N_9 
REMARK       I    between atoms: N_9  and  C_10 
REMARK    5  A    between atoms: C_10  and  C_11 
ROOT
HETATM    1  N   UNL     1      42.108 -15.708   2.913  1.00  0.00    -0.322 N 
HETATM    2  C   UNL     1      40.763 -15.437   3.022  1.00  0.00     0.259 C 
HETATM    3  O   UNL     1      39.954 -16.139   3.611  1.00  0.00    -0.267 OA
HETATM    4  H   UNL     1      42.650 -14.923   2.555  1.00  0.00     0.169 HD
ENDROOT
BRANCH   1   5
HETATM    5  C   UNL     1      42.884 -16.750   3.493  1.00  0.00     0.043 A 
HETATM    6  C   UNL     1      43.264 -16.923   4.844  1.00  0.00    -0.006 A 
HETATM    7  C   UNL     1      44.101 -18.021   5.170  1.00  0.00     0.011 A 
HETATM    8  C   UNL     1      44.517 -18.944   4.214  1.00  0.00     0.001 A 
HETATM    9  C   UNL     1      44.099 -18.801   2.904  1.00  0.00     0.002 A 
HETATM   10  C   UNL     1      43.290 -17.720   2.551  1.00  0.00     0.030 A 
BRANCH   6  11
HETATM   11  C   UNL     1      42.832 -16.085   6.024  1.00  0.00     0.273 C 
BRANCH  11  12
HETATM   12  N   UNL     1      43.814 -15.011   6.351  1.00  0.00    -0.072 N 
HETATM   13  H   UNL     1      44.715 -15.235   5.913  1.00  0.00     0.277 HD
HETATM   14  H   UNL     1      43.955 -15.056   7.365  1.00  0.00     0.277 HD
BRANCH  12  15
HETATM   15  C   UNL     1      43.371 -13.631   6.021  1.00  0.00     0.228 C 
HETATM   16  C   UNL     1      41.857 -13.585   6.090  1.00  0.00     0.034 C 
ENDBRANCH  12  15
ENDBRANCH  11  12
ENDBRANCH   6  11
ENDBRANCH   1   5
BRANCH   2  17
HETATM   17  C   UNL     1      40.331 -14.257   2.309  1.00  0.00     0.067 A 
HETATM   18  C   UNL     1      39.966 -14.092   0.935  1.00  0.00     0.015 A 
HETATM   19  C   UNL     1      39.541 -12.771   0.815  1.00  0.00     0.086 A 
HETATM   20  C   UNL     1      39.898 -14.917  -0.206  1.00  0.00     0.015 A 
HETATM   21  C   UNL     1      39.063 -12.204  -0.362  1.00  0.00     0.038 A 
HETATM   22  O   UNL     1      39.639 -12.132   2.010  1.00  0.00    -0.321 OA
HETATM   23  C   UNL     1      39.003 -13.041  -1.479  1.00  0.00     0.003 A 
HETATM   24  C   UNL     1      39.412 -14.374  -1.405  1.00  0.00     0.001 A 
HETATM   25  C   UNL     1      40.097 -13.035   2.909  1.00  0.00     0.160 A 
ENDBRANCH   2  17
TORSDOF 5
ENDMDL
