MODEL 1
REMARK VINA RESULT:     -10.1      0.000      0.000
REMARK  8 active torsions:
REMARK  status: ('A' for Active; 'I' for Inactive)
REMARK    1  A    between atoms: C_2  and  N_3 
REMARK    2  A    between atoms: C_2  and  C_34 
REMARK       I    between atoms: N_3  and  C_4 
REMARK    3  A    between atoms: C_4  and  C_5 
REMARK    4  A    between atoms: C_5  and  N_6 
REMARK       I    between atoms: N_12  and  C_13 
REMARK    5  A    between atoms: C_13  and  C_14 
REMARK    6  A    between atoms: C_14  and  O_15 
REMARK    7  A    between atoms: O_15  and  C_16 
REMARK    8  A    between atoms: N_25  and  C_26 
ROOT
HETATM    1  N   UNL     1      40.461 -10.235   7.035  1.00  0.00    -0.325 N 
HETATM    2  C   UNL     1      40.652 -11.382   6.294  1.00  0.00     0.250 C 
HETATM    3  O   UNL     1      39.755 -12.101   5.877  1.00  0.00    -0.270 OA
HETATM    4  C   UNL     1      42.170 -11.592   6.103  1.00  0.00     0.118 C 
HETATM    5  C   UNL     1      42.492 -11.328   4.626  1.00  0.00     0.061 C 
HETATM    6  C   UNL     1      42.089 -12.491   3.725  1.00  0.00     0.129 C 
HETATM    7  N   UNL     1      42.557 -13.773   4.244  1.00  0.00    -0.350 N 
HETATM    8  C   UNL     1      42.990 -14.732   3.325  1.00  0.00     0.244 C 
HETATM    9  O   UNL     1      43.048 -14.501   2.114  1.00  0.00    -0.271 OA
HETATM   10  C   UNL     1      42.128 -14.092   5.602  1.00  0.00     0.129 C 
HETATM   11  C   UNL     1      42.515 -13.003   6.597  1.00  0.00     0.061 C 
HETATM   12  N   UNL     1      42.738 -10.537   6.991  1.00  0.00    -0.346 N 
HETATM   13  C   UNL     1      41.682  -9.727   7.586  1.00  0.00     0.254 C 
ENDROOT
BRANCH  12  14
HETATM   14  C   UNL     1      44.062 -10.286   7.303  1.00  0.00     0.032 A 
HETATM   15  C   UNL     1      44.471  -9.245   8.150  1.00  0.00     0.029 A 
HETATM   16  C   UNL     1      45.820  -8.993   8.445  1.00  0.00     0.002 A 
HETATM   17  C   UNL     1      46.816  -9.786   7.897  1.00  0.00     0.000 A 
HETATM   18  C   UNL     1      46.458 -10.832   7.061  1.00  0.00     0.002 A 
HETATM   19  C   UNL     1      45.107 -11.074   6.777  1.00  0.00     0.029 A 
ENDBRANCH  12  14
BRANCH   1  20
HETATM   20  C   UNL     1      39.162  -9.908   7.602  1.00  0.00     0.230 C 
BRANCH  20  21
HETATM   21  C   UNL     1      39.144  -9.272   9.000  1.00  0.00     0.236 C 
HETATM   22  N   UNL     1      39.591 -10.110  10.000  1.00  0.00    -0.351 N 
HETATM   23  H   UNL     1      39.834 -11.068   9.785  1.00  0.00     0.163 HD
HETATM   24  O   UNL     1      38.831  -8.103   9.208  1.00  0.00    -0.272 OA
BRANCH  22  25
HETATM   25  C   UNL     1      39.640  -9.683  11.391  1.00  0.00     0.113 C 
HETATM   26  C   UNL     1      39.197 -10.805  12.334  1.00  0.00     0.037 C 
BRANCH  25  27
HETATM   27  C   UNL     1      41.026  -9.174  11.742  1.00  0.00    -0.036 A 
HETATM   28  C   UNL     1      41.170  -7.959  12.431  1.00  0.00     0.009 A 
HETATM   29  C   UNL     1      42.435  -7.480  12.775  1.00  0.00     0.001 A 
HETATM   30  C   UNL     1      43.574  -8.204  12.431  1.00  0.00     0.000 A 
HETATM   31  C   UNL     1      43.449  -9.408  11.742  1.00  0.00     0.001 A 
HETATM   32  C   UNL     1      42.184  -9.892  11.400  1.00  0.00     0.009 A 
ENDBRANCH  25  27
ENDBRANCH  22  25
ENDBRANCH  20  21
ENDBRANCH   1  20
BRANCH   8  33
HETATM   33  C   UNL     1      43.392 -16.111   3.853  1.00  0.00     0.278 C 
BRANCH  33  34
HETATM   34  O   UNL     1      43.578 -17.005   2.759  1.00  0.00    -0.342 OA
BRANCH  34  35
HETATM   35  C   UNL     1      43.705 -18.320   3.110  1.00  0.00     0.069 A 
HETATM   36  C   UNL     1      43.436 -19.395   2.263  1.00  0.00     0.037 A 
HETATM   37  C   UNL     1      43.573 -20.704   2.732  1.00  0.00     0.003 A 
HETATM   38  C   UNL     1      43.971 -20.940   4.048  1.00  0.00     0.000 A 
HETATM   39  C   UNL     1      44.223 -19.867   4.900  1.00  0.00     0.003 A 
HETATM   40  C   UNL     1      44.080 -18.560   4.433  1.00  0.00     0.037 A 
ENDBRANCH  34  35
ENDBRANCH  33  34
ENDBRANCH   8  33
TORSDOF 8
ENDMDL
MODEL 2
REMARK VINA RESULT:      -9.6      2.256      3.940
REMARK  8 active torsions:
REMARK  status: ('A' for Active; 'I' for Inactive)
REMARK    1  A    between atoms: C_2  and  N_3 
REMARK    2  A    between atoms: C_2  and  C_34 
REMARK       I    between atoms: N_3  and  C_4 
REMARK    3  A    between atoms: C_4  and  C_5 
REMARK    4  A    between atoms: C_5  and  N_6 
REMARK       I    between atoms: N_12  and  C_13 
REMARK    5  A    between atoms: C_13  and  C_14 
REMARK    6  A    between atoms: C_14  and  O_15 
REMARK    7  A    between atoms: O_15  and  C_16 
REMARK    8  A    between atoms: N_25  and  C_26 
ROOT
HETATM    1  N   UNL     1      43.382 -10.628   7.171  1.00  0.00    -0.325 N 
HETATM    2  C   UNL     1      43.345 -11.887   6.609  1.00  0.00     0.250 C 
HETATM    3  O   UNL     1      44.128 -12.790   6.870  1.00  0.00    -0.270 OA
HETATM    4  C   UNL     1      42.171 -11.942   5.609  1.00  0.00     0.118 C 
HETATM    5  C   UNL     1      41.093 -12.855   6.209  1.00  0.00     0.061 C 
HETATM    6  C   UNL     1      41.443 -14.334   6.074  1.00  0.00     0.129 C 
HETATM    7  N   UNL     1      41.863 -14.675   4.718  1.00  0.00    -0.350 N 
HETATM    8  C   UNL     1      41.477 -15.917   4.206  1.00  0.00     0.244 C 
HETATM    9  O   UNL     1      40.746 -16.687   4.835  1.00  0.00    -0.271 OA
HETATM   10  C   UNL     1      42.988 -13.903   4.199  1.00  0.00     0.129 C 
HETATM   11  C   UNL     1      42.727 -12.402   4.255  1.00  0.00     0.061 C 
HETATM   12  N   UNL     1      41.732 -10.517   5.576  1.00  0.00    -0.346 N 
HETATM   13  C   UNL     1      42.502  -9.709   6.514  1.00  0.00     0.254 C 
ENDROOT
BRANCH  12  14
HETATM   14  C   UNL     1      40.762  -9.926   4.787  1.00  0.00     0.032 A 
HETATM   15  C   UNL     1      39.406  -9.864   5.146  1.00  0.00     0.029 A 
HETATM   16  C   UNL     1      38.431  -9.274   4.328  1.00  0.00     0.002 A 
HETATM   17  C   UNL     1      38.784  -8.717   3.108  1.00  0.00     0.000 A 
HETATM   18  C   UNL     1      40.112  -8.748   2.715  1.00  0.00     0.002 A 
HETATM   19  C   UNL     1      41.077  -9.338   3.543  1.00  0.00     0.029 A 
ENDBRANCH  12  14
BRANCH   1  20
HETATM   20  C   UNL     1      44.523 -10.182   7.953  1.00  0.00     0.230 C 
BRANCH  20  21
HETATM   21  C   UNL     1      44.399  -8.830   8.672  1.00  0.00     0.236 C 
HETATM   22  N   UNL     1      43.508  -8.838   9.725  1.00  0.00    -0.351 N 
HETATM   23  H   UNL     1      42.964  -9.668   9.919  1.00  0.00     0.163 HD
HETATM   24  O   UNL     1      45.080  -7.847   8.391  1.00  0.00    -0.272 OA
BRANCH  22  25
HETATM   25  C   UNL     1      43.254  -7.646  10.521  1.00  0.00     0.113 C 
HETATM   26  C   UNL     1      42.211  -6.744   9.856  1.00  0.00     0.037 C 
BRANCH  25  27
HETATM   27  C   UNL     1      42.842  -8.028  11.931  1.00  0.00    -0.036 A 
HETATM   28  C   UNL     1      42.313  -9.304  12.183  1.00  0.00     0.009 A 
HETATM   29  C   UNL     1      41.942  -9.681  13.475  1.00  0.00     0.001 A 
HETATM   30  C   UNL     1      42.089  -8.786  14.533  1.00  0.00     0.000 A 
HETATM   31  C   UNL     1      42.606  -7.514  14.299  1.00  0.00     0.001 A 
HETATM   32  C   UNL     1      42.982  -7.136  13.008  1.00  0.00     0.009 A 
ENDBRANCH  25  27
ENDBRANCH  22  25
ENDBRANCH  20  21
ENDBRANCH   1  20
BRANCH   8  33
HETATM   33  C   UNL     1      41.993 -16.322   2.823  1.00  0.00     0.278 C 
BRANCH  33  34
HETATM   34  O   UNL     1      43.349 -16.746   2.926  1.00  0.00    -0.342 OA
BRANCH  34  35
HETATM   35  C   UNL     1      43.516 -18.092   3.095  1.00  0.00     0.069 A 
HETATM   36  C   UNL     1      43.178 -19.056   2.145  1.00  0.00     0.037 A 
HETATM   37  C   UNL     1      43.364 -20.412   2.429  1.00  0.00     0.003 A 
HETATM   38  C   UNL     1      43.881 -20.804   3.663  1.00  0.00     0.000 A 
HETATM   39  C   UNL     1      44.203 -19.843   4.619  1.00  0.00     0.003 A 
HETATM   40  C   UNL     1      44.011 -18.490   4.338  1.00  0.00     0.037 A 
ENDBRANCH  34  35
ENDBRANCH  33  34
ENDBRANCH   8  33
TORSDOF 8
ENDMDL
MODEL 3
REMARK VINA RESULT:      -9.6      1.046      1.419
REMARK  8 active torsions:
REMARK  status: ('A' for Active; 'I' for Inactive)
REMARK    1  A    between atoms: C_2  and  N_3 
REMARK    2  A    between atoms: C_2  and  C_34 
REMARK       I    between atoms: N_3  and  C_4 
REMARK    3  A    between atoms: C_4  and  C_5 
REMARK    4  A    between atoms: C_5  and  N_6 
REMARK       I    between atoms: N_12  and  C_13 
REMARK    5  A    between atoms: C_13  and  C_14 
REMARK    6  A    between atoms: C_14  and  O_15 
REMARK    7  A    between atoms: O_15  and  C_16 
REMARK    8  A    between atoms: N_25  and  C_26 
ROOT
HETATM    1  N   UNL     1      40.075 -10.092   7.249  1.00  0.00    -0.325 N 
HETATM    2  C   UNL     1      39.933 -11.094   6.312  1.00  0.00     0.250 C 
HETATM    3  O   UNL     1      38.864 -11.564   5.949  1.00  0.00    -0.270 OA
HETATM    4  C   UNL     1      41.338 -11.509   5.825  1.00  0.00     0.118 C 
HETATM    5  C   UNL     1      41.489 -11.025   4.377  1.00  0.00     0.061 C 
HETATM    6  C   UNL     1      40.744 -11.914   3.386  1.00  0.00     0.129 C 
HETATM    7  N   UNL     1      41.028 -13.330   3.601  1.00  0.00    -0.350 N 
HETATM    8  C   UNL     1      41.131 -14.156   2.478  1.00  0.00     0.244 C 
HETATM    9  O   UNL     1      41.057 -13.712   1.330  1.00  0.00    -0.271 OA
HETATM   10  C   UNL     1      40.746 -13.827   4.945  1.00  0.00     0.129 C 
HETATM   11  C   UNL     1      41.474 -13.025   6.017  1.00  0.00     0.061 C 
HETATM   12  N   UNL     1      42.220 -10.749   6.757  1.00  0.00    -0.346 N 
HETATM   13  C   UNL     1      41.437  -9.905   7.651  1.00  0.00     0.254 C 
ENDROOT
BRANCH  12  14
HETATM   14  C   UNL     1      43.599 -10.781   6.867  1.00  0.00     0.032 A 
HETATM   15  C   UNL     1      44.427 -11.503   5.993  1.00  0.00     0.029 A 
HETATM   16  C   UNL     1      45.823 -11.539   6.126  1.00  0.00     0.002 A 
HETATM   17  C   UNL     1      46.446 -10.842   7.150  1.00  0.00     0.000 A 
HETATM   18  C   UNL     1      45.670 -10.108   8.032  1.00  0.00     0.002 A 
HETATM   19  C   UNL     1      44.276 -10.079   7.886  1.00  0.00     0.029 A 
ENDBRANCH  12  14
BRANCH   1  20
HETATM   20  C   UNL     1      38.959  -9.672   8.081  1.00  0.00     0.230 C 
BRANCH  20  21
HETATM   21  C   UNL     1      39.289  -9.104   9.470  1.00  0.00     0.236 C 
HETATM   22  N   UNL     1      39.480 -10.069  10.436  1.00  0.00    -0.351 N 
HETATM   23  H   UNL     1      39.337 -11.045  10.210  1.00  0.00     0.163 HD
HETATM   24  O   UNL     1      39.445  -7.906   9.692  1.00  0.00    -0.272 OA
BRANCH  22  25
HETATM   25  C   UNL     1      39.796  -9.721  11.814  1.00  0.00     0.113 C 
HETATM   26  C   UNL     1      39.438 -10.859  12.773  1.00  0.00     0.037 C 
BRANCH  25  27
HETATM   27  C   UNL     1      41.256  -9.324  11.939  1.00  0.00    -0.036 A 
HETATM   28  C   UNL     1      41.610  -8.202  12.706  1.00  0.00     0.009 A 
HETATM   29  C   UNL     1      42.948  -7.829  12.846  1.00  0.00     0.001 A 
HETATM   30  C   UNL     1      43.949  -8.566  12.217  1.00  0.00     0.000 A 
HETATM   31  C   UNL     1      43.613  -9.677  11.448  1.00  0.00     0.001 A 
HETATM   32  C   UNL     1      42.276 -10.056  11.310  1.00  0.00     0.009 A 
ENDBRANCH  25  27
ENDBRANCH  22  25
ENDBRANCH  20  21
ENDBRANCH   1  20
BRANCH   8  33
HETATM   33  C   UNL     1      41.333 -15.657   2.699  1.00  0.00     0.278 C 
BRANCH  33  34
HETATM   34  O   UNL     1      42.604 -16.047   2.186  1.00  0.00    -0.342 OA
BRANCH  34  35
HETATM   35  C   UNL     1      43.177 -17.109   2.827  1.00  0.00     0.069 A 
HETATM   36  C   UNL     1      43.330 -18.380   2.271  1.00  0.00     0.037 A 
HETATM   37  C   UNL     1      43.906 -19.407   3.024  1.00  0.00     0.003 A 
HETATM   38  C   UNL     1      44.323 -19.167   4.333  1.00  0.00     0.000 A 
HETATM   39  C   UNL     1      44.155 -17.903   4.895  1.00  0.00     0.003 A 
HETATM   40  C   UNL     1      43.573 -16.880   4.146  1.00  0.00     0.037 A 
ENDBRANCH  34  35
ENDBRANCH  33  34
ENDBRANCH   8  33
TORSDOF 8
ENDMDL
MODEL 4
REMARK VINA RESULT:      -9.4      3.620      6.366
REMARK  8 active torsions:
REMARK  status: ('A' for Active; 'I' for Inactive)
REMARK    1  A    between atoms: C_2  and  N_3 
REMARK    2  A    between atoms: C_2  and  C_34 
REMARK       I    between atoms: N_3  and  C_4 
REMARK    3  A    between atoms: C_4  and  C_5 
REMARK    4  A    between atoms: C_5  and  N_6 
REMARK       I    between atoms: N_12  and  C_13 
REMARK    5  A    between atoms: C_13  and  C_14 
REMARK    6  A    between atoms: C_14  and  O_15 
REMARK    7  A    between atoms: O_15  and  C_16 
REMARK    8  A    between atoms: N_25  and  C_26 
ROOT
HETATM    1  N   UNL     1      43.436 -13.257   6.378  1.00  0.00    -0.325 N 
HETATM    2  C   UNL     1      42.592 -12.678   5.454  1.00  0.00     0.250 C 
HETATM    3  O   UNL     1      42.042 -11.594   5.594  1.00  0.00    -0.270 OA
HETATM    4  C   UNL     1      42.463 -13.631   4.247  1.00  0.00     0.118 C 
HETATM    5  C   UNL     1      43.193 -12.982   3.064  1.00  0.00     0.061 C 
HETATM    6  C   UNL     1      42.383 -11.858   2.425  1.00  0.00     0.129 C 
HETATM    7  N   UNL     1      41.005 -12.261   2.160  1.00  0.00    -0.350 N 
HETATM    8  C   UNL     1      40.397 -11.787   0.994  1.00  0.00     0.244 C 
HETATM    9  O   UNL     1      41.008 -11.105   0.167  1.00  0.00    -0.271 OA
HETATM   10  C   UNL     1      40.260 -12.744   3.319  1.00  0.00     0.129 C 
HETATM   11  C   UNL     1      40.970 -13.899   4.016  1.00  0.00     0.061 C 
HETATM   12  N   UNL     1      43.176 -14.845   4.739  1.00  0.00    -0.346 N 
HETATM   13  C   UNL     1      43.745 -14.619   6.063  1.00  0.00     0.254 C 
ENDROOT
BRANCH  12  14
HETATM   14  C   UNL     1      43.320 -16.076   4.125  1.00  0.00     0.032 A 
HETATM   15  C   UNL     1      42.801 -16.370   2.853  1.00  0.00     0.029 A 
HETATM   16  C   UNL     1      42.941 -17.628   2.249  1.00  0.00     0.002 A 
HETATM   17  C   UNL     1      43.617 -18.647   2.904  1.00  0.00     0.000 A 
HETATM   18  C   UNL     1      44.153 -18.400   4.157  1.00  0.00     0.002 A 
HETATM   19  C   UNL     1      44.008 -17.138   4.748  1.00  0.00     0.029 A 
ENDBRANCH  12  14
BRANCH   1  20
HETATM   20  C   UNL     1      43.555 -12.730   7.729  1.00  0.00     0.230 C 
BRANCH  20  21
HETATM   21  C   UNL     1      44.099 -11.302   7.882  1.00  0.00     0.236 C 
HETATM   22  N   UNL     1      43.140 -10.373   8.226  1.00  0.00    -0.351 N 
HETATM   23  H   UNL     1      42.169 -10.651   8.293  1.00  0.00     0.163 HD
HETATM   24  O   UNL     1      45.290 -11.017   7.783  1.00  0.00    -0.272 OA
BRANCH  22  25
HETATM   25  C   UNL     1      43.468  -8.967   8.410  1.00  0.00     0.113 C 
HETATM   26  C   UNL     1      42.669  -8.078   7.453  1.00  0.00     0.037 C 
BRANCH  25  27
HETATM   27  C   UNL     1      43.258  -8.558   9.857  1.00  0.00    -0.036 A 
HETATM   28  C   UNL     1      42.625  -7.340  10.153  1.00  0.00     0.009 A 
HETATM   29  C   UNL     1      42.410  -6.952  11.477  1.00  0.00     0.001 A 
HETATM   30  C   UNL     1      42.829  -7.771  12.522  1.00  0.00     0.000 A 
HETATM   31  C   UNL     1      43.464  -8.980  12.246  1.00  0.00     0.001 A 
HETATM   32  C   UNL     1      43.677  -9.372  10.922  1.00  0.00     0.009 A 
ENDBRANCH  25  27
ENDBRANCH  22  25
ENDBRANCH  20  21
ENDBRANCH   1  20
BRANCH   8  33
HETATM   33  C   UNL     1      38.923 -12.125   0.757  1.00  0.00     0.278 C 
BRANCH  33  34
HETATM   34  O   UNL     1      38.570 -11.798  -0.584  1.00  0.00    -0.342 OA
BRANCH  34  35
HETATM   35  C   UNL     1      38.490 -12.868  -1.431  1.00  0.00     0.069 A 
HETATM   36  C   UNL     1      39.335 -13.977  -1.387  1.00  0.00     0.037 A 
HETATM   37  C   UNL     1      39.185 -15.007  -2.320  1.00  0.00     0.003 A 
HETATM   38  C   UNL     1      38.196 -14.926  -3.300  1.00  0.00     0.000 A 
HETATM   39  C   UNL     1      37.362 -13.812  -3.355  1.00  0.00     0.003 A 
HETATM   40  C   UNL     1      37.517 -12.780  -2.429  1.00  0.00     0.037 A 
ENDBRANCH  34  35
ENDBRANCH  33  34
ENDBRANCH   8  33
TORSDOF 8
ENDMDL
MODEL 5
REMARK VINA RESULT:      -9.4      3.623      7.332
REMARK  8 active torsions:
REMARK  status: ('A' for Active; 'I' for Inactive)
REMARK    1  A    between atoms: C_2  and  N_3 
REMARK    2  A    between atoms: C_2  and  C_34 
REMARK       I    between atoms: N_3  and  C_4 
REMARK    3  A    between atoms: C_4  and  C_5 
REMARK    4  A    between atoms: C_5  and  N_6 
REMARK       I    between atoms: N_12  and  C_13 
REMARK    5  A    between atoms: C_13  and  C_14 
REMARK    6  A    between atoms: C_14  and  O_15 
REMARK    7  A    between atoms: O_15  and  C_16 
REMARK    8  A    between atoms: N_25  and  C_26 
ROOT
HETATM    1  N   UNL     1      43.251 -14.499   5.788  1.00  0.00    -0.325 N 
HETATM    2  C   UNL     1      42.480 -13.990   4.763  1.00  0.00     0.250 C 
HETATM    3  O   UNL     1      41.925 -12.900   4.782  1.00  0.00    -0.270 OA
HETATM    4  C   UNL     1      42.440 -15.028   3.621  1.00  0.00     0.118 C 
HETATM    5  C   UNL     1      43.260 -14.464   2.453  1.00  0.00     0.061 C 
HETATM    6  C   UNL     1      42.504 -13.391   1.675  1.00  0.00     0.129 C 
HETATM    7  N   UNL     1      41.148 -13.815   1.336  1.00  0.00    -0.350 N 
HETATM    8  C   UNL     1      40.632 -13.428   0.097  1.00  0.00     0.244 C 
HETATM    9  O   UNL     1      41.305 -12.806  -0.728  1.00  0.00    -0.271 OA
HETATM   10  C   UNL     1      40.317 -14.215   2.468  1.00  0.00     0.129 C 
HETATM   11  C   UNL     1      40.968 -15.315   3.298  1.00  0.00     0.061 C 
HETATM   12  N   UNL     1      43.111 -16.202   4.252  1.00  0.00    -0.346 N 
HETATM   13  C   UNL     1      43.578 -15.880   5.595  1.00  0.00     0.254 C 
ENDROOT
BRANCH  12  14
HETATM   14  C   UNL     1      43.296 -17.473   3.740  1.00  0.00     0.032 A 
HETATM   15  C   UNL     1      42.835 -17.872   2.475  1.00  0.00     0.029 A 
HETATM   16  C   UNL     1      43.018 -19.170   1.976  1.00  0.00     0.002 A 
HETATM   17  C   UNL     1      43.679 -20.125   2.734  1.00  0.00     0.000 A 
HETATM   18  C   UNL     1      44.160 -19.774   3.985  1.00  0.00     0.002 A 
HETATM   19  C   UNL     1      43.972 -18.473   4.471  1.00  0.00     0.029 A 
ENDBRANCH  12  14
BRANCH   1  20
HETATM   20  C   UNL     1      43.268 -13.876   7.101  1.00  0.00     0.230 C 
BRANCH  20  21
HETATM   21  C   UNL     1      43.829 -12.449   7.197  1.00  0.00     0.236 C 
HETATM   22  N   UNL     1      42.866 -11.483   7.400  1.00  0.00    -0.351 N 
HETATM   23  H   UNL     1      41.888 -11.740   7.410  1.00  0.00     0.163 HD
HETATM   24  O   UNL     1      45.030 -12.191   7.171  1.00  0.00    -0.272 OA
BRANCH  22  25
HETATM   25  C   UNL     1      43.209 -10.073   7.510  1.00  0.00     0.113 C 
HETATM   26  C   UNL     1      42.174  -9.191   6.807  1.00  0.00     0.037 C 
BRANCH  25  27
HETATM   27  C   UNL     1      43.378  -9.680   8.967  1.00  0.00    -0.036 A 
HETATM   28  C   UNL     1      42.258  -9.290   9.719  1.00  0.00     0.009 A 
HETATM   29  C   UNL     1      42.390  -8.939  11.064  1.00  0.00     0.001 A 
HETATM   30  C   UNL     1      43.642  -8.967  11.674  1.00  0.00     0.000 A 
HETATM   31  C   UNL     1      44.764  -9.345  10.940  1.00  0.00     0.001 A 
HETATM   32  C   UNL     1      44.634  -9.701   9.596  1.00  0.00     0.009 A 
ENDBRANCH  25  27
ENDBRANCH  22  25
ENDBRANCH  20  21
ENDBRANCH   1  20
BRANCH   8  33
HETATM   33  C   UNL     1      39.179 -13.786  -0.226  1.00  0.00     0.278 C 
BRANCH  33  34
HETATM   34  O   UNL     1      38.825 -13.242  -1.495  1.00  0.00    -0.342 OA
BRANCH  34  35
HETATM   35  C   UNL     1      37.954 -12.189  -1.442  1.00  0.00     0.069 A 
HETATM   36  C   UNL     1      37.282 -11.663  -2.545  1.00  0.00     0.037 A 
HETATM   37  C   UNL     1      36.432 -10.565  -2.386  1.00  0.00     0.003 A 
HETATM   38  C   UNL     1      36.259  -9.989  -1.128  1.00  0.00     0.000 A 
HETATM   39  C   UNL     1      36.944 -10.503  -0.029  1.00  0.00     0.003 A 
HETATM   40  C   UNL     1      37.798 -11.595  -0.189  1.00  0.00     0.037 A 
ENDBRANCH  34  35
ENDBRANCH  33  34
ENDBRANCH   8  33
TORSDOF 8
ENDMDL
MODEL 6
REMARK VINA RESULT:      -9.3      3.874      6.469
REMARK  8 active torsions:
REMARK  status: ('A' for Active; 'I' for Inactive)
REMARK    1  A    between atoms: C_2  and  N_3 
REMARK    2  A    between atoms: C_2  and  C_34 
REMARK       I    between atoms: N_3  and  C_4 
REMARK    3  A    between atoms: C_4  and  C_5 
REMARK    4  A    between atoms: C_5  and  N_6 
REMARK       I    between atoms: N_12  and  C_13 
REMARK    5  A    between atoms: C_13  and  C_14 
REMARK    6  A    between atoms: C_14  and  O_15 
REMARK    7  A    between atoms: O_15  and  C_16 
REMARK    8  A    between atoms: N_25  and  C_26 
ROOT
HETATM    1  N   UNL     1      39.943 -11.803   5.248  1.00  0.00    -0.325 N 
HETATM    2  C   UNL     1      39.975 -11.154   4.032  1.00  0.00     0.250 C 
HETATM    3  O   UNL     1      39.489 -10.053   3.815  1.00  0.00    -0.270 OA
HETATM    4  C   UNL     1      40.710 -12.056   3.017  1.00  0.00     0.118 C 
HETATM    5  C   UNL     1      42.060 -11.397   2.704  1.00  0.00     0.061 C 
HETATM    6  C   UNL     1      41.923 -10.216   1.747  1.00  0.00     0.129 C 
HETATM    7  N   UNL     1      41.108 -10.547   0.583  1.00  0.00    -0.350 N 
HETATM    8  C   UNL     1      41.477 -10.004  -0.651  1.00  0.00     0.244 C 
HETATM    9  O   UNL     1      42.495  -9.321  -0.788  1.00  0.00    -0.271 OA
HETATM   10  C   UNL     1      39.765 -11.038   0.878  1.00  0.00     0.129 C 
HETATM   11  C   UNL     1      39.788 -12.249   1.805  1.00  0.00     0.061 C 
HETATM   12  N   UNL     1      40.877 -13.317   3.795  1.00  0.00    -0.346 N 
HETATM   13  C   UNL     1      40.374 -13.166   5.155  1.00  0.00     0.254 C 
ENDROOT
BRANCH  12  14
HETATM   14  C   UNL     1      41.396 -14.530   3.380  1.00  0.00     0.032 A 
HETATM   15  C   UNL     1      40.653 -15.486   2.670  1.00  0.00     0.029 A 
HETATM   16  C   UNL     1      41.190 -16.719   2.269  1.00  0.00     0.002 A 
HETATM   17  C   UNL     1      42.506 -17.040   2.567  1.00  0.00     0.000 A 
HETATM   18  C   UNL     1      43.280 -16.123   3.259  1.00  0.00     0.002 A 
HETATM   19  C   UNL     1      42.732 -14.894   3.652  1.00  0.00     0.029 A 
ENDBRANCH  12  14
BRANCH   1  20
HETATM   20  C   UNL     1      39.099 -11.332   6.334  1.00  0.00     0.230 C 
BRANCH  20  21
HETATM   21  C   UNL     1      39.614 -10.145   7.163  1.00  0.00     0.236 C 
HETATM   22  N   UNL     1      40.933 -10.265   7.549  1.00  0.00    -0.351 N 
HETATM   23  H   UNL     1      41.447 -11.110   7.334  1.00  0.00     0.163 HD
HETATM   24  O   UNL     1      38.944  -9.144   7.403  1.00  0.00    -0.272 OA
BRANCH  22  25
HETATM   25  C   UNL     1      41.593  -9.241   8.345  1.00  0.00     0.113 C 
HETATM   26  C   UNL     1      41.118  -9.274   9.800  1.00  0.00     0.037 C 
BRANCH  25  27
HETATM   27  C   UNL     1      43.102  -9.384   8.247  1.00  0.00    -0.036 A 
HETATM   28  C   UNL     1      43.932  -8.354   8.719  1.00  0.00     0.009 A 
HETATM   29  C   UNL     1      45.321  -8.472   8.651  1.00  0.00     0.001 A 
HETATM   30  C   UNL     1      45.901  -9.616   8.107  1.00  0.00     0.000 A 
HETATM   31  C   UNL     1      45.091 -10.643   7.629  1.00  0.00     0.001 A 
HETATM   32  C   UNL     1      43.701 -10.530   7.699  1.00  0.00     0.009 A 
ENDBRANCH  25  27
ENDBRANCH  22  25
ENDBRANCH  20  21
ENDBRANCH   1  20
BRANCH   8  33
HETATM   33  C   UNL     1      40.574 -10.268  -1.858  1.00  0.00     0.278 C 
BRANCH  33  34
HETATM   34  O   UNL     1      40.920 -11.519  -2.447  1.00  0.00    -0.342 OA
BRANCH  34  35
HETATM   35  C   UNL     1      39.876 -12.390  -2.593  1.00  0.00     0.069 A 
HETATM   36  C   UNL     1      38.532 -12.017  -2.617  1.00  0.00     0.037 A 
HETATM   37  C   UNL     1      37.539 -12.993  -2.743  1.00  0.00     0.003 A 
HETATM   38  C   UNL     1      37.888 -14.340  -2.838  1.00  0.00     0.000 A 
HETATM   39  C   UNL     1      39.229 -14.715  -2.797  1.00  0.00     0.003 A 
HETATM   40  C   UNL     1      40.220 -13.741  -2.664  1.00  0.00     0.037 A 
ENDBRANCH  34  35
ENDBRANCH  33  34
ENDBRANCH   8  33
TORSDOF 8
ENDMDL
MODEL 7
REMARK VINA RESULT:      -9.3      2.447      4.749
REMARK  8 active torsions:
REMARK  status: ('A' for Active; 'I' for Inactive)
REMARK    1  A    between atoms: C_2  and  N_3 
REMARK    2  A    between atoms: C_2  and  C_34 
REMARK       I    between atoms: N_3  and  C_4 
REMARK    3  A    between atoms: C_4  and  C_5 
REMARK    4  A    between atoms: C_5  and  N_6 
REMARK       I    between atoms: N_12  and  C_13 
REMARK    5  A    between atoms: C_13  and  C_14 
REMARK    6  A    between atoms: C_14  and  O_15 
REMARK    7  A    between atoms: O_15  and  C_16 
REMARK    8  A    between atoms: N_25  and  C_26 
ROOT
HETATM    1  N   UNL     1      39.941  -9.516   5.256  1.00  0.00    -0.325 N 
HETATM    2  C   UNL     1      40.489 -10.754   5.518  1.00  0.00     0.250 C 
HETATM    3  O   UNL     1      40.778 -11.168   6.632  1.00  0.00    -0.270 OA
HETATM    4  C   UNL     1      40.677 -11.498   4.178  1.00  0.00     0.118 C 
HETATM    5  C   UNL     1      39.659 -12.645   4.139  1.00  0.00     0.061 C 
HETATM    6  C   UNL     1      40.083 -13.830   5.001  1.00  0.00     0.129 C 
HETATM    7  N   UNL     1      41.468 -14.219   4.753  1.00  0.00    -0.350 N 
HETATM    8  C   UNL     1      41.781 -15.581   4.781  1.00  0.00     0.244 C 
HETATM    9  O   UNL     1      40.918 -16.448   4.940  1.00  0.00    -0.271 OA
HETATM   10  C   UNL     1      42.457 -13.160   4.933  1.00  0.00     0.129 C 
HETATM   11  C   UNL     1      42.145 -11.933   4.083  1.00  0.00     0.061 C 
HETATM   12  N   UNL     1      40.348 -10.432   3.189  1.00  0.00    -0.346 N 
HETATM   13  C   UNL     1      39.927  -9.206   3.858  1.00  0.00     0.254 C 
ENDROOT
BRANCH  12  14
HETATM   14  C   UNL     1      40.420 -10.477   1.808  1.00  0.00     0.032 A 
HETATM   15  C   UNL     1      39.414 -11.029   1.000  1.00  0.00     0.029 A 
HETATM   16  C   UNL     1      39.509 -11.082  -0.399  1.00  0.00     0.002 A 
HETATM   17  C   UNL     1      40.626 -10.574  -1.045  1.00  0.00     0.000 A 
HETATM   18  C   UNL     1      41.641 -10.011  -0.288  1.00  0.00     0.002 A 
HETATM   19  C   UNL     1      41.532  -9.963   1.109  1.00  0.00     0.029 A 
ENDBRANCH  12  14
BRANCH   1  20
HETATM   20  C   UNL     1      39.885  -8.482   6.277  1.00  0.00     0.230 C 
BRANCH  20  21
HETATM   21  C   UNL     1      41.215  -7.846   6.709  1.00  0.00     0.236 C 
HETATM   22  N   UNL     1      41.759  -8.405   7.847  1.00  0.00    -0.351 N 
HETATM   23  H   UNL     1      41.251  -9.122   8.349  1.00  0.00     0.163 HD
HETATM   24  O   UNL     1      41.787  -6.970   6.066  1.00  0.00    -0.272 OA
BRANCH  22  25
HETATM   25  C   UNL     1      43.013  -7.929   8.410  1.00  0.00     0.113 C 
HETATM   26  C   UNL     1      42.876  -7.633   9.906  1.00  0.00     0.037 C 
BRANCH  25  27
HETATM   27  C   UNL     1      44.128  -8.922   8.137  1.00  0.00    -0.036 A 
HETATM   28  C   UNL     1      43.819 -10.201   7.645  1.00  0.00     0.009 A 
HETATM   29  C   UNL     1      44.831 -11.124   7.375  1.00  0.00     0.001 A 
HETATM   30  C   UNL     1      46.164 -10.786   7.598  1.00  0.00     0.000 A 
HETATM   31  C   UNL     1      46.486  -9.524   8.092  1.00  0.00     0.001 A 
HETATM   32  C   UNL     1      45.477  -8.597   8.359  1.00  0.00     0.009 A 
ENDBRANCH  25  27
ENDBRANCH  22  25
ENDBRANCH  20  21
ENDBRANCH   1  20
BRANCH   8  33
HETATM   33  C   UNL     1      43.246 -15.990   4.617  1.00  0.00     0.278 C 
BRANCH  33  34
HETATM   34  O   UNL     1      43.448 -16.524   3.311  1.00  0.00    -0.342 OA
BRANCH  34  35
HETATM   35  C   UNL     1      43.555 -17.886   3.261  1.00  0.00     0.069 A 
HETATM   36  C   UNL     1      43.163 -18.671   2.176  1.00  0.00     0.037 A 
HETATM   37  C   UNL     1      43.289 -20.061   2.238  1.00  0.00     0.003 A 
HETATM   38  C   UNL     1      43.801 -20.668   3.385  1.00  0.00     0.000 A 
HETATM   39  C   UNL     1      44.177 -19.886   4.476  1.00  0.00     0.003 A 
HETATM   40  C   UNL     1      44.043 -18.499   4.416  1.00  0.00     0.037 A 
ENDBRANCH  34  35
ENDBRANCH  33  34
ENDBRANCH   8  33
TORSDOF 8
ENDMDL
MODEL 8
REMARK VINA RESULT:      -9.3      5.355     10.202
REMARK  8 active torsions:
REMARK  status: ('A' for Active; 'I' for Inactive)
REMARK    1  A    between atoms: C_2  and  N_3 
REMARK    2  A    between atoms: C_2  and  C_34 
REMARK       I    between atoms: N_3  and  C_4 
REMARK    3  A    between atoms: C_4  and  C_5 
REMARK    4  A    between atoms: C_5  and  N_6 
REMARK       I    between atoms: N_12  and  C_13 
REMARK    5  A    between atoms: C_13  and  C_14 
REMARK    6  A    between atoms: C_14  and  O_15 
REMARK    7  A    between atoms: O_15  and  C_16 
REMARK    8  A    between atoms: N_25  and  C_26 
ROOT
HETATM    1  N   UNL     1      39.858 -14.317   2.163  1.00  0.00    -0.325 N 
HETATM    2  C   UNL     1      39.842 -13.819   0.877  1.00  0.00     0.250 C 
HETATM    3  O   UNL     1      39.923 -14.499  -0.136  1.00  0.00    -0.270 OA
HETATM    4  C   UNL     1      39.720 -12.282   0.951  1.00  0.00     0.118 C 
HETATM    5  C   UNL     1      38.319 -11.904   0.451  1.00  0.00     0.061 C 
HETATM    6  C   UNL     1      38.206 -11.967  -1.069  1.00  0.00     0.129 C 
HETATM    7  N   UNL     1      39.310 -11.274  -1.728  1.00  0.00    -0.350 N 
HETATM    8  C   UNL     1      39.031 -10.567  -2.902  1.00  0.00     0.244 C 
HETATM    9  O   UNL     1      37.886 -10.462  -3.347  1.00  0.00    -0.271 OA
HETATM   10  C   UNL     1      40.646 -11.733  -1.361  1.00  0.00     0.129 C 
HETATM   11  C   UNL     1      40.878 -11.678   0.145  1.00  0.00     0.061 C 
HETATM   12  N   UNL     1      39.871 -12.034   2.413  1.00  0.00    -0.346 N 
HETATM   13  C   UNL     1      39.988 -13.287   3.149  1.00  0.00     0.254 C 
ENDROOT
BRANCH  12  14
HETATM   14  C   UNL     1      39.932 -10.827   3.087  1.00  0.00     0.032 A 
HETATM   15  C   UNL     1      41.135 -10.158   3.364  1.00  0.00     0.029 A 
HETATM   16  C   UNL     1      41.183  -8.941   4.062  1.00  0.00     0.002 A 
HETATM   17  C   UNL     1      40.014  -8.345   4.509  1.00  0.00     0.000 A 
HETATM   18  C   UNL     1      38.802  -8.965   4.251  1.00  0.00     0.002 A 
HETATM   19  C   UNL     1      38.768 -10.179   3.551  1.00  0.00     0.029 A 
ENDBRANCH  12  14
BRANCH   1  20
HETATM   20  C   UNL     1      40.224 -15.698   2.434  1.00  0.00     0.230 C 
BRANCH  20  21
HETATM   21  C   UNL     1      41.722 -16.025   2.523  1.00  0.00     0.236 C 
HETATM   22  N   UNL     1      42.112 -16.531   3.745  1.00  0.00    -0.351 N 
HETATM   23  H   UNL     1      41.442 -16.597   4.500  1.00  0.00     0.163 HD
HETATM   24  O   UNL     1      42.495 -15.919   1.574  1.00  0.00    -0.272 OA
BRANCH  22  25
HETATM   25  C   UNL     1      43.495 -16.894   4.017  1.00  0.00     0.113 C 
HETATM   26  C   UNL     1      43.962 -16.337   5.364  1.00  0.00     0.037 C 
BRANCH  25  27
HETATM   27  C   UNL     1      43.673 -18.400   3.944  1.00  0.00    -0.036 A 
HETATM   28  C   UNL     1      43.543 -19.059   2.711  1.00  0.00     0.009 A 
HETATM   29  C   UNL     1      43.716 -20.441   2.619  1.00  0.00     0.001 A 
HETATM   30  C   UNL     1      44.016 -21.185   3.759  1.00  0.00     0.000 A 
HETATM   31  C   UNL     1      44.141 -20.547   4.991  1.00  0.00     0.001 A 
HETATM   32  C   UNL     1      43.972 -19.164   5.084  1.00  0.00     0.009 A 
ENDBRANCH  25  27
ENDBRANCH  22  25
ENDBRANCH  20  21
ENDBRANCH   1  20
BRANCH   8  33
HETATM   33  C   UNL     1      40.198  -9.918  -3.650  1.00  0.00     0.278 C 
BRANCH  33  34
HETATM   34  O   UNL     1      40.169  -8.508  -3.446  1.00  0.00    -0.342 OA
BRANCH  34  35
HETATM   35  C   UNL     1      41.301  -7.989  -2.882  1.00  0.00     0.069 A 
HETATM   36  C   UNL     1      41.692  -8.197  -1.559  1.00  0.00     0.037 A 
HETATM   37  C   UNL     1      42.856  -7.596  -1.073  1.00  0.00     0.003 A 
HETATM   38  C   UNL     1      43.625  -6.782  -1.905  1.00  0.00     0.000 A 
HETATM   39  C   UNL     1      43.226  -6.559  -3.221  1.00  0.00     0.003 A 
HETATM   40  C   UNL     1      42.059  -7.154  -3.704  1.00  0.00     0.037 A 
ENDBRANCH  34  35
ENDBRANCH  33  34
ENDBRANCH   8  33
TORSDOF 8
ENDMDL
MODEL 9
REMARK VINA RESULT:      -9.1      2.215      3.288
REMARK  8 active torsions:
REMARK  status: ('A' for Active; 'I' for Inactive)
REMARK    1  A    between atoms: C_2  and  N_3 
REMARK    2  A    between atoms: C_2  and  C_34 
REMARK       I    between atoms: N_3  and  C_4 
REMARK    3  A    between atoms: C_4  and  C_5 
REMARK    4  A    between atoms: C_5  and  N_6 
REMARK       I    between atoms: N_12  and  C_13 
REMARK    5  A    between atoms: C_13  and  C_14 
REMARK    6  A    between atoms: C_14  and  O_15 
REMARK    7  A    between atoms: O_15  and  C_16 
REMARK    8  A    between atoms: N_25  and  C_26 
ROOT
HETATM    1  N   UNL     1      40.386  -9.426   8.417  1.00  0.00    -0.325 N 
HETATM    2  C   UNL     1      39.790 -10.056   7.345  1.00  0.00     0.250 C 
HETATM    3  O   UNL     1      38.583 -10.186   7.194  1.00  0.00    -0.270 OA
HETATM    4  C   UNL     1      40.899 -10.563   6.398  1.00  0.00     0.118 C 
HETATM    5  C   UNL     1      40.851  -9.706   5.126  1.00  0.00     0.061 C 
HETATM    6  C   UNL     1      39.705 -10.101   4.201  1.00  0.00     0.129 C 
HETATM    7  N   UNL     1      39.652 -11.544   3.981  1.00  0.00    -0.350 N 
HETATM    8  C   UNL     1      39.292 -12.000   2.710  1.00  0.00     0.244 C 
HETATM    9  O   UNL     1      39.087 -11.227   1.770  1.00  0.00    -0.271 OA
HETATM   10  C   UNL     1      39.551 -12.357   5.189  1.00  0.00     0.129 C 
HETATM   11  C   UNL     1      40.677 -12.065   6.174  1.00  0.00     0.061 C 
HETATM   12  N   UNL     1      42.129 -10.296   7.199  1.00  0.00    -0.346 N 
HETATM   13  C   UNL     1      41.804  -9.626   8.453  1.00  0.00     0.254 C 
ENDROOT
BRANCH  12  14
HETATM   14  C   UNL     1      43.442 -10.619   6.906  1.00  0.00     0.032 A 
HETATM   15  C   UNL     1      44.502 -10.434   7.808  1.00  0.00     0.029 A 
HETATM   16  C   UNL     1      45.831 -10.751   7.491  1.00  0.00     0.002 A 
HETATM   17  C   UNL     1      46.149 -11.274   6.247  1.00  0.00     0.000 A 
HETATM   18  C   UNL     1      45.133 -11.482   5.327  1.00  0.00     0.002 A 
HETATM   19  C   UNL     1      43.809 -11.162   5.658  1.00  0.00     0.029 A 
ENDBRANCH  12  14
BRANCH   1  20
HETATM   20  C   UNL     1      39.625  -9.071   9.604  1.00  0.00     0.230 C 
BRANCH  20  21
HETATM   21  C   UNL     1      40.016  -9.757  10.922  1.00  0.00     0.236 C 
HETATM   22  N   UNL     1      41.268  -9.408  11.383  1.00  0.00    -0.351 N 
HETATM   23  H   UNL     1      41.859  -8.802  10.828  1.00  0.00     0.163 HD
HETATM   24  O   UNL     1      39.261 -10.492  11.553  1.00  0.00    -0.272 OA
BRANCH  22  25
HETATM   25  C   UNL     1      41.812  -9.962  12.614  1.00  0.00     0.113 C 
HETATM   26  C   UNL     1      43.104 -10.739  12.352  1.00  0.00     0.037 C 
BRANCH  25  27
HETATM   27  C   UNL     1      42.020  -8.865  13.643  1.00  0.00    -0.036 A 
HETATM   28  C   UNL     1      43.051  -7.928  13.466  1.00  0.00     0.009 A 
HETATM   29  C   UNL     1      43.250  -6.903  14.392  1.00  0.00     0.001 A 
HETATM   30  C   UNL     1      42.427  -6.804  15.512  1.00  0.00     0.000 A 
HETATM   31  C   UNL     1      41.404  -7.729  15.706  1.00  0.00     0.001 A 
HETATM   32  C   UNL     1      41.200  -8.753  14.778  1.00  0.00     0.009 A 
ENDBRANCH  25  27
ENDBRANCH  22  25
ENDBRANCH  20  21
ENDBRANCH   1  20
BRANCH   8  33
HETATM   33  C   UNL     1      39.142 -13.508   2.497  1.00  0.00     0.278 C 
BRANCH  33  34
HETATM   34  O   UNL     1      40.153 -13.966   1.603  1.00  0.00    -0.342 OA
BRANCH  34  35
HETATM   35  C   UNL     1      40.972 -14.934   2.115  1.00  0.00     0.069 A 
HETATM   36  C   UNL     1      40.787 -15.555   3.350  1.00  0.00     0.037 A 
HETATM   37  C   UNL     1      41.702 -16.515   3.791  1.00  0.00     0.003 A 
HETATM   38  C   UNL     1      42.803 -16.849   3.004  1.00  0.00     0.000 A 
HETATM   39  C   UNL     1      42.998 -16.216   1.778  1.00  0.00     0.003 A 
HETATM   40  C   UNL     1      42.089 -15.253   1.340  1.00  0.00     0.037 A 
ENDBRANCH  34  35
ENDBRANCH  33  34
ENDBRANCH   8  33
TORSDOF 8
ENDMDL
MODEL 10
REMARK VINA RESULT:      -9.0      2.249      4.251
REMARK  8 active torsions:
REMARK  status: ('A' for Active; 'I' for Inactive)
REMARK    1  A    between atoms: C_2  and  N_3 
REMARK    2  A    between atoms: C_2  and  C_34 
REMARK       I    between atoms: N_3  and  C_4 
REMARK    3  A    between atoms: C_4  and  C_5 
REMARK    4  A    between atoms: C_5  and  N_6 
REMARK       I    between atoms: N_12  and  C_13 
REMARK    5  A    between atoms: C_13  and  C_14 
REMARK    6  A    between atoms: C_14  and  O_15 
REMARK    7  A    between atoms: O_15  and  C_16 
REMARK    8  A    between atoms: N_25  and  C_26 
ROOT
HETATM    1  N   UNL     1      40.630  -9.737   4.985  1.00  0.00    -0.325 N 
HETATM    2  C   UNL     1      41.183 -10.930   5.401  1.00  0.00     0.250 C 
HETATM    3  O   UNL     1      41.679 -11.122   6.503  1.00  0.00    -0.270 OA
HETATM    4  C   UNL     1      41.073 -11.948   4.246  1.00  0.00     0.118 C 
HETATM    5  C   UNL     1      40.035 -13.001   4.655  1.00  0.00     0.061 C 
HETATM    6  C   UNL     1      40.589 -14.008   5.658  1.00  0.00     0.129 C 
HETATM    7  N   UNL     1      41.884 -14.540   5.241  1.00  0.00    -0.350 N 
HETATM    8  C   UNL     1      42.155 -15.885   5.506  1.00  0.00     0.244 C 
HETATM    9  O   UNL     1      41.317 -16.635   6.013  1.00  0.00    -0.271 OA
HETATM   10  C   UNL     1      42.919 -13.541   4.992  1.00  0.00     0.129 C 
HETATM   11  C   UNL     1      42.478 -12.500   3.970  1.00  0.00     0.061 C 
HETATM   12  N   UNL     1      40.582 -11.091   3.129  1.00  0.00    -0.346 N 
HETATM   13  C   UNL     1      40.342  -9.725   3.582  1.00  0.00     0.254 C 
ENDROOT
BRANCH  12  14
HETATM   14  C   UNL     1      40.372 -11.428   1.804  1.00  0.00     0.032 A 
HETATM   15  C   UNL     1      41.183 -10.971   0.753  1.00  0.00     0.029 A 
HETATM   16  C   UNL     1      40.947 -11.310  -0.588  1.00  0.00     0.002 A 
HETATM   17  C   UNL     1      39.882 -12.129  -0.927  1.00  0.00     0.000 A 
HETATM   18  C   UNL     1      39.059 -12.611   0.079  1.00  0.00     0.002 A 
HETATM   19  C   UNL     1      39.307 -12.267   1.415  1.00  0.00     0.029 A 
ENDBRANCH  12  14
BRANCH   1  20
HETATM   20  C   UNL     1      40.813  -8.512   5.746  1.00  0.00     0.230 C 
BRANCH  20  21
HETATM   21  C   UNL     1      40.011  -8.366   7.048  1.00  0.00     0.236 C 
HETATM   22  N   UNL     1      40.706  -8.742   8.178  1.00  0.00    -0.351 N 
HETATM   23  H   UNL     1      41.635  -9.134   8.092  1.00  0.00     0.163 HD
HETATM   24  O   UNL     1      38.879  -7.889   7.097  1.00  0.00    -0.272 OA
BRANCH  22  25
HETATM   25  C   UNL     1      40.107  -8.678   9.503  1.00  0.00     0.113 C 
HETATM   26  C   UNL     1      39.236  -9.906   9.780  1.00  0.00     0.037 C 
BRANCH  25  27
HETATM   27  C   UNL     1      41.179  -8.504  10.563  1.00  0.00    -0.036 A 
HETATM   28  C   UNL     1      41.989  -9.594  10.922  1.00  0.00     0.009 A 
HETATM   29  C   UNL     1      42.991  -9.451  11.884  1.00  0.00     0.001 A 
HETATM   30  C   UNL     1      43.193  -8.221  12.505  1.00  0.00     0.000 A 
HETATM   31  C   UNL     1      42.393  -7.132  12.165  1.00  0.00     0.001 A 
HETATM   32  C   UNL     1      41.394  -7.270  11.200  1.00  0.00     0.009 A 
ENDBRANCH  25  27
ENDBRANCH  22  25
ENDBRANCH  20  21
ENDBRANCH   1  20
BRANCH   8  33
HETATM   33  C   UNL     1      43.544 -16.425   5.158  1.00  0.00     0.278 C 
BRANCH  33  34
HETATM   34  O   UNL     1      43.569 -16.831   3.792  1.00  0.00    -0.342 OA
BRANCH  34  35
HETATM   35  C   UNL     1      43.694 -18.178   3.598  1.00  0.00     0.069 A 
HETATM   36  C   UNL     1      43.475 -18.826   2.383  1.00  0.00     0.037 A 
HETATM   37  C   UNL     1      43.604 -20.216   2.299  1.00  0.00     0.003 A 
HETATM   38  C   UNL     1      43.944 -20.957   3.430  1.00  0.00     0.000 A 
HETATM   39  C   UNL     1      44.146 -20.313   4.649  1.00  0.00     0.003 A 
HETATM   40  C   UNL     1      44.010 -18.927   4.733  1.00  0.00     0.037 A 
ENDBRANCH  34  35
ENDBRANCH  33  34
ENDBRANCH   8  33
TORSDOF 8
ENDMDL
