MODEL 1
REMARK VINA RESULT:      -8.5      0.000      0.000
REMARK  6 active torsions:
REMARK  status: ('A' for Active; 'I' for Inactive)
REMARK    1  A    between atoms: C_3  and  C_4 
REMARK    2  A    between atoms: C_4  and  N_5 
REMARK    3  A    between atoms: C_4  and  C_19 
REMARK    4  A    between atoms: N_9  and  C_10 
REMARK    5  A    between atoms: C_25  and  N_26 
REMARK       I    between atoms: N_26  and  C_27 
REMARK    6  A    between atoms: C_27  and  C_28 
ROOT
HETATM    1  C   UNL     1      41.444 -11.880   3.695  1.00  0.00     0.259 C 
ENDROOT
BRANCH   1   2
HETATM    2  C   UNL     1      40.832 -13.034   2.915  1.00  0.00     0.018 A 
HETATM    3  C   UNL     1      40.685 -12.995   1.452  1.00  0.00    -0.038 A 
HETATM    4  C   UNL     1      41.027 -11.815   0.584  1.00  0.00     0.050 C 
HETATM    5  C   UNL     1      40.184 -14.185   0.947  1.00  0.00    -0.013 A 
HETATM    6  S   UNL     1      39.839 -15.302   2.176  1.00  0.00    -0.076 SA
HETATM    7  C   UNL     1      39.900 -14.554  -0.477  1.00  0.00     0.057 C 
HETATM    8  C   UNL     1      40.398 -14.266   3.395  1.00  0.00     0.086 A 
BRANCH   8   9
HETATM    9  N   UNL     1      40.219 -14.662   4.704  1.00  0.00    -0.315 N 
HETATM   10  C   UNL     1      40.770 -15.733   5.388  1.00  0.00     0.280 C 
HETATM   11  O   UNL     1      40.229 -16.016   6.460  1.00  0.00    -0.265 OA
HETATM   12  H   UNL     1      39.442 -14.261   5.212  1.00  0.00     0.170 HD
BRANCH  10  13
HETATM   13  C   UNL     1      42.011 -16.344   4.963  1.00  0.00     0.142 A 
HETATM   14  O   UNL     1      42.053 -17.106   3.820  1.00  0.00    -0.317 OA
HETATM   15  C   UNL     1      43.330 -17.556   3.690  1.00  0.00     0.143 A 
HETATM   16  C   UNL     1      44.129 -17.033   4.678  1.00  0.00     0.027 A 
HETATM   17  C   UNL     1      43.287 -16.232   5.483  1.00  0.00     0.045 A 
ENDBRANCH  10  13
ENDBRANCH   8   9
ENDBRANCH   1   2
BRANCH   1  18
HETATM   18  N   UNL     1      42.613 -12.181   4.653  1.00  0.00    -0.056 N 
HETATM   19  H   UNL     1      42.987 -13.069   4.300  1.00  0.00     0.281 HD
HETATM   20  C   UNL     1      43.793 -11.222   4.641  1.00  0.00     0.256 C 
HETATM   21  C   UNL     1      44.954 -11.766   5.516  1.00  0.00     0.152 C 
HETATM   22  N   UNL     1      44.493 -12.083   6.890  1.00  0.00    -0.364 N 
HETATM   23  C   UNL     1      43.319 -12.994   6.934  1.00  0.00     0.152 C 
HETATM   24  C   UNL     1      42.138 -12.470   6.077  1.00  0.00     0.256 C 
BRANCH  22  25
HETATM   25  C   UNL     1      44.676 -11.139   7.888  1.00  0.00     0.102 A 
HETATM   26  N   UNL     1      43.771 -11.072   8.884  1.00  0.00    -0.352 N 
HETATM   27  H   UNL     1      42.961 -11.684   8.828  1.00  0.00     0.166 HD
HETATM   28  C   UNL     1      43.828 -10.194   9.898  1.00  0.00     0.089 A 
HETATM   29  C   UNL     1      44.855  -9.268   9.959  1.00  0.00     0.017 A 
HETATM   30  C   UNL     1      45.799  -9.259   8.946  1.00  0.00     0.005 A 
HETATM   31  C   UNL     1      45.708 -10.187   7.908  1.00  0.00     0.048 A 
ENDBRANCH  22  25
ENDBRANCH   1  18
BRANCH   1  32
HETATM   32  C   UNL     1      40.369 -10.978   4.270  1.00  0.00    -0.005 A 
HETATM   33  C   UNL     1      40.457  -9.608   3.999  1.00  0.00     0.125 A 
HETATM   34  N   UNL     1      39.626  -8.668   4.486  1.00  0.00    -0.273 NA
HETATM   35  C   UNL     1      38.591  -9.089   5.240  1.00  0.00     0.116 A 
HETATM   36  C   UNL     1      38.376 -10.418   5.542  1.00  0.00     0.020 A 
HETATM   37  C   UNL     1      39.275 -11.371   5.053  1.00  0.00     0.012 A 
ENDBRANCH   1  32
TORSDOF 6
ENDMDL
MODEL 2
REMARK VINA RESULT:      -8.4      2.965      6.877
REMARK  6 active torsions:
REMARK  status: ('A' for Active; 'I' for Inactive)
REMARK    1  A    between atoms: C_3  and  C_4 
REMARK    2  A    between atoms: C_4  and  N_5 
REMARK    3  A    between atoms: C_4  and  C_19 
REMARK    4  A    between atoms: N_9  and  C_10 
REMARK    5  A    between atoms: C_25  and  N_26 
REMARK       I    between atoms: N_26  and  C_27 
REMARK    6  A    between atoms: C_27  and  C_28 
ROOT
HETATM    1  C   UNL     1      41.107 -12.755   5.663  1.00  0.00     0.259 C 
ENDROOT
BRANCH   1   2
HETATM    2  C   UNL     1      41.236 -11.330   6.181  1.00  0.00     0.018 A 
HETATM    3  C   UNL     1      40.063 -10.470   6.394  1.00  0.00    -0.038 A 
HETATM    4  C   UNL     1      38.647 -10.845   6.055  1.00  0.00     0.050 C 
HETATM    5  C   UNL     1      40.408  -9.248   6.950  1.00  0.00    -0.013 A 
HETATM    6  S   UNL     1      42.084  -9.095   7.162  1.00  0.00    -0.076 SA
HETATM    7  C   UNL     1      39.518  -8.104   7.330  1.00  0.00     0.057 C 
HETATM    8  C   UNL     1      42.388 -10.659   6.581  1.00  0.00     0.086 A 
BRANCH   8   9
HETATM    9  N   UNL     1      43.703 -11.034   6.411  1.00  0.00    -0.315 N 
HETATM   10  C   UNL     1      44.812 -10.754   7.192  1.00  0.00     0.280 C 
HETATM   11  O   UNL     1      45.905 -10.976   6.666  1.00  0.00    -0.265 OA
HETATM   12  H   UNL     1      43.972 -11.400   5.508  1.00  0.00     0.170 HD
BRANCH  10  13
HETATM   13  C   UNL     1      44.684 -10.409   8.592  1.00  0.00     0.142 A 
HETATM   14  O   UNL     1      44.027 -11.251   9.457  1.00  0.00    -0.317 OA
HETATM   15  C   UNL     1      44.051 -10.659  10.681  1.00  0.00     0.143 A 
HETATM   16  C   UNL     1      44.780  -9.495  10.641  1.00  0.00     0.027 A 
HETATM   17  C   UNL     1      45.210  -9.345   9.302  1.00  0.00     0.045 A 
ENDBRANCH  10  13
ENDBRANCH   8   9
ENDBRANCH   1   2
BRANCH   1  18
HETATM   18  N   UNL     1      41.962 -13.855   6.322  1.00  0.00    -0.056 N 
HETATM   19  H   UNL     1      42.213 -13.448   7.231  1.00  0.00     0.281 HD
HETATM   20  C   UNL     1      41.276 -15.171   6.654  1.00  0.00     0.256 C 
HETATM   21  C   UNL     1      42.217 -16.092   7.475  1.00  0.00     0.152 C 
HETATM   22  N   UNL     1      43.518 -16.286   6.790  1.00  0.00    -0.364 N 
HETATM   23  C   UNL     1      44.199 -15.017   6.423  1.00  0.00     0.152 C 
HETATM   24  C   UNL     1      43.286 -14.080   5.591  1.00  0.00     0.256 C 
BRANCH  22  25
HETATM   25  C   UNL     1      43.697 -17.419   6.011  1.00  0.00     0.102 A 
HETATM   26  N   UNL     1      43.454 -18.624   6.564  1.00  0.00    -0.352 N 
HETATM   27  H   UNL     1      43.204 -18.650   7.549  1.00  0.00     0.166 HD
HETATM   28  C   UNL     1      43.605 -19.793   5.921  1.00  0.00     0.089 A 
HETATM   29  C   UNL     1      44.050 -19.814   4.611  1.00  0.00     0.017 A 
HETATM   30  C   UNL     1      44.352 -18.610   3.995  1.00  0.00     0.005 A 
HETATM   31  C   UNL     1      44.183 -17.415   4.694  1.00  0.00     0.048 A 
ENDBRANCH  22  25
ENDBRANCH   1  18
BRANCH   1  32
HETATM   32  C   UNL     1      41.094 -12.786   4.147  1.00  0.00    -0.005 A 
HETATM   33  C   UNL     1      40.267 -13.727   3.523  1.00  0.00     0.125 A 
HETATM   34  N   UNL     1      40.189 -13.929   2.195  1.00  0.00    -0.273 NA
HETATM   35  C   UNL     1      40.915 -13.117   1.403  1.00  0.00     0.116 A 
HETATM   36  C   UNL     1      41.738 -12.125   1.899  1.00  0.00     0.020 A 
HETATM   37  C   UNL     1      41.828 -11.960   3.284  1.00  0.00     0.012 A 
ENDBRANCH   1  32
TORSDOF 6
ENDMDL
MODEL 3
REMARK VINA RESULT:      -8.4      2.608      6.369
REMARK  6 active torsions:
REMARK  status: ('A' for Active; 'I' for Inactive)
REMARK    1  A    between atoms: C_3  and  C_4 
REMARK    2  A    between atoms: C_4  and  N_5 
REMARK    3  A    between atoms: C_4  and  C_19 
REMARK    4  A    between atoms: N_9  and  C_10 
REMARK    5  A    between atoms: C_25  and  N_26 
REMARK       I    between atoms: N_26  and  C_27 
REMARK    6  A    between atoms: C_27  and  C_28 
ROOT
HETATM    1  C   UNL     1      42.218 -12.716   2.826  1.00  0.00     0.259 C 
ENDROOT
BRANCH   1   2
HETATM    2  C   UNL     1      40.939 -11.890   2.815  1.00  0.00     0.018 A 
HETATM    3  C   UNL     1      40.778 -10.715   1.946  1.00  0.00    -0.038 A 
HETATM    4  C   UNL     1      41.851 -10.149   1.057  1.00  0.00     0.050 C 
HETATM    5  C   UNL     1      39.507 -10.171   2.038  1.00  0.00    -0.013 A 
HETATM    6  S   UNL     1      38.543 -10.991   3.167  1.00  0.00    -0.076 SA
HETATM    7  C   UNL     1      38.938  -8.987   1.317  1.00  0.00     0.057 C 
HETATM    8  C   UNL     1      39.759 -12.119   3.517  1.00  0.00     0.086 A 
BRANCH   8   9
HETATM    9  N   UNL     1      39.529 -13.011   4.542  1.00  0.00    -0.315 N 
HETATM   10  C   UNL     1      39.762 -12.878   5.901  1.00  0.00     0.280 C 
HETATM   11  O   UNL     1      39.725 -13.924   6.554  1.00  0.00    -0.265 OA
HETATM   12  H   UNL     1      39.348 -13.974   4.293  1.00  0.00     0.170 HD
BRANCH  10  13
HETATM   13  C   UNL     1      39.850 -11.578   6.530  1.00  0.00     0.142 A 
HETATM   14  O   UNL     1      38.885 -11.171   7.419  1.00  0.00    -0.317 OA
HETATM   15  C   UNL     1      39.221  -9.916   7.823  1.00  0.00     0.143 A 
HETATM   16  C   UNL     1      40.426  -9.540   7.278  1.00  0.00     0.027 A 
HETATM   17  C   UNL     1      40.844 -10.619   6.465  1.00  0.00     0.045 A 
ENDBRANCH  10  13
ENDBRANCH   8   9
ENDBRANCH   1   2
BRANCH   1  18
HETATM   18  N   UNL     1      42.162 -14.160   2.290  1.00  0.00    -0.056 N 
HETATM   19  H   UNL     1      41.645 -14.067   1.408  1.00  0.00     0.281 HD
HETATM   20  C   UNL     1      43.479 -14.816   1.908  1.00  0.00     0.256 C 
HETATM   21  C   UNL     1      43.234 -16.184   1.217  1.00  0.00     0.152 C 
HETATM   22  N   UNL     1      42.381 -17.066   2.050  1.00  0.00    -0.364 N 
HETATM   23  C   UNL     1      41.098 -16.440   2.467  1.00  0.00     0.152 C 
HETATM   24  C   UNL     1      41.313 -15.076   3.171  1.00  0.00     0.256 C 
BRANCH  22  25
HETATM   25  C   UNL     1      42.991 -18.006   2.866  1.00  0.00     0.102 A 
HETATM   26  N   UNL     1      43.388 -17.627   4.097  1.00  0.00    -0.352 N 
HETATM   27  H   UNL     1      43.271 -16.650   4.352  1.00  0.00     0.166 HD
HETATM   28  C   UNL     1      44.003 -18.438   4.974  1.00  0.00     0.089 A 
HETATM   29  C   UNL     1      44.282 -19.749   4.631  1.00  0.00     0.017 A 
HETATM   30  C   UNL     1      43.932 -20.191   3.366  1.00  0.00     0.005 A 
HETATM   31  C   UNL     1      43.294 -19.321   2.482  1.00  0.00     0.048 A 
ENDBRANCH  22  25
ENDBRANCH   1  18
BRANCH   1  32
HETATM   32  C   UNL     1      42.961 -12.555   4.138  1.00  0.00    -0.005 A 
HETATM   33  C   UNL     1      43.707 -11.385   4.323  1.00  0.00     0.125 A 
HETATM   34  N   UNL     1      44.473 -11.118   5.396  1.00  0.00    -0.273 NA
HETATM   35  C   UNL     1      44.469 -12.019   6.398  1.00  0.00     0.116 A 
HETATM   36  C   UNL     1      43.742 -13.191   6.349  1.00  0.00     0.020 A 
HETATM   37  C   UNL     1      42.982 -13.461   5.207  1.00  0.00     0.012 A 
ENDBRANCH   1  32
TORSDOF 6
ENDMDL
MODEL 4
REMARK VINA RESULT:      -8.2      2.393      6.706
REMARK  6 active torsions:
REMARK  status: ('A' for Active; 'I' for Inactive)
REMARK    1  A    between atoms: C_3  and  C_4 
REMARK    2  A    between atoms: C_4  and  N_5 
REMARK    3  A    between atoms: C_4  and  C_19 
REMARK    4  A    between atoms: N_9  and  C_10 
REMARK    5  A    between atoms: C_25  and  N_26 
REMARK       I    between atoms: N_26  and  C_27 
REMARK    6  A    between atoms: C_27  and  C_28 
ROOT
HETATM    1  C   UNL     1      40.566 -12.972   4.046  1.00  0.00     0.259 C 
ENDROOT
BRANCH   1   2
HETATM    2  C   UNL     1      41.780 -12.900   4.960  1.00  0.00     0.018 A 
HETATM    3  C   UNL     1      42.939 -12.050   4.649  1.00  0.00    -0.038 A 
HETATM    4  C   UNL     1      43.102 -11.242   3.391  1.00  0.00     0.050 C 
HETATM    5  C   UNL     1      43.888 -12.074   5.659  1.00  0.00    -0.013 A 
HETATM    6  S   UNL     1      43.450 -13.122   6.919  1.00  0.00    -0.076 SA
HETATM    7  C   UNL     1      45.195 -11.345   5.738  1.00  0.00     0.057 C 
HETATM    8  C   UNL     1      41.972 -13.521   6.190  1.00  0.00     0.086 A 
BRANCH   8   9
HETATM    9  N   UNL     1      41.214 -14.509   6.781  1.00  0.00    -0.315 N 
HETATM   10  C   UNL     1      40.974 -15.809   6.365  1.00  0.00     0.280 C 
HETATM   11  O   UNL     1      40.041 -16.386   6.930  1.00  0.00    -0.265 OA
HETATM   12  H   UNL     1      40.574 -14.233   7.513  1.00  0.00     0.170 HD
BRANCH  10  13
HETATM   13  C   UNL     1      41.880 -16.496   5.470  1.00  0.00     0.142 A 
HETATM   14  O   UNL     1      41.741 -16.368   4.109  1.00  0.00    -0.317 OA
HETATM   15  C   UNL     1      42.710 -17.133   3.538  1.00  0.00     0.143 A 
HETATM   16  C   UNL     1      43.521 -17.683   4.501  1.00  0.00     0.027 A 
HETATM   17  C   UNL     1      43.003 -17.254   5.744  1.00  0.00     0.045 A 
ENDBRANCH  10  13
ENDBRANCH   8   9
ENDBRANCH   1   2
BRANCH   1  18
HETATM   18  N   UNL     1      40.725 -13.642   2.667  1.00  0.00    -0.056 N 
HETATM   19  H   UNL     1      41.583 -14.195   2.769  1.00  0.00     0.281 HD
HETATM   20  C   UNL     1      39.658 -14.640   2.246  1.00  0.00     0.256 C 
HETATM   21  C   UNL     1      40.062 -15.356   0.929  1.00  0.00     0.152 C 
HETATM   22  N   UNL     1      40.381 -14.380  -0.141  1.00  0.00    -0.364 N 
HETATM   23  C   UNL     1      41.398 -13.370   0.251  1.00  0.00     0.152 C 
HETATM   24  C   UNL     1      41.016 -12.630   1.558  1.00  0.00     0.256 C 
BRANCH  22  25
HETATM   25  C   UNL     1      39.394 -14.050  -1.058  1.00  0.00     0.102 A 
HETATM   26  N   UNL     1      38.598 -12.995  -0.794  1.00  0.00    -0.352 N 
HETATM   27  H   UNL     1      38.722 -12.521   0.097  1.00  0.00     0.166 HD
HETATM   28  C   UNL     1      37.599 -12.586  -1.592  1.00  0.00     0.089 A 
HETATM   29  C   UNL     1      37.321 -13.268  -2.764  1.00  0.00     0.017 A 
HETATM   30  C   UNL     1      38.080 -14.384  -3.076  1.00  0.00     0.005 A 
HETATM   31  C   UNL     1      39.110 -14.780  -2.223  1.00  0.00     0.048 A 
ENDBRANCH  22  25
ENDBRANCH   1  18
BRANCH   1  32
HETATM   32  C   UNL     1      39.816 -11.654   4.028  1.00  0.00    -0.005 A 
HETATM   33  C   UNL     1      39.502 -11.069   5.259  1.00  0.00     0.125 A 
HETATM   34  N   UNL     1      38.787  -9.939   5.419  1.00  0.00    -0.273 NA
HETATM   35  C   UNL     1      38.401  -9.290   4.304  1.00  0.00     0.116 A 
HETATM   36  C   UNL     1      38.686  -9.747   3.033  1.00  0.00     0.020 A 
HETATM   37  C   UNL     1      39.400 -10.941   2.895  1.00  0.00     0.012 A 
ENDBRANCH   1  32
TORSDOF 6
ENDMDL
MODEL 5
REMARK VINA RESULT:      -8.2      3.582      7.863
REMARK  6 active torsions:
REMARK  status: ('A' for Active; 'I' for Inactive)
REMARK    1  A    between atoms: C_3  and  C_4 
REMARK    2  A    between atoms: C_4  and  N_5 
REMARK    3  A    between atoms: C_4  and  C_19 
REMARK    4  A    between atoms: N_9  and  C_10 
REMARK    5  A    between atoms: C_25  and  N_26 
REMARK       I    between atoms: N_26  and  C_27 
REMARK    6  A    between atoms: C_27  and  C_28 
ROOT
HETATM    1  C   UNL     1      42.729 -10.459   6.934  1.00  0.00     0.259 C 
ENDROOT
BRANCH   1   2
HETATM    2  C   UNL     1      41.487  -9.587   7.050  1.00  0.00     0.018 A 
HETATM    3  C   UNL     1      40.966  -8.817   5.911  1.00  0.00    -0.038 A 
HETATM    4  C   UNL     1      41.623  -8.728   4.560  1.00  0.00     0.050 C 
HETATM    5  C   UNL     1      39.783  -8.166   6.221  1.00  0.00    -0.013 A 
HETATM    6  S   UNL     1      39.327  -8.408   7.836  1.00  0.00    -0.076 SA
HETATM    7  C   UNL     1      38.933  -7.296   5.346  1.00  0.00     0.057 C 
HETATM    8  C   UNL     1      40.647  -9.426   8.147  1.00  0.00     0.086 A 
BRANCH   8   9
HETATM    9  N   UNL     1      40.842  -9.841   9.447  1.00  0.00    -0.315 N 
HETATM   10  C   UNL     1      41.412  -9.167  10.516  1.00  0.00     0.280 C 
HETATM   11  O   UNL     1      41.714  -9.866  11.487  1.00  0.00    -0.265 OA
HETATM   12  H   UNL     1      40.750 -10.829   9.642  1.00  0.00     0.170 HD
BRANCH  10  13
HETATM   13  C   UNL     1      41.466  -7.722  10.556  1.00  0.00     0.142 A 
HETATM   14  O   UNL     1      40.414  -7.002  11.071  1.00  0.00    -0.317 OA
HETATM   15  C   UNL     1      40.741  -5.687  10.958  1.00  0.00     0.143 A 
HETATM   16  C   UNL     1      42.014  -5.546  10.461  1.00  0.00     0.027 A 
HETATM   17  C   UNL     1      42.492  -6.856  10.225  1.00  0.00     0.045 A 
ENDBRANCH  10  13
ENDBRANCH   8   9
ENDBRANCH   1   2
BRANCH   1  18
HETATM   18  N   UNL     1      42.543 -11.977   6.742  1.00  0.00    -0.056 N 
HETATM   19  H   UNL     1      42.259 -12.301   7.674  1.00  0.00     0.281 HD
HETATM   20  C   UNL     1      41.434 -12.434   5.809  1.00  0.00     0.256 C 
HETATM   21  C   UNL     1      41.260 -13.975   5.873  1.00  0.00     0.152 C 
HETATM   22  N   UNL     1      42.542 -14.676   5.618  1.00  0.00    -0.364 N 
HETATM   23  C   UNL     1      43.655 -14.227   6.494  1.00  0.00     0.152 C 
HETATM   24  C   UNL     1      43.861 -12.692   6.442  1.00  0.00     0.256 C 
BRANCH  22  25
HETATM   25  C   UNL     1      42.808 -15.130   4.335  1.00  0.00     0.102 A 
HETATM   26  N   UNL     1      42.983 -14.222   3.355  1.00  0.00    -0.352 N 
HETATM   27  H   UNL     1      42.855 -13.242   3.590  1.00  0.00     0.166 HD
HETATM   28  C   UNL     1      43.230 -14.535   2.072  1.00  0.00     0.089 A 
HETATM   29  C   UNL     1      43.304 -15.861   1.682  1.00  0.00     0.017 A 
HETATM   30  C   UNL     1      43.098 -16.844   2.635  1.00  0.00     0.005 A 
HETATM   31  C   UNL     1      42.844 -16.482   3.958  1.00  0.00     0.048 A 
ENDBRANCH  22  25
ENDBRANCH   1  18
BRANCH   1  32
HETATM   32  C   UNL     1      43.767 -10.073   7.970  1.00  0.00    -0.005 A 
HETATM   33  C   UNL     1      44.022 -10.981   9.004  1.00  0.00     0.125 A 
HETATM   34  N   UNL     1      44.860 -10.765  10.034  1.00  0.00    -0.273 NA
HETATM   35  C   UNL     1      45.556  -9.612  10.033  1.00  0.00     0.116 A 
HETATM   36  C   UNL     1      45.421  -8.655   9.047  1.00  0.00     0.020 A 
HETATM   37  C   UNL     1      44.517  -8.889   8.007  1.00  0.00     0.012 A 
ENDBRANCH   1  32
TORSDOF 6
ENDMDL
MODEL 6
REMARK VINA RESULT:      -8.1      2.544      4.921
REMARK  6 active torsions:
REMARK  status: ('A' for Active; 'I' for Inactive)
REMARK    1  A    between atoms: C_3  and  C_4 
REMARK    2  A    between atoms: C_4  and  N_5 
REMARK    3  A    between atoms: C_4  and  C_19 
REMARK    4  A    between atoms: N_9  and  C_10 
REMARK    5  A    between atoms: C_25  and  N_26 
REMARK       I    between atoms: N_26  and  C_27 
REMARK    6  A    between atoms: C_27  and  C_28 
ROOT
HETATM    1  C   UNL     1      41.039 -12.811   4.429  1.00  0.00     0.259 C 
ENDROOT
BRANCH   1   2
HETATM    2  C   UNL     1      40.343 -11.574   3.879  1.00  0.00     0.018 A 
HETATM    3  C   UNL     1      40.696 -10.998   2.573  1.00  0.00    -0.038 A 
HETATM    4  C   UNL     1      41.810 -11.487   1.689  1.00  0.00     0.050 C 
HETATM    5  C   UNL     1      39.877  -9.931   2.237  1.00  0.00    -0.013 A 
HETATM    6  S   UNL     1      38.756  -9.579   3.460  1.00  0.00    -0.076 SA
HETATM    7  C   UNL     1      39.898  -9.084   1.001  1.00  0.00     0.057 C 
HETATM    8  C   UNL     1      39.284 -10.862   4.434  1.00  0.00     0.086 A 
BRANCH   8   9
HETATM    9  N   UNL     1      38.749 -10.967   5.700  1.00  0.00    -0.315 N 
HETATM   10  C   UNL     1      39.243 -10.510   6.911  1.00  0.00     0.280 C 
HETATM   11  O   UNL     1      38.706 -10.979   7.918  1.00  0.00    -0.265 OA
HETATM   12  H   UNL     1      37.993 -11.625   5.836  1.00  0.00     0.170 HD
BRANCH  10  13
HETATM   13  C   UNL     1      40.191  -9.418   6.977  1.00  0.00     0.142 A 
HETATM   14  O   UNL     1      41.491  -9.649   7.357  1.00  0.00    -0.317 OA
HETATM   15  C   UNL     1      42.127  -8.448   7.344  1.00  0.00     0.143 A 
HETATM   16  C   UNL     1      41.288  -7.462   6.883  1.00  0.00     0.027 A 
HETATM   17  C   UNL     1      40.049  -8.089   6.623  1.00  0.00     0.045 A 
ENDBRANCH  10  13
ENDBRANCH   8   9
ENDBRANCH   1   2
BRANCH   1  18
HETATM   18  N   UNL     1      42.449 -12.652   5.030  1.00  0.00    -0.056 N 
HETATM   19  H   UNL     1      43.030 -13.258   4.438  1.00  0.00     0.281 HD
HETATM   20  C   UNL     1      43.095 -11.278   4.945  1.00  0.00     0.256 C 
HETATM   21  C   UNL     1      44.572 -11.333   5.421  1.00  0.00     0.152 C 
HETATM   22  N   UNL     1      44.682 -11.930   6.774  1.00  0.00    -0.364 N 
HETATM   23  C   UNL     1      44.031 -13.260   6.898  1.00  0.00     0.152 C 
HETATM   24  C   UNL     1      42.550 -13.234   6.440  1.00  0.00     0.256 C 
BRANCH  22  25
HETATM   25  C   UNL     1      44.747 -11.084   7.871  1.00  0.00     0.102 A 
HETATM   26  N   UNL     1      43.822 -11.219   8.842  1.00  0.00    -0.352 N 
HETATM   27  H   UNL     1      43.081 -11.900   8.698  1.00  0.00     0.166 HD
HETATM   28  C   UNL     1      43.768 -10.453   9.944  1.00  0.00     0.089 A 
HETATM   29  C   UNL     1      44.691  -9.439  10.131  1.00  0.00     0.017 A 
HETATM   30  C   UNL     1      45.648  -9.225   9.153  1.00  0.00     0.005 A 
HETATM   31  C   UNL     1      45.673 -10.040   8.021  1.00  0.00     0.048 A 
ENDBRANCH  22  25
ENDBRANCH   1  18
BRANCH   1  32
HETATM   32  C   UNL     1      40.880 -13.991   3.489  1.00  0.00    -0.005 A 
HETATM   33  C   UNL     1      41.985 -14.830   3.307  1.00  0.00     0.125 A 
HETATM   34  N   UNL     1      42.031 -15.877   2.462  1.00  0.00    -0.273 NA
HETATM   35  C   UNL     1      40.904 -16.176   1.788  1.00  0.00     0.116 A 
HETATM   36  C   UNL     1      39.739 -15.447   1.914  1.00  0.00     0.020 A 
HETATM   37  C   UNL     1      39.728 -14.343   2.772  1.00  0.00     0.012 A 
ENDBRANCH   1  32
TORSDOF 6
ENDMDL
MODEL 7
REMARK VINA RESULT:      -8.1      2.984      7.921
REMARK  6 active torsions:
REMARK  status: ('A' for Active; 'I' for Inactive)
REMARK    1  A    between atoms: C_3  and  C_4 
REMARK    2  A    between atoms: C_4  and  N_5 
REMARK    3  A    between atoms: C_4  and  C_19 
REMARK    4  A    between atoms: N_9  and  C_10 
REMARK    5  A    between atoms: C_25  and  N_26 
REMARK       I    between atoms: N_26  and  C_27 
REMARK    6  A    between atoms: C_27  and  C_28 
ROOT
HETATM    1  C   UNL     1      42.984 -12.163   5.172  1.00  0.00     0.259 C 
ENDROOT
BRANCH   1   2
HETATM    2  C   UNL     1      43.198 -11.242   6.365  1.00  0.00     0.018 A 
HETATM    3  C   UNL     1      44.542 -10.902   6.856  1.00  0.00    -0.038 A 
HETATM    4  C   UNL     1      45.825 -11.472   6.316  1.00  0.00     0.050 C 
HETATM    5  C   UNL     1      44.500  -9.984   7.893  1.00  0.00    -0.013 A 
HETATM    6  S   UNL     1      42.909  -9.576   8.319  1.00  0.00    -0.076 SA
HETATM    7  C   UNL     1      45.637  -9.376   8.656  1.00  0.00     0.057 C 
HETATM    8  C   UNL     1      42.241 -10.555   7.106  1.00  0.00     0.086 A 
BRANCH   8   9
HETATM    9  N   UNL     1      40.871 -10.699   7.083  1.00  0.00    -0.315 N 
HETATM   10  C   UNL     1      39.892  -9.802   6.685  1.00  0.00     0.280 C 
HETATM   11  O   UNL     1      38.741 -10.083   7.027  1.00  0.00    -0.265 OA
HETATM   12  H   UNL     1      40.472 -11.474   7.596  1.00  0.00     0.170 HD
BRANCH  10  13
HETATM   13  C   UNL     1      40.186  -8.719   5.772  1.00  0.00     0.142 A 
HETATM   14  O   UNL     1      40.625  -8.986   4.497  1.00  0.00    -0.317 OA
HETATM   15  C   UNL     1      40.833  -7.787   3.890  1.00  0.00     0.143 A 
HETATM   16  C   UNL     1      40.456  -6.756   4.716  1.00  0.00     0.027 A 
HETATM   17  C   UNL     1      40.016  -7.355   5.919  1.00  0.00     0.045 A 
ENDBRANCH  10  13
ENDBRANCH   8   9
ENDBRANCH   1   2
BRANCH   1  18
HETATM   18  N   UNL     1      41.967 -11.741   4.094  1.00  0.00    -0.056 N 
HETATM   19  H   UNL     1      41.673 -10.805   4.397  1.00  0.00     0.281 HD
HETATM   20  C   UNL     1      42.486 -11.553   2.677  1.00  0.00     0.256 C 
HETATM   21  C   UNL     1      41.386 -10.952   1.762  1.00  0.00     0.152 C 
HETATM   22  N   UNL     1      40.142 -11.759   1.810  1.00  0.00    -0.364 N 
HETATM   23  C   UNL     1      39.627 -11.987   3.185  1.00  0.00     0.152 C 
HETATM   24  C   UNL     1      40.702 -12.599   4.120  1.00  0.00     0.256 C 
BRANCH  22  25
HETATM   25  C   UNL     1      39.926 -12.707   0.821  1.00  0.00     0.102 A 
HETATM   26  N   UNL     1      39.405 -12.303  -0.354  1.00  0.00    -0.352 N 
HETATM   27  H   UNL     1      39.140 -11.325  -0.442  1.00  0.00     0.166 HD
HETATM   28  C   UNL     1      39.135 -13.124  -1.382  1.00  0.00     0.089 A 
HETATM   29  C   UNL     1      39.376 -14.482  -1.268  1.00  0.00     0.017 A 
HETATM   30  C   UNL     1      39.878 -14.968  -0.072  1.00  0.00     0.005 A 
HETATM   31  C   UNL     1      40.147 -14.085   0.974  1.00  0.00     0.048 A 
ENDBRANCH  22  25
ENDBRANCH   1  18
BRANCH   1  32
HETATM   32  C   UNL     1      42.879 -13.611   5.611  1.00  0.00    -0.005 A 
HETATM   33  C   UNL     1      43.140 -14.600   4.656  1.00  0.00     0.125 A 
HETATM   34  N   UNL     1      43.027 -15.925   4.864  1.00  0.00    -0.273 NA
HETATM   35  C   UNL     1      42.701 -16.330   6.106  1.00  0.00     0.116 A 
HETATM   36  C   UNL     1      42.459 -15.450   7.142  1.00  0.00     0.020 A 
HETATM   37  C   UNL     1      42.548 -14.078   6.891  1.00  0.00     0.012 A 
ENDBRANCH   1  32
TORSDOF 6
ENDMDL
MODEL 8
REMARK VINA RESULT:      -8.0      3.444      6.101
REMARK  6 active torsions:
REMARK  status: ('A' for Active; 'I' for Inactive)
REMARK    1  A    between atoms: C_3  and  C_4 
REMARK    2  A    between atoms: C_4  and  N_5 
REMARK    3  A    between atoms: C_4  and  C_19 
REMARK    4  A    between atoms: N_9  and  C_10 
REMARK    5  A    between atoms: C_25  and  N_26 
REMARK       I    between atoms: N_26  and  C_27 
REMARK    6  A    between atoms: C_27  and  C_28 
ROOT
HETATM    1  C   UNL     1      39.690 -13.086   0.474  1.00  0.00     0.259 C 
ENDROOT
BRANCH   1   2
HETATM    2  C   UNL     1      40.249 -11.671   0.506  1.00  0.00     0.018 A 
HETATM    3  C   UNL     1      41.085 -11.139  -0.581  1.00  0.00    -0.038 A 
HETATM    4  C   UNL     1      41.550 -11.928  -1.774  1.00  0.00     0.050 C 
HETATM    5  C   UNL     1      41.409  -9.806  -0.383  1.00  0.00    -0.013 A 
HETATM    6  S   UNL     1      40.791  -9.211   1.080  1.00  0.00    -0.076 SA
HETATM    7  C   UNL     1      42.226  -8.900  -1.252  1.00  0.00     0.057 C 
HETATM    8  C   UNL     1      40.032 -10.679   1.457  1.00  0.00     0.086 A 
BRANCH   8   9
HETATM    9  N   UNL     1      39.441 -10.794   2.697  1.00  0.00    -0.315 N 
HETATM   10  C   UNL     1      39.897 -11.429   3.841  1.00  0.00     0.280 C 
HETATM   11  O   UNL     1      39.052 -11.617   4.720  1.00  0.00    -0.265 OA
HETATM   12  H   UNL     1      38.458 -10.567   2.770  1.00  0.00     0.170 HD
BRANCH  10  13
HETATM   13  C   UNL     1      41.307 -11.675   4.057  1.00  0.00     0.142 A 
HETATM   14  O   UNL     1      42.249 -10.831   3.521  1.00  0.00    -0.317 OA
HETATM   15  C   UNL     1      43.467 -11.322   3.872  1.00  0.00     0.143 A 
HETATM   16  C   UNL     1      43.329 -12.415   4.693  1.00  0.00     0.027 A 
HETATM   17  C   UNL     1      41.938 -12.629   4.834  1.00  0.00     0.045 A 
ENDBRANCH  10  13
ENDBRANCH   8   9
ENDBRANCH   1   2
BRANCH   1  18
HETATM   18  N   UNL     1      40.597 -14.243   0.935  1.00  0.00    -0.056 N 
HETATM   19  H   UNL     1      40.802 -14.747   0.065  1.00  0.00     0.281 HD
HETATM   20  C   UNL     1      41.956 -13.880   1.511  1.00  0.00     0.256 C 
HETATM   21  C   UNL     1      42.812 -15.153   1.750  1.00  0.00     0.152 C 
HETATM   22  N   UNL     1      42.088 -16.143   2.583  1.00  0.00    -0.364 N 
HETATM   23  C   UNL     1      40.741 -16.495   2.063  1.00  0.00     0.152 C 
HETATM   24  C   UNL     1      39.858 -15.243   1.826  1.00  0.00     0.256 C 
BRANCH  22  25
HETATM   25  C   UNL     1      42.334 -16.172   3.948  1.00  0.00     0.102 A 
HETATM   26  N   UNL     1      41.282 -16.162   4.790  1.00  0.00    -0.352 N 
HETATM   27  H   UNL     1      40.354 -16.077   4.387  1.00  0.00     0.166 HD
HETATM   28  C   UNL     1      41.389 -16.172   6.129  1.00  0.00     0.089 A 
HETATM   29  C   UNL     1      42.637 -16.177   6.728  1.00  0.00     0.017 A 
HETATM   30  C   UNL     1      43.760 -16.151   5.917  1.00  0.00     0.005 A 
HETATM   31  C   UNL     1      43.611 -16.142   4.530  1.00  0.00     0.048 A 
ENDBRANCH  22  25
ENDBRANCH   1  18
BRANCH   1  32
HETATM   32  C   UNL     1      38.937 -13.347  -0.817  1.00  0.00    -0.005 A 
HETATM   33  C   UNL     1      39.258 -14.505  -1.533  1.00  0.00     0.125 A 
HETATM   34  N   UNL     1      38.733 -14.849  -2.724  1.00  0.00    -0.273 NA
HETATM   35  C   UNL     1      37.777 -14.047  -3.232  1.00  0.00     0.116 A 
HETATM   36  C   UNL     1      37.348 -12.898  -2.599  1.00  0.00     0.020 A 
HETATM   37  C   UNL     1      37.935 -12.545  -1.381  1.00  0.00     0.012 A 
ENDBRANCH   1  32
TORSDOF 6
ENDMDL
MODEL 9
REMARK VINA RESULT:      -7.9      3.490      6.728
REMARK  6 active torsions:
REMARK  status: ('A' for Active; 'I' for Inactive)
REMARK    1  A    between atoms: C_3  and  C_4 
REMARK    2  A    between atoms: C_4  and  N_5 
REMARK    3  A    between atoms: C_4  and  C_19 
REMARK    4  A    between atoms: N_9  and  C_10 
REMARK    5  A    between atoms: C_25  and  N_26 
REMARK       I    between atoms: N_26  and  C_27 
REMARK    6  A    between atoms: C_27  and  C_28 
ROOT
HETATM    1  C   UNL     1      39.691 -12.686   1.364  1.00  0.00     0.259 C 
ENDROOT
BRANCH   1   2
HETATM    2  C   UNL     1      39.453 -11.187   1.481  1.00  0.00     0.018 A 
HETATM    3  C   UNL     1      38.277 -10.537   0.884  1.00  0.00    -0.038 A 
HETATM    4  C   UNL     1      37.246 -11.233   0.037  1.00  0.00     0.050 C 
HETATM    5  C   UNL     1      38.219  -9.186   1.186  1.00  0.00    -0.013 A 
HETATM    6  S   UNL     1      39.553  -8.682   2.105  1.00  0.00    -0.076 SA
HETATM    7  C   UNL     1      37.187  -8.177   0.785  1.00  0.00     0.057 C 
HETATM    8  C   UNL     1      40.206 -10.245   2.175  1.00  0.00     0.086 A 
BRANCH   8   9
HETATM    9  N   UNL     1      41.452 -10.394   2.745  1.00  0.00    -0.315 N 
HETATM   10  C   UNL     1      41.815 -10.439   4.081  1.00  0.00     0.280 C 
HETATM   11  O   UNL     1      43.019 -10.300   4.312  1.00  0.00    -0.265 OA
HETATM   12  H   UNL     1      42.258 -10.261   2.149  1.00  0.00     0.170 HD
BRANCH  10  13
HETATM   13  C   UNL     1      40.870 -10.817   5.109  1.00  0.00     0.142 A 
HETATM   14  O   UNL     1      40.644 -12.143   5.391  1.00  0.00    -0.317 OA
HETATM   15  C   UNL     1      39.705 -12.185   6.374  1.00  0.00     0.143 A 
HETATM   16  C   UNL     1      39.383 -10.916   6.789  1.00  0.00     0.027 A 
HETATM   17  C   UNL     1      40.150 -10.035   5.993  1.00  0.00     0.045 A 
ENDBRANCH  10  13
ENDBRANCH   8   9
ENDBRANCH   1   2
BRANCH   1  18
HETATM   18  N   UNL     1      40.554 -13.376   2.439  1.00  0.00    -0.056 N 
HETATM   19  H   UNL     1      40.596 -12.681   3.193  1.00  0.00     0.281 HD
HETATM   20  C   UNL     1      39.993 -14.631   3.088  1.00  0.00     0.256 C 
HETATM   21  C   UNL     1      40.891 -15.090   4.268  1.00  0.00     0.152 C 
HETATM   22  N   UNL     1      42.302 -15.253   3.843  1.00  0.00    -0.364 N 
HETATM   23  C   UNL     1      42.870 -14.053   3.175  1.00  0.00     0.152 C 
HETATM   24  C   UNL     1      42.000 -13.577   1.983  1.00  0.00     0.256 C 
BRANCH  22  25
HETATM   25  C   UNL     1      42.750 -16.518   3.495  1.00  0.00     0.102 A 
HETATM   26  N   UNL     1      43.665 -17.116   4.284  1.00  0.00    -0.352 N 
HETATM   27  H   UNL     1      44.027 -16.586   5.072  1.00  0.00     0.166 HD
HETATM   28  C   UNL     1      44.187 -18.330   4.048  1.00  0.00     0.089 A 
HETATM   29  C   UNL     1      43.805 -19.045   2.926  1.00  0.00     0.017 A 
HETATM   30  C   UNL     1      42.894 -18.471   2.054  1.00  0.00     0.005 A 
HETATM   31  C   UNL     1      42.372 -17.208   2.332  1.00  0.00     0.048 A 
ENDBRANCH  22  25
ENDBRANCH   1  18
BRANCH   1  32
HETATM   32  C   UNL     1      40.023 -13.077  -0.063  1.00  0.00    -0.005 A 
HETATM   33  C   UNL     1      40.782 -12.181  -0.823  1.00  0.00     0.125 A 
HETATM   34  N   UNL     1      41.105 -12.346  -2.119  1.00  0.00    -0.273 NA
HETATM   35  C   UNL     1      40.722 -13.494  -2.710  1.00  0.00     0.116 A 
HETATM   36  C   UNL     1      40.004 -14.472  -2.052  1.00  0.00     0.020 A 
HETATM   37  C   UNL     1      39.650 -14.260  -0.717  1.00  0.00     0.012 A 
ENDBRANCH   1  32
TORSDOF 6
ENDMDL
MODEL 10
REMARK VINA RESULT:      -7.9      4.261      7.517
REMARK  6 active torsions:
REMARK  status: ('A' for Active; 'I' for Inactive)
REMARK    1  A    between atoms: C_3  and  C_4 
REMARK    2  A    between atoms: C_4  and  N_5 
REMARK    3  A    between atoms: C_4  and  C_19 
REMARK    4  A    between atoms: N_9  and  C_10 
REMARK    5  A    between atoms: C_25  and  N_26 
REMARK       I    between atoms: N_26  and  C_27 
REMARK    6  A    between atoms: C_27  and  C_28 
ROOT
HETATM    1  C   UNL     1      39.627 -12.922   0.631  1.00  0.00     0.259 C 
ENDROOT
BRANCH   1   2
HETATM    2  C   UNL     1      40.157 -11.497   0.547  1.00  0.00     0.018 A 
HETATM    3  C   UNL     1      39.821 -10.481   1.556  1.00  0.00    -0.038 A 
HETATM    4  C   UNL     1      38.875 -10.690   2.706  1.00  0.00     0.050 C 
HETATM    5  C   UNL     1      40.481  -9.284   1.328  1.00  0.00    -0.013 A 
HETATM    6  S   UNL     1      41.430  -9.338  -0.078  1.00  0.00    -0.076 SA
HETATM    7  C   UNL     1      40.424  -8.014   2.121  1.00  0.00     0.057 C 
HETATM    8  C   UNL     1      41.039 -10.959  -0.384  1.00  0.00     0.086 A 
BRANCH   8   9
HETATM    9  N   UNL     1      41.481 -11.511  -1.568  1.00  0.00    -0.315 N 
HETATM   10  C   UNL     1      40.998 -11.347  -2.856  1.00  0.00     0.280 C 
HETATM   11  O   UNL     1      41.399 -12.167  -3.684  1.00  0.00    -0.265 OA
HETATM   12  H   UNL     1      42.116 -12.295  -1.510  1.00  0.00     0.170 HD
BRANCH  10  13
HETATM   13  C   UNL     1      40.231 -10.179  -3.233  1.00  0.00     0.142 A 
HETATM   14  O   UNL     1      40.870  -9.021  -3.609  1.00  0.00    -0.317 OA
HETATM   15  C   UNL     1      39.902  -8.106  -3.883  1.00  0.00     0.143 A 
HETATM   16  C   UNL     1      38.655  -8.673  -3.773  1.00  0.00     0.027 A 
HETATM   17  C   UNL     1      38.866 -10.015  -3.379  1.00  0.00     0.045 A 
ENDBRANCH  10  13
ENDBRANCH   8   9
ENDBRANCH   1   2
BRANCH   1  18
HETATM   18  N   UNL     1      40.521 -13.999   1.275  1.00  0.00    -0.056 N 
HETATM   19  H   UNL     1      40.716 -14.642   0.499  1.00  0.00     0.281 HD
HETATM   20  C   UNL     1      41.887 -13.565   1.782  1.00  0.00     0.256 C 
HETATM   21  C   UNL     1      42.727 -14.793   2.225  1.00  0.00     0.152 C 
HETATM   22  N   UNL     1      41.993 -15.623   3.211  1.00  0.00    -0.364 N 
HETATM   23  C   UNL     1      40.639 -16.037   2.758  1.00  0.00     0.152 C 
HETATM   24  C   UNL     1      39.772 -14.829   2.319  1.00  0.00     0.256 C 
BRANCH  22  25
HETATM   25  C   UNL     1      42.243 -15.430   4.561  1.00  0.00     0.102 A 
HETATM   26  N   UNL     1      41.531 -16.142   5.456  1.00  0.00    -0.352 N 
HETATM   27  H   UNL     1      40.799 -16.751   5.099  1.00  0.00     0.166 HD
HETATM   28  C   UNL     1      41.668 -16.036   6.787  1.00  0.00     0.089 A 
HETATM   29  C   UNL     1      42.577 -15.139   7.323  1.00  0.00     0.017 A 
HETATM   30  C   UNL     1      43.317 -14.350   6.457  1.00  0.00     0.005 A 
HETATM   31  C   UNL     1      43.147 -14.488   5.080  1.00  0.00     0.048 A 
ENDBRANCH  22  25
ENDBRANCH   1  18
BRANCH   1  32
HETATM   32  C   UNL     1      38.971 -13.338  -0.671  1.00  0.00    -0.005 A 
HETATM   33  C   UNL     1      39.497 -14.451  -1.337  1.00  0.00     0.125 A 
HETATM   34  N   UNL     1      39.075 -14.910  -2.530  1.00  0.00    -0.273 NA
HETATM   35  C   UNL     1      38.023 -14.286  -3.094  1.00  0.00     0.116 A 
HETATM   36  C   UNL     1      37.394 -13.202  -2.515  1.00  0.00     0.020 A 
HETATM   37  C   UNL     1      37.875 -12.724  -1.293  1.00  0.00     0.012 A 
ENDBRANCH   1  32
TORSDOF 6
ENDMDL
