MODEL 1
REMARK VINA RESULT:      -8.8      0.000      0.000
REMARK  8 active torsions:
REMARK  status: ('A' for Active; 'I' for Inactive)
REMARK    1  A    between atoms: C_2  and  O_3 
REMARK    2  A    between atoms: O_3  and  C_4 
REMARK    3  A    between atoms: C_5  and  O_6 
REMARK    4  A    between atoms: O_6  and  C_7 
REMARK    5  A    between atoms: C_7  and  C_8 
REMARK       I    between atoms: C_8  and  N_9 
REMARK    6  A    between atoms: C_13  and  C_14 
REMARK    7  A    between atoms: C_21  and  C_22 
REMARK       I    between atoms: C_22  and  N_23 
REMARK    8  A    between atoms: N_23  and  C_24 
ROOT
HETATM    1  C   UNL     1      40.077 -13.302   3.743  1.00  0.00     0.160 C 
HETATM    2  N   UNL     1      39.432 -12.085   4.197  1.00  0.00    -0.330 N 
HETATM    3  C   UNL     1      39.579 -11.582   5.447  1.00  0.00     0.321 C 
HETATM    4  O   UNL     1      38.808 -10.743   5.899  1.00  0.00    -0.247 OA
HETATM    5  N   UNL     1      40.653 -12.038   6.149  1.00  0.00    -0.312 N 
HETATM    6  C   UNL     1      41.594 -12.925   5.674  1.00  0.00     0.024 C 
HETATM    7  C   UNL     1      42.771 -13.152   6.583  1.00  0.00     0.069 C 
HETATM    8  C   UNL     1      41.367 -13.531   4.489  1.00  0.00     0.059 C 
HETATM    9  H   UNL     1      38.614 -11.749   3.708  1.00  0.00     0.165 HD
HETATM   10  H   UNL     1      40.789 -11.586   7.047  1.00  0.00     0.170 HD
ENDROOT
BRANCH   1  11
HETATM   11  C   UNL     1      40.084 -13.299   2.223  1.00  0.00    -0.028 A 
HETATM   12  C   UNL     1      39.977 -14.530   1.550  1.00  0.00     0.012 A 
HETATM   13  C   UNL     1      39.845 -14.589   0.160  1.00  0.00     0.040 A 
HETATM   14  C   UNL     1      39.836 -13.417  -0.599  1.00  0.00     0.102 A 
HETATM   15  C   UNL     1      39.990 -12.186   0.054  1.00  0.00     0.102 A 
HETATM   16  C   UNL     1      40.072 -12.126   1.455  1.00  0.00     0.049 A 
BRANCH  14  17
HETATM   17  O   UNL     1      39.579 -13.396  -1.943  1.00  0.00    -0.339 OA
BRANCH  17  18
HETATM   18  C   UNL     1      38.240 -13.683  -2.339  1.00  0.00     0.278 C 
BRANCH  18  19
HETATM   19  C   UNL     1      38.226 -14.908  -3.248  1.00  0.00     0.239 C 
HETATM   20  N   UNL     1      38.307 -16.115  -2.614  1.00  0.00    -0.368 N 
HETATM   21  H   UNL     1      38.156 -16.168  -1.612  1.00  0.00     0.159 HD
HETATM   22  H   UNL     1      38.240 -16.956  -3.169  1.00  0.00     0.159 HD
HETATM   23  O   UNL     1      38.202 -14.837  -4.473  1.00  0.00    -0.271 OA
ENDBRANCH  18  19
ENDBRANCH  17  18
ENDBRANCH  14  17
BRANCH  15  24
HETATM   24  O   UNL     1      39.975 -10.974  -0.592  1.00  0.00    -0.349 OA
BRANCH  24  25
HETATM   25  C   UNL     1      41.067 -10.104  -0.266  1.00  0.00     0.171 C 
HETATM   26  C   UNL     1      41.780  -9.601  -1.508  1.00  0.00     0.034 C 
ENDBRANCH  24  25
ENDBRANCH  15  24
ENDBRANCH   1  11
BRANCH   8  27
HETATM   27  C   UNL     1      42.396 -14.464   3.947  1.00  0.00     0.256 C 
HETATM   28  N   UNL     1      42.141 -15.785   4.236  1.00  0.00    -0.323 N 
HETATM   29  H   UNL     1      41.398 -15.947   4.900  1.00  0.00     0.169 HD
HETATM   30  O   UNL     1      43.371 -13.994   3.379  1.00  0.00    -0.267 OA
BRANCH  28  31
HETATM   31  C   UNL     1      42.866 -16.955   3.890  1.00  0.00     0.041 A 
HETATM   32  C   UNL     1      43.928 -17.557   4.590  1.00  0.00    -0.035 A 
HETATM   33  C   UNL     1      44.564 -17.029   5.843  1.00  0.00     0.050 C 
HETATM   34  C   UNL     1      44.479 -18.760   4.092  1.00  0.00     0.009 A 
HETATM   35  C   UNL     1      44.034 -19.335   2.904  1.00  0.00     0.001 A 
HETATM   36  C   UNL     1      43.025 -18.716   2.185  1.00  0.00     0.002 A 
HETATM   37  C   UNL     1      42.452 -17.540   2.673  1.00  0.00     0.030 A 
ENDBRANCH  28  31
ENDBRANCH   8  27
TORSDOF 8
ENDMDL
MODEL 2
REMARK VINA RESULT:      -8.6      0.926      1.475
REMARK  8 active torsions:
REMARK  status: ('A' for Active; 'I' for Inactive)
REMARK    1  A    between atoms: C_2  and  O_3 
REMARK    2  A    between atoms: O_3  and  C_4 
REMARK    3  A    between atoms: C_5  and  O_6 
REMARK    4  A    between atoms: O_6  and  C_7 
REMARK    5  A    between atoms: C_7  and  C_8 
REMARK       I    between atoms: C_8  and  N_9 
REMARK    6  A    between atoms: C_13  and  C_14 
REMARK    7  A    between atoms: C_21  and  C_22 
REMARK       I    between atoms: C_22  and  N_23 
REMARK    8  A    between atoms: N_23  and  C_24 
ROOT
HETATM    1  C   UNL     1      40.363 -13.861   4.053  1.00  0.00     0.160 C 
HETATM    2  N   UNL     1      39.771 -12.582   4.395  1.00  0.00    -0.330 N 
HETATM    3  C   UNL     1      39.895 -12.002   5.613  1.00  0.00     0.321 C 
HETATM    4  O   UNL     1      39.155 -11.093   5.974  1.00  0.00    -0.247 OA
HETATM    5  N   UNL     1      40.911 -12.465   6.392  1.00  0.00    -0.312 N 
HETATM    6  C   UNL     1      41.818 -13.433   6.020  1.00  0.00     0.024 C 
HETATM    7  C   UNL     1      42.943 -13.660   6.994  1.00  0.00     0.069 C 
HETATM    8  C   UNL     1      41.606 -14.107   4.869  1.00  0.00     0.059 C 
HETATM    9  H   UNL     1      38.994 -12.237   3.848  1.00  0.00     0.165 HD
HETATM   10  H   UNL     1      41.036 -11.960   7.263  1.00  0.00     0.170 HD
ENDROOT
BRANCH   1  11
HETATM   11  C   UNL     1      40.432 -13.963   2.538  1.00  0.00    -0.028 A 
HETATM   12  C   UNL     1      39.993 -15.151   1.926  1.00  0.00     0.012 A 
HETATM   13  C   UNL     1      39.905 -15.264   0.536  1.00  0.00     0.040 A 
HETATM   14  C   UNL     1      40.275 -14.196  -0.283  1.00  0.00     0.102 A 
HETATM   15  C   UNL     1      40.761 -13.023   0.311  1.00  0.00     0.102 A 
HETATM   16  C   UNL     1      40.800 -12.894   1.709  1.00  0.00     0.049 A 
BRANCH  14  17
HETATM   17  O   UNL     1      40.090 -14.192  -1.640  1.00  0.00    -0.339 OA
BRANCH  17  18
HETATM   18  C   UNL     1      38.767 -13.932  -2.101  1.00  0.00     0.278 C 
BRANCH  18  19
HETATM   19  C   UNL     1      38.353 -15.004  -3.104  1.00  0.00     0.239 C 
HETATM   20  N   UNL     1      38.223 -16.266  -2.599  1.00  0.00    -0.368 N 
HETATM   21  H   UNL     1      38.188 -16.406  -1.594  1.00  0.00     0.159 HD
HETATM   22  H   UNL     1      37.892 -16.998  -3.212  1.00  0.00     0.159 HD
HETATM   23  O   UNL     1      38.198 -14.782  -4.301  1.00  0.00    -0.271 OA
ENDBRANCH  18  19
ENDBRANCH  17  18
ENDBRANCH  14  17
BRANCH  15  24
HETATM   24  O   UNL     1      41.133 -11.907  -0.398  1.00  0.00    -0.349 OA
BRANCH  24  25
HETATM   25  C   UNL     1      40.314 -10.751  -0.176  1.00  0.00     0.171 C 
HETATM   26  C   UNL     1      41.141  -9.541   0.222  1.00  0.00     0.034 C 
ENDBRANCH  24  25
ENDBRANCH  15  24
ENDBRANCH   1  11
BRANCH   8  27
HETATM   27  C   UNL     1      42.602 -15.129   4.438  1.00  0.00     0.256 C 
HETATM   28  N   UNL     1      42.280 -16.407   4.838  1.00  0.00    -0.323 N 
HETATM   29  H   UNL     1      41.517 -16.474   5.496  1.00  0.00     0.169 HD
HETATM   30  O   UNL     1      43.609 -14.756   3.853  1.00  0.00    -0.267 OA
BRANCH  28  31
HETATM   31  C   UNL     1      42.957 -17.634   4.615  1.00  0.00     0.041 A 
HETATM   32  C   UNL     1      43.328 -18.209   3.385  1.00  0.00    -0.035 A 
HETATM   33  C   UNL     1      43.013 -17.655   2.026  1.00  0.00     0.050 C 
HETATM   34  C   UNL     1      44.050 -19.425   3.391  1.00  0.00     0.009 A 
HETATM   35  C   UNL     1      44.358 -20.090   4.575  1.00  0.00     0.001 A 
HETATM   36  C   UNL     1      43.949 -19.552   5.783  1.00  0.00     0.002 A 
HETATM   37  C   UNL     1      43.256 -18.341   5.800  1.00  0.00     0.030 A 
ENDBRANCH  28  31
ENDBRANCH   8  27
TORSDOF 8
ENDMDL
MODEL 3
REMARK VINA RESULT:      -8.5      2.613      7.363
REMARK  8 active torsions:
REMARK  status: ('A' for Active; 'I' for Inactive)
REMARK    1  A    between atoms: C_2  and  O_3 
REMARK    2  A    between atoms: O_3  and  C_4 
REMARK    3  A    between atoms: C_5  and  O_6 
REMARK    4  A    between atoms: O_6  and  C_7 
REMARK    5  A    between atoms: C_7  and  C_8 
REMARK       I    between atoms: C_8  and  N_9 
REMARK    6  A    between atoms: C_13  and  C_14 
REMARK    7  A    between atoms: C_21  and  C_22 
REMARK       I    between atoms: C_22  and  N_23 
REMARK    8  A    between atoms: N_23  and  C_24 
ROOT
HETATM    1  C   UNL     1      39.881 -14.790   1.812  1.00  0.00     0.160 C 
HETATM    2  N   UNL     1      39.932 -15.117   0.400  1.00  0.00    -0.330 N 
HETATM    3  C   UNL     1      39.427 -14.318  -0.571  1.00  0.00     0.321 C 
HETATM    4  O   UNL     1      39.209 -14.736  -1.702  1.00  0.00    -0.247 OA
HETATM    5  N   UNL     1      39.213 -13.020  -0.222  1.00  0.00    -0.312 N 
HETATM    6  C   UNL     1      39.501 -12.471   1.009  1.00  0.00     0.024 C 
HETATM    7  C   UNL     1      39.322 -10.979   1.099  1.00  0.00     0.069 C 
HETATM    8  C   UNL     1      39.866 -13.297   2.013  1.00  0.00     0.059 C 
HETATM    9  H   UNL     1      40.057 -16.080   0.121  1.00  0.00     0.165 HD
HETATM   10  H   UNL     1      38.915 -12.423  -0.986  1.00  0.00     0.170 HD
ENDROOT
BRANCH   1  11
HETATM   11  C   UNL     1      40.923 -15.630   2.532  1.00  0.00    -0.028 A 
HETATM   12  C   UNL     1      42.106 -15.961   1.847  1.00  0.00     0.012 A 
HETATM   13  C   UNL     1      43.161 -16.617   2.490  1.00  0.00     0.040 A 
HETATM   14  C   UNL     1      43.050 -16.979   3.833  1.00  0.00     0.102 A 
HETATM   15  C   UNL     1      41.858 -16.698   4.516  1.00  0.00     0.102 A 
HETATM   16  C   UNL     1      40.822 -15.995   3.882  1.00  0.00     0.049 A 
BRANCH  14  17
HETATM   17  O   UNL     1      44.089 -17.502   4.557  1.00  0.00    -0.339 OA
BRANCH  17  18
HETATM   18  C   UNL     1      44.503 -18.822   4.212  1.00  0.00     0.278 C 
BRANCH  18  19
HETATM   19  C   UNL     1      44.079 -19.795   5.307  1.00  0.00     0.239 C 
HETATM   20  N   UNL     1      43.490 -19.230   6.402  1.00  0.00    -0.368 N 
HETATM   21  H   UNL     1      43.167 -18.269   6.362  1.00  0.00     0.159 HD
HETATM   22  H   UNL     1      43.137 -19.840   7.127  1.00  0.00     0.159 HD
HETATM   23  O   UNL     1      44.294 -21.002   5.256  1.00  0.00    -0.271 OA
ENDBRANCH  18  19
ENDBRANCH  17  18
ENDBRANCH  14  17
BRANCH  15  24
HETATM   24  O   UNL     1      41.652 -16.992   5.842  1.00  0.00    -0.349 OA
BRANCH  24  25
HETATM   25  C   UNL     1      41.599 -15.852   6.711  1.00  0.00     0.171 C 
HETATM   26  C   UNL     1      42.781 -15.810   7.662  1.00  0.00     0.034 C 
ENDBRANCH  24  25
ENDBRANCH  15  24
ENDBRANCH   1  11
BRANCH   8  27
HETATM   27  C   UNL     1      40.217 -12.709   3.338  1.00  0.00     0.256 C 
HETATM   28  N   UNL     1      41.568 -12.502   3.502  1.00  0.00    -0.323 N 
HETATM   29  H   UNL     1      42.158 -12.913   2.793  1.00  0.00     0.169 HD
HETATM   30  O   UNL     1      39.324 -12.533   4.155  1.00  0.00    -0.267 OA
BRANCH  28  31
HETATM   31  C   UNL     1      42.284 -11.957   4.600  1.00  0.00     0.041 A 
HETATM   32  C   UNL     1      42.251 -10.637   5.087  1.00  0.00    -0.035 A 
HETATM   33  C   UNL     1      41.481  -9.498   4.485  1.00  0.00     0.050 C 
HETATM   34  C   UNL     1      43.010 -10.316   6.237  1.00  0.00     0.009 A 
HETATM   35  C   UNL     1      43.824 -11.255   6.865  1.00  0.00     0.001 A 
HETATM   36  C   UNL     1      43.898 -12.540   6.356  1.00  0.00     0.002 A 
HETATM   37  C   UNL     1      43.138 -12.883   5.236  1.00  0.00     0.030 A 
ENDBRANCH  28  31
ENDBRANCH   8  27
TORSDOF 8
ENDMDL
MODEL 4
REMARK VINA RESULT:      -8.5      3.171      7.322
REMARK  8 active torsions:
REMARK  status: ('A' for Active; 'I' for Inactive)
REMARK    1  A    between atoms: C_2  and  O_3 
REMARK    2  A    between atoms: O_3  and  C_4 
REMARK    3  A    between atoms: C_5  and  O_6 
REMARK    4  A    between atoms: O_6  and  C_7 
REMARK    5  A    between atoms: C_7  and  C_8 
REMARK       I    between atoms: C_8  and  N_9 
REMARK    6  A    between atoms: C_13  and  C_14 
REMARK    7  A    between atoms: C_21  and  C_22 
REMARK       I    between atoms: C_22  and  N_23 
REMARK    8  A    between atoms: N_23  and  C_24 
ROOT
HETATM    1  C   UNL     1      42.595 -11.557   2.657  1.00  0.00     0.160 C 
HETATM    2  N   UNL     1      42.131 -10.345   2.010  1.00  0.00    -0.330 N 
HETATM    3  C   UNL     1      41.537 -10.328   0.791  1.00  0.00     0.321 C 
HETATM    4  O   UNL     1      41.430  -9.295   0.141  1.00  0.00    -0.247 OA
HETATM    5  N   UNL     1      41.038 -11.517   0.356  1.00  0.00    -0.312 N 
HETATM    6  C   UNL     1      41.064 -12.697   1.068  1.00  0.00     0.024 C 
HETATM    7  C   UNL     1      40.308 -13.837   0.439  1.00  0.00     0.069 C 
HETATM    8  C   UNL     1      41.780 -12.744   2.212  1.00  0.00     0.059 C 
HETATM    9  H   UNL     1      42.514  -9.455   2.296  1.00  0.00     0.165 HD
HETATM   10  H   UNL     1      40.526 -11.463  -0.518  1.00  0.00     0.170 HD
ENDROOT
BRANCH   1  11
HETATM   11  C   UNL     1      42.751 -11.273   4.142  1.00  0.00    -0.028 A 
HETATM   12  C   UNL     1      43.900 -11.751   4.798  1.00  0.00     0.012 A 
HETATM   13  C   UNL     1      44.171 -11.414   6.128  1.00  0.00     0.040 A 
HETATM   14  C   UNL     1      43.288 -10.606   6.845  1.00  0.00     0.102 A 
HETATM   15  C   UNL     1      42.114 -10.162   6.219  1.00  0.00     0.102 A 
HETATM   16  C   UNL     1      41.869 -10.460   4.869  1.00  0.00     0.049 A 
BRANCH  14  17
HETATM   17  O   UNL     1      43.556 -10.133   8.101  1.00  0.00    -0.339 OA
BRANCH  17  18
HETATM   18  C   UNL     1      44.893 -10.291   8.569  1.00  0.00     0.278 C 
BRANCH  18  19
HETATM   19  C   UNL     1      45.720  -9.070   8.179  1.00  0.00     0.239 C 
HETATM   20  N   UNL     1      46.934  -9.336   7.612  1.00  0.00    -0.368 N 
HETATM   21  H   UNL     1      47.142 -10.273   7.282  1.00  0.00     0.159 HD
HETATM   22  H   UNL     1      47.492  -8.561   7.282  1.00  0.00     0.159 HD
HETATM   23  O   UNL     1      45.364  -7.917   8.401  1.00  0.00    -0.271 OA
ENDBRANCH  18  19
ENDBRANCH  17  18
ENDBRANCH  14  17
BRANCH  15  24
HETATM   24  O   UNL     1      41.189  -9.348   6.824  1.00  0.00    -0.349 OA
BRANCH  24  25
HETATM   25  C   UNL     1      40.027 -10.023   7.324  1.00  0.00     0.171 C 
HETATM   26  C   UNL     1      39.477  -9.354   8.572  1.00  0.00     0.034 C 
ENDBRANCH  24  25
ENDBRANCH  15  24
ENDBRANCH   1  11
BRANCH   8  27
HETATM   27  C   UNL     1      41.783 -14.004   3.009  1.00  0.00     0.256 C 
HETATM   28  N   UNL     1      42.884 -14.796   2.772  1.00  0.00    -0.323 N 
HETATM   29  H   UNL     1      43.458 -14.516   1.990  1.00  0.00     0.169 HD
HETATM   30  O   UNL     1      40.820 -14.249   3.721  1.00  0.00    -0.267 OA
BRANCH  28  31
HETATM   31  C   UNL     1      43.251 -16.045   3.337  1.00  0.00     0.041 A 
HETATM   32  C   UNL     1      43.537 -16.338   4.683  1.00  0.00    -0.035 A 
HETATM   33  C   UNL     1      43.574 -15.346   5.809  1.00  0.00     0.050 C 
HETATM   34  C   UNL     1      43.834 -17.673   5.043  1.00  0.00     0.009 A 
HETATM   35  C   UNL     1      43.900 -18.691   4.095  1.00  0.00     0.001 A 
HETATM   36  C   UNL     1      43.671 -18.395   2.762  1.00  0.00     0.002 A 
HETATM   37  C   UNL     1      43.354 -17.087   2.390  1.00  0.00     0.030 A 
ENDBRANCH  28  31
ENDBRANCH   8  27
TORSDOF 8
ENDMDL
MODEL 5
REMARK VINA RESULT:      -8.2      3.071      8.232
REMARK  8 active torsions:
REMARK  status: ('A' for Active; 'I' for Inactive)
REMARK    1  A    between atoms: C_2  and  O_3 
REMARK    2  A    between atoms: O_3  and  C_4 
REMARK    3  A    between atoms: C_5  and  O_6 
REMARK    4  A    between atoms: O_6  and  C_7 
REMARK    5  A    between atoms: C_7  and  C_8 
REMARK       I    between atoms: C_8  and  N_9 
REMARK    6  A    between atoms: C_13  and  C_14 
REMARK    7  A    between atoms: C_21  and  C_22 
REMARK       I    between atoms: C_22  and  N_23 
REMARK    8  A    between atoms: N_23  and  C_24 
ROOT
HETATM    1  C   UNL     1      42.273 -15.091   5.597  1.00  0.00     0.160 C 
HETATM    2  N   UNL     1      42.981 -15.929   6.545  1.00  0.00    -0.330 N 
HETATM    3  C   UNL     1      43.276 -17.232   6.315  1.00  0.00     0.321 C 
HETATM    4  O   UNL     1      43.595 -17.991   7.223  1.00  0.00    -0.247 OA
HETATM    5  N   UNL     1      43.230 -17.633   5.015  1.00  0.00    -0.312 N 
HETATM    6  C   UNL     1      42.946 -16.815   3.943  1.00  0.00     0.024 C 
HETATM    7  C   UNL     1      43.113 -17.457   2.591  1.00  0.00     0.069 C 
HETATM    8  C   UNL     1      42.515 -15.559   4.186  1.00  0.00     0.059 C 
HETATM    9  H   UNL     1      42.998 -15.666   7.520  1.00  0.00     0.165 HD
HETATM   10  H   UNL     1      43.534 -18.587   4.859  1.00  0.00     0.170 HD
ENDROOT
BRANCH   1  11
HETATM   11  C   UNL     1      42.539 -13.638   5.958  1.00  0.00    -0.028 A 
HETATM   12  C   UNL     1      41.583 -12.672   5.594  1.00  0.00     0.012 A 
HETATM   13  C   UNL     1      41.699 -11.341   6.008  1.00  0.00     0.040 A 
HETATM   14  C   UNL     1      42.788 -10.936   6.781  1.00  0.00     0.102 A 
HETATM   15  C   UNL     1      43.774 -11.877   7.110  1.00  0.00     0.102 A 
HETATM   16  C   UNL     1      43.629 -13.223   6.736  1.00  0.00     0.049 A 
BRANCH  14  17
HETATM   17  O   UNL     1      42.896  -9.686   7.328  1.00  0.00    -0.339 OA
BRANCH  17  18
HETATM   18  C   UNL     1      42.106  -9.428   8.486  1.00  0.00     0.278 C 
BRANCH  18  19
HETATM   19  C   UNL     1      43.007  -9.345   9.713  1.00  0.00     0.239 C 
HETATM   20  N   UNL     1      43.207 -10.521  10.380  1.00  0.00    -0.368 N 
HETATM   21  H   UNL     1      42.950 -11.398   9.940  1.00  0.00     0.159 HD
HETATM   22  H   UNL     1      43.845 -10.528  11.163  1.00  0.00     0.159 HD
HETATM   23  O   UNL     1      43.487  -8.294  10.127  1.00  0.00    -0.271 OA
ENDBRANCH  18  19
ENDBRANCH  17  18
ENDBRANCH  14  17
BRANCH  15  24
HETATM   24  O   UNL     1      44.874 -11.591   7.881  1.00  0.00    -0.349 OA
BRANCH  24  25
HETATM   25  C   UNL     1      45.929 -10.902   7.195  1.00  0.00     0.171 C 
HETATM   26  C   UNL     1      46.306  -9.608   7.893  1.00  0.00     0.034 C 
ENDBRANCH  24  25
ENDBRANCH  15  24
ENDBRANCH   1  11
BRANCH   8  27
HETATM   27  C   UNL     1      42.242 -14.654   3.033  1.00  0.00     0.256 C 
HETATM   28  N   UNL     1      40.956 -14.753   2.554  1.00  0.00    -0.323 N 
HETATM   29  H   UNL     1      40.415 -15.522   2.923  1.00  0.00     0.169 HD
HETATM   30  O   UNL     1      43.161 -13.982   2.586  1.00  0.00    -0.267 OA
BRANCH  28  31
HETATM   31  C   UNL     1      40.317 -14.059   1.494  1.00  0.00     0.041 A 
HETATM   32  C   UNL     1      39.681 -12.804   1.537  1.00  0.00    -0.035 A 
HETATM   33  C   UNL     1      39.491 -11.959   2.762  1.00  0.00     0.050 C 
HETATM   34  C   UNL     1      39.151 -12.267   0.341  1.00  0.00     0.009 A 
HETATM   35  C   UNL     1      39.196 -12.967  -0.862  1.00  0.00     0.001 A 
HETATM   36  C   UNL     1      39.774 -14.225  -0.895  1.00  0.00     0.002 A 
HETATM   37  C   UNL     1      40.324 -14.762   0.270  1.00  0.00     0.030 A 
ENDBRANCH  28  31
ENDBRANCH   8  27
TORSDOF 8
ENDMDL
MODEL 6
REMARK VINA RESULT:      -8.2      3.033      7.916
REMARK  8 active torsions:
REMARK  status: ('A' for Active; 'I' for Inactive)
REMARK    1  A    between atoms: C_2  and  O_3 
REMARK    2  A    between atoms: O_3  and  C_4 
REMARK    3  A    between atoms: C_5  and  O_6 
REMARK    4  A    between atoms: O_6  and  C_7 
REMARK    5  A    between atoms: C_7  and  C_8 
REMARK       I    between atoms: C_8  and  N_9 
REMARK    6  A    between atoms: C_13  and  C_14 
REMARK    7  A    between atoms: C_21  and  C_22 
REMARK       I    between atoms: C_22  and  N_23 
REMARK    8  A    between atoms: N_23  and  C_24 
ROOT
HETATM    1  C   UNL     1      42.363 -15.761   5.498  1.00  0.00     0.160 C 
HETATM    2  N   UNL     1      42.974 -16.686   6.434  1.00  0.00    -0.330 N 
HETATM    3  C   UNL     1      43.267 -17.974   6.129  1.00  0.00     0.321 C 
HETATM    4  O   UNL     1      43.495 -18.806   6.999  1.00  0.00    -0.247 OA
HETATM    5  N   UNL     1      43.328 -18.272   4.803  1.00  0.00    -0.312 N 
HETATM    6  C   UNL     1      43.151 -17.369   3.777  1.00  0.00     0.024 C 
HETATM    7  C   UNL     1      43.424 -17.909   2.399  1.00  0.00     0.069 C 
HETATM    8  C   UNL     1      42.719 -16.126   4.080  1.00  0.00     0.059 C 
HETATM    9  H   UNL     1      42.910 -16.498   7.425  1.00  0.00     0.165 HD
HETATM   10  H   UNL     1      43.630 -19.218   4.599  1.00  0.00     0.170 HD
ENDROOT
BRANCH   1  11
HETATM   11  C   UNL     1      42.619 -14.347   5.992  1.00  0.00    -0.028 A 
HETATM   12  C   UNL     1      43.922 -14.005   6.400  1.00  0.00     0.012 A 
HETATM   13  C   UNL     1      44.257 -12.691   6.740  1.00  0.00     0.040 A 
HETATM   14  C   UNL     1      43.290 -11.685   6.702  1.00  0.00     0.102 A 
HETATM   15  C   UNL     1      41.976 -12.020   6.344  1.00  0.00     0.102 A 
HETATM   16  C   UNL     1      41.655 -13.330   5.955  1.00  0.00     0.049 A 
BRANCH  14  17
HETATM   17  O   UNL     1      43.579 -10.360   6.893  1.00  0.00    -0.339 OA
BRANCH  17  18
HETATM   18  C   UNL     1      44.104 -10.002   8.169  1.00  0.00     0.278 C 
BRANCH  18  19
HETATM   19  C   UNL     1      45.409  -9.233   7.988  1.00  0.00     0.239 C 
HETATM   20  N   UNL     1      46.462  -9.961   7.511  1.00  0.00    -0.368 N 
HETATM   21  H   UNL     1      46.299 -10.876   7.105  1.00  0.00     0.159 HD
HETATM   22  H   UNL     1      47.330  -9.482   7.318  1.00  0.00     0.159 HD
HETATM   23  O   UNL     1      45.544  -8.053   8.296  1.00  0.00    -0.271 OA
ENDBRANCH  18  19
ENDBRANCH  17  18
ENDBRANCH  14  17
BRANCH  15  24
HETATM   24  O   UNL     1      40.955 -11.107   6.255  1.00  0.00    -0.349 OA
BRANCH  24  25
HETATM   25  C   UNL     1      39.684 -11.658   5.885  1.00  0.00     0.171 C 
HETATM   26  C   UNL     1      38.564 -10.642   6.026  1.00  0.00     0.034 C 
ENDBRANCH  24  25
ENDBRANCH  15  24
ENDBRANCH   1  11
BRANCH   8  27
HETATM   27  C   UNL     1      42.562 -15.130   2.982  1.00  0.00     0.256 C 
HETATM   28  N   UNL     1      41.280 -15.064   2.484  1.00  0.00    -0.323 N 
HETATM   29  H   UNL     1      40.656 -15.793   2.800  1.00  0.00     0.169 HD
HETATM   30  O   UNL     1      43.553 -14.532   2.587  1.00  0.00    -0.267 OA
BRANCH  28  31
HETATM   31  C   UNL     1      40.736 -14.244   1.462  1.00  0.00     0.041 A 
HETATM   32  C   UNL     1      40.666 -12.839   1.422  1.00  0.00    -0.035 A 
HETATM   33  C   UNL     1      41.107 -11.907   2.513  1.00  0.00     0.050 C 
HETATM   34  C   UNL     1      40.125 -12.216   0.274  1.00  0.00     0.009 A 
HETATM   35  C   UNL     1      39.616 -12.954  -0.792  1.00  0.00     0.001 A 
HETATM   36  C   UNL     1      39.636 -14.337  -0.731  1.00  0.00     0.002 A 
HETATM   37  C   UNL     1      40.187 -14.972   0.384  1.00  0.00     0.030 A 
ENDBRANCH  28  31
ENDBRANCH   8  27
TORSDOF 8
ENDMDL
MODEL 7
REMARK VINA RESULT:      -8.0      2.048      2.714
REMARK  8 active torsions:
REMARK  status: ('A' for Active; 'I' for Inactive)
REMARK    1  A    between atoms: C_2  and  O_3 
REMARK    2  A    between atoms: O_3  and  C_4 
REMARK    3  A    between atoms: C_5  and  O_6 
REMARK    4  A    between atoms: O_6  and  C_7 
REMARK    5  A    between atoms: C_7  and  C_8 
REMARK       I    between atoms: C_8  and  N_9 
REMARK    6  A    between atoms: C_13  and  C_14 
REMARK    7  A    between atoms: C_21  and  C_22 
REMARK       I    between atoms: C_22  and  N_23 
REMARK    8  A    between atoms: N_23  and  C_24 
ROOT
HETATM    1  C   UNL     1      40.983 -12.167   4.932  1.00  0.00     0.160 C 
HETATM    2  N   UNL     1      41.581 -10.876   5.212  1.00  0.00    -0.330 N 
HETATM    3  C   UNL     1      42.371 -10.635   6.287  1.00  0.00     0.321 C 
HETATM    4  O   UNL     1      42.614  -9.496   6.667  1.00  0.00    -0.247 OA
HETATM    5  N   UNL     1      42.904 -11.732   6.891  1.00  0.00    -0.312 N 
HETATM    6  C   UNL     1      42.727 -13.033   6.473  1.00  0.00     0.024 C 
HETATM    7  C   UNL     1      43.547 -14.057   7.212  1.00  0.00     0.069 C 
HETATM    8  C   UNL     1      41.829 -13.279   5.496  1.00  0.00     0.059 C 
HETATM    9  H   UNL     1      41.180 -10.046   4.799  1.00  0.00     0.165 HD
HETATM   10  H   UNL     1      43.556 -11.524   7.640  1.00  0.00     0.170 HD
ENDROOT
BRANCH   1  11
HETATM   11  C   UNL     1      40.588 -12.199   3.464  1.00  0.00    -0.028 A 
HETATM   12  C   UNL     1      41.531 -12.659   2.527  1.00  0.00     0.012 A 
HETATM   13  C   UNL     1      41.193 -12.839   1.183  1.00  0.00     0.040 A 
HETATM   14  C   UNL     1      39.904 -12.542   0.734  1.00  0.00     0.102 A 
HETATM   15  C   UNL     1      38.968 -12.036   1.648  1.00  0.00     0.102 A 
HETATM   16  C   UNL     1      39.296 -11.905   3.006  1.00  0.00     0.049 A 
BRANCH  14  17
HETATM   17  O   UNL     1      39.469 -12.818  -0.534  1.00  0.00    -0.339 OA
BRANCH  17  18
HETATM   18  C   UNL     1      40.156 -13.855  -1.230  1.00  0.00     0.278 C 
BRANCH  18  19
HETATM   19  C   UNL     1      40.304 -13.475  -2.700  1.00  0.00     0.239 C 
HETATM   20  N   UNL     1      41.534 -13.008  -3.068  1.00  0.00    -0.368 N 
HETATM   21  H   UNL     1      42.326 -13.131  -2.446  1.00  0.00     0.159 HD
HETATM   22  H   UNL     1      41.698 -12.801  -4.043  1.00  0.00     0.159 HD
HETATM   23  O   UNL     1      39.379 -13.523  -3.505  1.00  0.00    -0.271 OA
ENDBRANCH  18  19
ENDBRANCH  17  18
ENDBRANCH  14  17
BRANCH  15  24
HETATM   24  O   UNL     1      37.670 -11.731   1.318  1.00  0.00    -0.349 OA
BRANCH  24  25
HETATM   25  C   UNL     1      37.387 -10.329   1.220  1.00  0.00     0.171 C 
HETATM   26  C   UNL     1      36.243 -10.049   0.261  1.00  0.00     0.034 C 
ENDBRANCH  24  25
ENDBRANCH  15  24
ENDBRANCH   1  11
BRANCH   8  27
HETATM   27  C   UNL     1      41.657 -14.679   5.009  1.00  0.00     0.256 C 
HETATM   28  N   UNL     1      42.784 -15.188   4.406  1.00  0.00    -0.323 N 
HETATM   29  H   UNL     1      43.517 -14.518   4.222  1.00  0.00     0.169 HD
HETATM   30  O   UNL     1      40.560 -15.207   5.121  1.00  0.00    -0.267 OA
BRANCH  28  31
HETATM   31  C   UNL     1      43.020 -16.466   3.836  1.00  0.00     0.041 A 
HETATM   32  C   UNL     1      42.434 -17.024   2.685  1.00  0.00    -0.035 A 
HETATM   33  C   UNL     1      41.367 -16.385   1.845  1.00  0.00     0.050 C 
HETATM   34  C   UNL     1      42.855 -18.306   2.258  1.00  0.00     0.009 A 
HETATM   35  C   UNL     1      43.791 -19.047   2.974  1.00  0.00     0.001 A 
HETATM   36  C   UNL     1      44.329 -18.522   4.137  1.00  0.00     0.002 A 
HETATM   37  C   UNL     1      43.945 -17.249   4.561  1.00  0.00     0.030 A 
ENDBRANCH  28  31
ENDBRANCH   8  27
TORSDOF 8
ENDMDL
MODEL 8
REMARK VINA RESULT:      -7.9      2.204      5.253
REMARK  8 active torsions:
REMARK  status: ('A' for Active; 'I' for Inactive)
REMARK    1  A    between atoms: C_2  and  O_3 
REMARK    2  A    between atoms: O_3  and  C_4 
REMARK    3  A    between atoms: C_5  and  O_6 
REMARK    4  A    between atoms: O_6  and  C_7 
REMARK    5  A    between atoms: C_7  and  C_8 
REMARK       I    between atoms: C_8  and  N_9 
REMARK    6  A    between atoms: C_13  and  C_14 
REMARK    7  A    between atoms: C_21  and  C_22 
REMARK       I    between atoms: C_22  and  N_23 
REMARK    8  A    between atoms: N_23  and  C_24 
ROOT
HETATM    1  C   UNL     1      43.226 -16.340   3.138  1.00  0.00     0.160 C 
HETATM    2  N   UNL     1      43.351 -17.661   2.553  1.00  0.00    -0.330 N 
HETATM    3  C   UNL     1      43.813 -18.739   3.232  1.00  0.00     0.321 C 
HETATM    4  O   UNL     1      44.191 -19.751   2.655  1.00  0.00    -0.247 OA
HETATM    5  N   UNL     1      43.796 -18.639   4.590  1.00  0.00    -0.312 N 
HETATM    6  C   UNL     1      43.321 -17.558   5.300  1.00  0.00     0.024 C 
HETATM    7  C   UNL     1      43.263 -17.752   6.792  1.00  0.00     0.069 C 
HETATM    8  C   UNL     1      42.997 -16.435   4.624  1.00  0.00     0.059 C 
HETATM    9  H   UNL     1      43.398 -17.752   1.548  1.00  0.00     0.165 HD
HETATM   10  H   UNL     1      44.068 -19.486   5.076  1.00  0.00     0.170 HD
ENDROOT
BRANCH   1  11
HETATM   11  C   UNL     1      42.263 -15.531   2.284  1.00  0.00    -0.028 A 
HETATM   12  C   UNL     1      41.003 -16.084   1.989  1.00  0.00     0.012 A 
HETATM   13  C   UNL     1      40.022 -15.344   1.322  1.00  0.00     0.040 A 
HETATM   14  C   UNL     1      40.283 -14.035   0.913  1.00  0.00     0.102 A 
HETATM   15  C   UNL     1      41.551 -13.487   1.158  1.00  0.00     0.102 A 
HETATM   16  C   UNL     1      42.516 -14.215   1.872  1.00  0.00     0.049 A 
BRANCH  14  17
HETATM   17  O   UNL     1      39.329 -13.213   0.376  1.00  0.00    -0.339 OA
BRANCH  17  18
HETATM   18  C   UNL     1      39.468 -12.895  -1.006  1.00  0.00     0.278 C 
BRANCH  18  19
HETATM   19  C   UNL     1      38.641 -13.867  -1.841  1.00  0.00     0.239 C 
HETATM   20  N   UNL     1      37.327 -13.533  -2.008  1.00  0.00    -0.368 N 
HETATM   21  H   UNL     1      37.013 -12.596  -1.777  1.00  0.00     0.159 HD
HETATM   22  H   UNL     1      36.754 -14.114  -2.604  1.00  0.00     0.159 HD
HETATM   23  O   UNL     1      39.090 -14.915  -2.296  1.00  0.00    -0.271 OA
ENDBRANCH  18  19
ENDBRANCH  17  18
ENDBRANCH  14  17
BRANCH  15  24
HETATM   24  O   UNL     1      41.906 -12.205   0.817  1.00  0.00    -0.349 OA
BRANCH  24  25
HETATM   25  C   UNL     1      41.954 -11.281   1.912  1.00  0.00     0.171 C 
HETATM   26  C   UNL     1      40.835 -10.258   1.839  1.00  0.00     0.034 C 
ENDBRANCH  24  25
ENDBRANCH  15  24
ENDBRANCH   1  11
BRANCH   8  27
HETATM   27  C   UNL     1      42.445 -15.273   5.379  1.00  0.00     0.256 C 
HETATM   28  N   UNL     1      43.293 -14.189   5.408  1.00  0.00    -0.323 N 
HETATM   29  H   UNL     1      44.227 -14.362   5.066  1.00  0.00     0.169 HD
HETATM   30  O   UNL     1      41.367 -15.399   5.941  1.00  0.00    -0.267 OA
BRANCH  28  31
HETATM   31  C   UNL     1      43.126 -12.912   6.004  1.00  0.00     0.041 A 
HETATM   32  C   UNL     1      42.034 -12.033   5.880  1.00  0.00    -0.035 A 
HETATM   33  C   UNL     1      40.826 -12.251   5.017  1.00  0.00     0.050 C 
HETATM   34  C   UNL     1      42.049 -10.820   6.608  1.00  0.00     0.009 A 
HETATM   35  C   UNL     1      43.133 -10.453   7.401  1.00  0.00     0.001 A 
HETATM   36  C   UNL     1      44.231 -11.292   7.482  1.00  0.00     0.002 A 
HETATM   37  C   UNL     1      44.226 -12.504   6.790  1.00  0.00     0.030 A 
ENDBRANCH  28  31
ENDBRANCH   8  27
TORSDOF 8
ENDMDL
MODEL 9
REMARK VINA RESULT:      -7.6      2.013      2.544
REMARK  8 active torsions:
REMARK  status: ('A' for Active; 'I' for Inactive)
REMARK    1  A    between atoms: C_2  and  O_3 
REMARK    2  A    between atoms: O_3  and  C_4 
REMARK    3  A    between atoms: C_5  and  O_6 
REMARK    4  A    between atoms: O_6  and  C_7 
REMARK    5  A    between atoms: C_7  and  C_8 
REMARK       I    between atoms: C_8  and  N_9 
REMARK    6  A    between atoms: C_13  and  C_14 
REMARK    7  A    between atoms: C_21  and  C_22 
REMARK       I    between atoms: C_22  and  N_23 
REMARK    8  A    between atoms: N_23  and  C_24 
ROOT
HETATM    1  C   UNL     1      41.895 -13.871   5.124  1.00  0.00     0.160 C 
HETATM    2  N   UNL     1      42.591 -12.618   5.343  1.00  0.00    -0.330 N 
HETATM    3  C   UNL     1      43.494 -12.428   6.337  1.00  0.00     0.321 C 
HETATM    4  O   UNL     1      43.838 -11.306   6.689  1.00  0.00    -0.247 OA
HETATM    5  N   UNL     1      44.017 -13.557   6.889  1.00  0.00    -0.312 N 
HETATM    6  C   UNL     1      43.725 -14.844   6.492  1.00  0.00     0.024 C 
HETATM    7  C   UNL     1      44.551 -15.916   7.150  1.00  0.00     0.069 C 
HETATM    8  C   UNL     1      42.724 -15.033   5.606  1.00  0.00     0.059 C 
HETATM    9  H   UNL     1      42.201 -11.764   4.969  1.00  0.00     0.165 HD
HETATM   10  H   UNL     1      44.749 -13.390   7.570  1.00  0.00     0.170 HD
ENDROOT
BRANCH   1  11
HETATM   11  C   UNL     1      41.359 -13.874   3.702  1.00  0.00    -0.028 A 
HETATM   12  C   UNL     1      40.335 -14.781   3.374  1.00  0.00     0.012 A 
HETATM   13  C   UNL     1      39.706 -14.749   2.125  1.00  0.00     0.040 A 
HETATM   14  C   UNL     1      40.101 -13.820   1.162  1.00  0.00     0.102 A 
HETATM   15  C   UNL     1      41.153 -12.941   1.457  1.00  0.00     0.102 A 
HETATM   16  C   UNL     1      41.748 -12.943   2.729  1.00  0.00     0.049 A 
BRANCH  14  17
HETATM   17  O   UNL     1      39.443 -13.647  -0.027  1.00  0.00    -0.339 OA
BRANCH  17  18
HETATM   18  C   UNL     1      39.592 -14.684  -0.993  1.00  0.00     0.278 C 
BRANCH  18  19
HETATM   19  C   UNL     1      39.094 -14.196  -2.350  1.00  0.00     0.239 C 
HETATM   20  N   UNL     1      37.738 -14.084  -2.475  1.00  0.00    -0.368 N 
HETATM   21  H   UNL     1      37.152 -14.110  -1.648  1.00  0.00     0.159 HD
HETATM   22  H   UNL     1      37.364 -13.707  -3.335  1.00  0.00     0.159 HD
HETATM   23  O   UNL     1      39.838 -13.968  -3.298  1.00  0.00    -0.271 OA
ENDBRANCH  18  19
ENDBRANCH  17  18
ENDBRANCH  14  17
BRANCH  15  24
HETATM   24  O   UNL     1      41.606 -11.976   0.591  1.00  0.00    -0.349 OA
BRANCH  24  25
HETATM   25  C   UNL     1      41.547 -10.636   1.097  1.00  0.00     0.171 C 
HETATM   26  C   UNL     1      40.183 -10.008   0.875  1.00  0.00     0.034 C 
ENDBRANCH  24  25
ENDBRANCH  15  24
ENDBRANCH   1  11
BRANCH   8  27
HETATM   27  C   UNL     1      42.425 -16.418   5.141  1.00  0.00     0.256 C 
HETATM   28  N   UNL     1      43.442 -16.977   4.401  1.00  0.00    -0.323 N 
HETATM   29  H   UNL     1      44.179 -16.341   4.131  1.00  0.00     0.169 HD
HETATM   30  O   UNL     1      41.325 -16.893   5.385  1.00  0.00    -0.267 OA
BRANCH  28  31
HETATM   31  C   UNL     1      43.542 -18.260   3.804  1.00  0.00     0.041 A 
HETATM   32  C   UNL     1      43.730 -19.501   4.441  1.00  0.00    -0.035 A 
HETATM   33  C   UNL     1      43.931 -19.710   5.913  1.00  0.00     0.050 C 
HETATM   34  C   UNL     1      43.748 -20.676   3.653  1.00  0.00     0.009 A 
HETATM   35  C   UNL     1      43.638 -20.632   2.266  1.00  0.00     0.001 A 
HETATM   36  C   UNL     1      43.506 -19.407   1.633  1.00  0.00     0.002 A 
HETATM   37  C   UNL     1      43.462 -18.238   2.395  1.00  0.00     0.030 A 
ENDBRANCH  28  31
ENDBRANCH   8  27
TORSDOF 8
ENDMDL
MODEL 10
REMARK VINA RESULT:      -7.5      2.930      7.254
REMARK  8 active torsions:
REMARK  status: ('A' for Active; 'I' for Inactive)
REMARK    1  A    between atoms: C_2  and  O_3 
REMARK    2  A    between atoms: O_3  and  C_4 
REMARK    3  A    between atoms: C_5  and  O_6 
REMARK    4  A    between atoms: O_6  and  C_7 
REMARK    5  A    between atoms: C_7  and  C_8 
REMARK       I    between atoms: C_8  and  N_9 
REMARK    6  A    between atoms: C_13  and  C_14 
REMARK    7  A    between atoms: C_21  and  C_22 
REMARK       I    between atoms: C_22  and  N_23 
REMARK    8  A    between atoms: N_23  and  C_24 
ROOT
HETATM    1  C   UNL     1      42.387 -12.060   2.760  1.00  0.00     0.160 C 
HETATM    2  N   UNL     1      41.920 -10.926   1.986  1.00  0.00    -0.330 N 
HETATM    3  C   UNL     1      41.404 -11.034   0.738  1.00  0.00     0.321 C 
HETATM    4  O   UNL     1      41.300 -10.063  -0.003  1.00  0.00    -0.247 OA
HETATM    5  N   UNL     1      40.977 -12.275   0.375  1.00  0.00    -0.312 N 
HETATM    6  C   UNL     1      41.002 -13.390   1.184  1.00  0.00     0.024 C 
HETATM    7  C   UNL     1      40.329 -14.608   0.610  1.00  0.00     0.069 C 
HETATM    8  C   UNL     1      41.646 -13.313   2.369  1.00  0.00     0.059 C 
HETATM    9  H   UNL     1      42.252 -10.000   2.219  1.00  0.00     0.165 HD
HETATM   10  H   UNL     1      40.520 -12.314  -0.529  1.00  0.00     0.170 HD
ENDROOT
BRANCH   1  11
HETATM   11  C   UNL     1      42.439 -11.649   4.222  1.00  0.00    -0.028 A 
HETATM   12  C   UNL     1      43.696 -11.549   4.845  1.00  0.00     0.012 A 
HETATM   13  C   UNL     1      43.827 -11.051   6.145  1.00  0.00     0.040 A 
HETATM   14  C   UNL     1      42.698 -10.657   6.866  1.00  0.00     0.102 A 
HETATM   15  C   UNL     1      41.433 -10.796   6.275  1.00  0.00     0.102 A 
HETATM   16  C   UNL     1      41.310 -11.250   4.952  1.00  0.00     0.049 A 
BRANCH  14  17
HETATM   17  O   UNL     1      42.764 -10.041   8.086  1.00  0.00    -0.339 OA
BRANCH  17  18
HETATM   18  C   UNL     1      43.105  -8.657   8.082  1.00  0.00     0.278 C 
BRANCH  18  19
HETATM   19  C   UNL     1      44.417  -8.450   8.833  1.00  0.00     0.239 C 
HETATM   20  N   UNL     1      44.456  -8.953  10.102  1.00  0.00    -0.368 N 
HETATM   21  H   UNL     1      43.740  -9.603  10.409  1.00  0.00     0.159 HD
HETATM   22  H   UNL     1      45.324  -8.893  10.617  1.00  0.00     0.159 HD
HETATM   23  O   UNL     1      45.368  -7.828   8.369  1.00  0.00    -0.271 OA
ENDBRANCH  18  19
ENDBRANCH  17  18
ENDBRANCH  14  17
BRANCH  15  24
HETATM   24  O   UNL     1      40.261 -10.422   6.886  1.00  0.00    -0.349 OA
BRANCH  24  25
HETATM   25  C   UNL     1      39.069 -10.877   6.233  1.00  0.00     0.171 C 
HETATM   26  C   UNL     1      38.393  -9.765   5.450  1.00  0.00     0.034 C 
ENDBRANCH  24  25
ENDBRANCH  15  24
ENDBRANCH   1  11
BRANCH   8  27
HETATM   27  C   UNL     1      41.646 -14.502   3.268  1.00  0.00     0.256 C 
HETATM   28  N   UNL     1      42.840 -15.186   3.268  1.00  0.00    -0.323 N 
HETATM   29  H   UNL     1      43.499 -14.905   2.556  1.00  0.00     0.169 HD
HETATM   30  O   UNL     1      40.611 -14.796   3.850  1.00  0.00    -0.267 OA
BRANCH  28  31
HETATM   31  C   UNL     1      43.233 -16.342   3.991  1.00  0.00     0.041 A 
HETATM   32  C   UNL     1      43.347 -17.663   3.519  1.00  0.00    -0.035 A 
HETATM   33  C   UNL     1      43.003 -18.133   2.136  1.00  0.00     0.050 C 
HETATM   34  C   UNL     1      43.811 -18.665   4.402  1.00  0.00     0.009 A 
HETATM   35  C   UNL     1      44.108 -18.390   5.734  1.00  0.00     0.001 A 
HETATM   36  C   UNL     1      43.946 -17.102   6.214  1.00  0.00     0.002 A 
HETATM   37  C   UNL     1      43.511 -16.093   5.352  1.00  0.00     0.030 A 
ENDBRANCH  28  31
ENDBRANCH   8  27
TORSDOF 8
ENDMDL
