MODEL 1
REMARK VINA RESULT:      -8.2      0.000      0.000
REMARK  14 active torsions:
REMARK  status: ('A' for Active; 'I' for Inactive)
REMARK    1  A    between atoms: C_2  and  O_3 
REMARK    2  A    between atoms: O_3  and  C_4 
REMARK    3  A    between atoms: C_5  and  O_6 
REMARK    4  A    between atoms: C_9  and  C_10 
REMARK    5  A    between atoms: N_11  and  C_12 
REMARK    6  A    between atoms: C_12  and  C_13 
REMARK    7  A    between atoms: C_13  and  C_14 
REMARK    8  A    between atoms: C_14  and  N_15 
REMARK    9  A    between atoms: C_24  and  O_25 
REMARK   10  A    between atoms: C_26  and  C_27 
REMARK   11  A    between atoms: C_27  and  C_28 
REMARK   12  A    between atoms: C_32  and  O_33 
REMARK   13  A    between atoms: O_33  and  C_34 
REMARK   14  A    between atoms: C_34  and  C_35 
ROOT
HETATM    1  C   UNL     1      41.156 -11.960   4.342  1.00  0.00     0.161 C 
HETATM    2  N   UNL     1      40.531 -10.696   3.958  1.00  0.00    -0.333 N 
HETATM    3  C   UNL     1      39.436 -10.423   4.753  1.00  0.00     0.278 C 
HETATM    4  O   UNL     1      38.703  -9.450   4.718  1.00  0.00    -0.265 OA
HETATM    5  C   UNL     1      39.253 -11.565   5.675  1.00  0.00     0.146 C 
HETATM    6  C   UNL     1      40.190 -12.468   5.367  1.00  0.00     0.059 C 
ENDROOT
BRANCH   6   7
HETATM    7  C   UNL     1      40.339 -13.856   5.855  1.00  0.00     0.193 C 
HETATM    8  O   UNL     1      39.654 -14.236   6.800  1.00  0.00    -0.287 OA
BRANCH   7   9
HETATM    9  C   UNL     1      41.385 -14.755   5.298  1.00  0.00     0.015 A 
HETATM   10  C   UNL     1      41.124 -15.410   4.088  1.00  0.00     0.025 A 
HETATM   11  C   UNL     1      42.049 -16.322   3.549  1.00  0.00    -0.028 A 
HETATM   12  C   UNL     1      41.740 -17.023   2.254  1.00  0.00     0.051 C 
HETATM   13  C   UNL     1      43.253 -16.574   4.231  1.00  0.00     0.074 A 
HETATM   14  C   UNL     1      43.497 -15.942   5.451  1.00  0.00     0.038 A 
HETATM   15  C   UNL     1      42.563 -15.049   5.990  1.00  0.00     0.018 A 
BRANCH  13  16
HETATM   16  O   UNL     1      44.101 -17.471   3.635  1.00  0.00    -0.350 OA
BRANCH  16  17
HETATM   17  C   UNL     1      44.613 -18.532   4.444  1.00  0.00     0.179 C 
BRANCH  17  18
HETATM   18  C   UNL     1      43.723 -19.771   4.273  1.00  0.00     0.002 C 
HETATM   19  C   UNL     1      43.747 -20.283   2.831  1.00  0.00     0.011 C 
HETATM   20  C   UNL     1      44.160 -20.874   5.235  1.00  0.00     0.011 C 
ENDBRANCH  17  18
ENDBRANCH  16  17
ENDBRANCH  13  16
ENDBRANCH   7   9
ENDBRANCH   6   7
BRANCH   1  21
HETATM   21  C   UNL     1      42.569 -11.675   4.832  1.00  0.00    -0.028 A 
HETATM   22  C   UNL     1      43.684 -11.813   3.981  1.00  0.00     0.012 A 
HETATM   23  C   UNL     1      44.977 -11.634   4.468  1.00  0.00     0.040 A 
HETATM   24  C   UNL     1      45.159 -11.308   5.803  1.00  0.00     0.099 A 
HETATM   25  C   UNL     1      44.076 -11.131   6.669  1.00  0.00     0.102 A 
HETATM   26  C   UNL     1      42.782 -11.321   6.179  1.00  0.00     0.049 A 
BRANCH  24  27
HETATM   27  O   UNL     1      46.439 -11.157   6.259  1.00  0.00    -0.358 OA
HETATM   28  H   UNL     1      46.909 -10.670   5.553  1.00  0.00     0.218 HD
ENDBRANCH  24  27
BRANCH  25  29
HETATM   29  O   UNL     1      44.412 -10.806   7.956  1.00  0.00    -0.349 OA
BRANCH  29  30
HETATM   30  C   UNL     1      44.039  -9.506   8.412  1.00  0.00     0.171 C 
HETATM   31  C   UNL     1      45.301  -8.669   8.520  1.00  0.00     0.034 C 
ENDBRANCH  29  30
ENDBRANCH  25  29
ENDBRANCH   1  21
BRANCH   5  32
HETATM   32  O   UNL     1      38.231 -11.653   6.569  1.00  0.00    -0.355 OA
HETATM   33  H   UNL     1      37.892 -10.745   6.704  1.00  0.00     0.218 HD
ENDBRANCH   5  32
BRANCH   2  34
HETATM   34  C   UNL     1      40.764 -10.126   2.640  1.00  0.00     0.129 C 
BRANCH  34  35
HETATM   35  C   UNL     1      40.204 -10.940   1.475  1.00  0.00     0.048 C 
BRANCH  35  36
HETATM   36  C   UNL     1      41.261 -11.218   0.412  1.00  0.00     0.236 C 
BRANCH  36  37
HETATM   37  N   UNL     1      41.016 -12.578  -0.209  1.00  0.00    -0.067 N 
HETATM   38  H   UNL     1      41.922 -13.045  -0.334  1.00  0.00     0.280 HD
HETATM   39  C   UNL     1      40.150 -13.480   0.678  1.00  0.00     0.261 C 
HETATM   40  C   UNL     1      39.950 -14.833  -0.015  1.00  0.00     0.195 C 
HETATM   41  O   UNL     1      39.358 -14.667  -1.309  1.00  0.00    -0.388 OA
HETATM   42  C   UNL     1      40.175 -13.870  -2.172  1.00  0.00     0.195 C 
HETATM   43  C   UNL     1      40.380 -12.466  -1.593  1.00  0.00     0.261 C 
ENDBRANCH  36  37
ENDBRANCH  35  36
ENDBRANCH  34  35
ENDBRANCH   2  34
TORSDOF 14
ENDMDL
MODEL 2
REMARK VINA RESULT:      -7.9      2.759      5.913
REMARK  14 active torsions:
REMARK  status: ('A' for Active; 'I' for Inactive)
REMARK    1  A    between atoms: C_2  and  O_3 
REMARK    2  A    between atoms: O_3  and  C_4 
REMARK    3  A    between atoms: C_5  and  O_6 
REMARK    4  A    between atoms: C_9  and  C_10 
REMARK    5  A    between atoms: N_11  and  C_12 
REMARK    6  A    between atoms: C_12  and  C_13 
REMARK    7  A    between atoms: C_13  and  C_14 
REMARK    8  A    between atoms: C_14  and  N_15 
REMARK    9  A    between atoms: C_24  and  O_25 
REMARK   10  A    between atoms: C_26  and  C_27 
REMARK   11  A    between atoms: C_27  and  C_28 
REMARK   12  A    between atoms: C_32  and  O_33 
REMARK   13  A    between atoms: O_33  and  C_34 
REMARK   14  A    between atoms: C_34  and  C_35 
ROOT
HETATM    1  C   UNL     1      40.570 -12.074   2.023  1.00  0.00     0.161 C 
HETATM    2  N   UNL     1      39.484 -11.140   2.311  1.00  0.00    -0.333 N 
HETATM    3  C   UNL     1      39.935 -10.072   3.061  1.00  0.00     0.278 C 
HETATM    4  O   UNL     1      39.302  -9.107   3.456  1.00  0.00    -0.265 OA
HETATM    5  C   UNL     1      41.364 -10.304   3.360  1.00  0.00     0.146 C 
HETATM    6  C   UNL     1      41.685 -11.490   2.834  1.00  0.00     0.059 C 
ENDROOT
BRANCH   6   7
HETATM    7  C   UNL     1      42.926 -12.275   2.999  1.00  0.00     0.193 C 
HETATM    8  O   UNL     1      44.001 -11.688   3.081  1.00  0.00    -0.287 OA
BRANCH   7   9
HETATM    9  C   UNL     1      42.906 -13.762   2.948  1.00  0.00     0.015 A 
HETATM   10  C   UNL     1      42.528 -14.462   4.102  1.00  0.00     0.025 A 
HETATM   11  C   UNL     1      42.554 -15.868   4.131  1.00  0.00    -0.028 A 
HETATM   12  C   UNL     1      42.157 -16.597   5.386  1.00  0.00     0.051 C 
HETATM   13  C   UNL     1      42.957 -16.579   2.987  1.00  0.00     0.074 A 
HETATM   14  C   UNL     1      43.359 -15.878   1.848  1.00  0.00     0.038 A 
HETATM   15  C   UNL     1      43.348 -14.478   1.833  1.00  0.00     0.018 A 
BRANCH  13  16
HETATM   16  O   UNL     1      42.948 -17.945   3.097  1.00  0.00    -0.350 OA
BRANCH  16  17
HETATM   17  C   UNL     1      44.208 -18.616   3.074  1.00  0.00     0.179 C 
BRANCH  17  18
HETATM   18  C   UNL     1      43.988 -20.091   2.711  1.00  0.00     0.002 C 
HETATM   19  C   UNL     1      43.833 -20.960   3.961  1.00  0.00     0.011 C 
HETATM   20  C   UNL     1      42.765 -20.237   1.807  1.00  0.00     0.011 C 
ENDBRANCH  17  18
ENDBRANCH  16  17
ENDBRANCH  13  16
ENDBRANCH   7   9
ENDBRANCH   6   7
BRANCH   1  21
HETATM   21  C   UNL     1      40.785 -12.120   0.517  1.00  0.00    -0.028 A 
HETATM   22  C   UNL     1      41.275 -11.003  -0.191  1.00  0.00     0.012 A 
HETATM   23  C   UNL     1      41.383 -11.033  -1.580  1.00  0.00     0.040 A 
HETATM   24  C   UNL     1      41.011 -12.180  -2.264  1.00  0.00     0.099 A 
HETATM   25  C   UNL     1      40.552 -13.318  -1.594  1.00  0.00     0.102 A 
HETATM   26  C   UNL     1      40.435 -13.280  -0.202  1.00  0.00     0.049 A 
BRANCH  24  27
HETATM   27  O   UNL     1      41.109 -12.174  -3.628  1.00  0.00    -0.358 OA
HETATM   28  H   UNL     1      41.817 -11.532  -3.833  1.00  0.00     0.218 HD
ENDBRANCH  24  27
BRANCH  25  29
HETATM   29  O   UNL     1      40.227 -14.374  -2.403  1.00  0.00    -0.349 OA
BRANCH  29  30
HETATM   30  C   UNL     1      38.903 -14.892  -2.286  1.00  0.00     0.171 C 
HETATM   31  C   UNL     1      38.177 -14.616  -3.591  1.00  0.00     0.034 C 
ENDBRANCH  29  30
ENDBRANCH  25  29
ENDBRANCH   1  21
BRANCH   5  32
HETATM   32  O   UNL     1      42.117  -9.469   4.127  1.00  0.00    -0.355 OA
HETATM   33  H   UNL     1      42.830  -9.122   3.553  1.00  0.00     0.218 HD
ENDBRANCH   5  32
BRANCH   2  34
HETATM   34  C   UNL     1      38.096 -11.569   2.228  1.00  0.00     0.129 C 
BRANCH  34  35
HETATM   35  C   UNL     1      37.406 -11.278   0.897  1.00  0.00     0.048 C 
BRANCH  35  36
HETATM   36  C   UNL     1      37.314  -9.783   0.617  1.00  0.00     0.236 C 
BRANCH  36  37
HETATM   37  N   UNL     1      37.403  -9.536  -0.875  1.00  0.00    -0.067 N 
HETATM   38  H   UNL     1      38.179  -8.886  -1.050  1.00  0.00     0.280 HD
HETATM   39  C   UNL     1      37.687 -10.818  -1.665  1.00  0.00     0.261 C 
HETATM   40  C   UNL     1      37.765 -10.487  -3.161  1.00  0.00     0.195 C 
HETATM   41  O   UNL     1      36.558  -9.864  -3.614  1.00  0.00    -0.388 OA
HETATM   42  C   UNL     1      36.299  -8.636  -2.925  1.00  0.00     0.195 C 
HETATM   43  C   UNL     1      36.139  -8.874  -1.420  1.00  0.00     0.261 C 
ENDBRANCH  36  37
ENDBRANCH  35  36
ENDBRANCH  34  35
ENDBRANCH   2  34
TORSDOF 14
ENDMDL
MODEL 3
REMARK VINA RESULT:      -7.7      2.458      6.648
REMARK  14 active torsions:
REMARK  status: ('A' for Active; 'I' for Inactive)
REMARK    1  A    between atoms: C_2  and  O_3 
REMARK    2  A    between atoms: O_3  and  C_4 
REMARK    3  A    between atoms: C_5  and  O_6 
REMARK    4  A    between atoms: C_9  and  C_10 
REMARK    5  A    between atoms: N_11  and  C_12 
REMARK    6  A    between atoms: C_12  and  C_13 
REMARK    7  A    between atoms: C_13  and  C_14 
REMARK    8  A    between atoms: C_14  and  N_15 
REMARK    9  A    between atoms: C_24  and  O_25 
REMARK   10  A    between atoms: C_26  and  C_27 
REMARK   11  A    between atoms: C_27  and  C_28 
REMARK   12  A    between atoms: C_32  and  O_33 
REMARK   13  A    between atoms: O_33  and  C_34 
REMARK   14  A    between atoms: C_34  and  C_35 
ROOT
HETATM    1  C   UNL     1      41.476 -13.008   3.868  1.00  0.00     0.161 C 
HETATM    2  N   UNL     1      41.007 -14.389   3.960  1.00  0.00    -0.333 N 
HETATM    3  C   UNL     1      41.733 -15.097   4.897  1.00  0.00     0.278 C 
HETATM    4  O   UNL     1      41.594 -16.259   5.237  1.00  0.00    -0.265 OA
HETATM    5  C   UNL     1      42.783 -14.199   5.425  1.00  0.00     0.146 C 
HETATM    6  C   UNL     1      42.675 -13.042   4.764  1.00  0.00     0.059 C 
ENDROOT
BRANCH   6   7
HETATM    7  C   UNL     1      43.586 -11.878   4.774  1.00  0.00     0.193 C 
HETATM    8  O   UNL     1      44.129 -11.532   3.728  1.00  0.00    -0.287 OA
BRANCH   7   9
HETATM    9  C   UNL     1      43.944 -11.195   6.046  1.00  0.00     0.015 A 
HETATM   10  C   UNL     1      43.105 -10.176   6.514  1.00  0.00     0.025 A 
HETATM   11  C   UNL     1      43.429  -9.453   7.676  1.00  0.00    -0.028 A 
HETATM   12  C   UNL     1      42.519  -8.353   8.151  1.00  0.00     0.051 C 
HETATM   13  C   UNL     1      44.607  -9.762   8.380  1.00  0.00     0.074 A 
HETATM   14  C   UNL     1      45.456 -10.759   7.895  1.00  0.00     0.038 A 
HETATM   15  C   UNL     1      45.135 -11.462   6.728  1.00  0.00     0.018 A 
BRANCH  13  16
HETATM   16  O   UNL     1      44.846  -9.015   9.503  1.00  0.00    -0.350 OA
BRANCH  16  17
HETATM   17  C   UNL     1      44.887  -9.702  10.755  1.00  0.00     0.179 C 
BRANCH  17  18
HETATM   18  C   UNL     1      43.522  -9.575  11.445  1.00  0.00     0.002 C 
HETATM   19  C   UNL     1      43.200 -10.815  12.282  1.00  0.00     0.011 C 
HETATM   20  C   UNL     1      43.483  -8.321  12.317  1.00  0.00     0.011 C 
ENDBRANCH  17  18
ENDBRANCH  16  17
ENDBRANCH  13  16
ENDBRANCH   7   9
ENDBRANCH   6   7
BRANCH   1  21
HETATM   21  C   UNL     1      40.346 -12.081   4.290  1.00  0.00    -0.028 A 
HETATM   22  C   UNL     1      39.686 -11.252   3.360  1.00  0.00     0.012 A 
HETATM   23  C   UNL     1      38.714 -10.346   3.777  1.00  0.00     0.040 A 
HETATM   24  C   UNL     1      38.391 -10.272   5.124  1.00  0.00     0.099 A 
HETATM   25  C   UNL     1      39.001 -11.100   6.071  1.00  0.00     0.102 A 
HETATM   26  C   UNL     1      39.982 -11.999   5.650  1.00  0.00     0.049 A 
BRANCH  24  27
HETATM   27  O   UNL     1      37.447  -9.360   5.508  1.00  0.00    -0.358 OA
HETATM   28  H   UNL     1      37.012  -9.753   6.290  1.00  0.00     0.218 HD
ENDBRANCH  24  27
BRANCH  25  29
HETATM   29  O   UNL     1      38.575 -10.914   7.359  1.00  0.00    -0.349 OA
BRANCH  29  30
HETATM   30  C   UNL     1      39.343 -10.025   8.170  1.00  0.00     0.171 C 
HETATM   31  C   UNL     1      38.897 -10.203   9.610  1.00  0.00     0.034 C 
ENDBRANCH  29  30
ENDBRANCH  25  29
ENDBRANCH   1  21
BRANCH   5  32
HETATM   32  O   UNL     1      43.717 -14.588   6.336  1.00  0.00    -0.355 OA
HETATM   33  H   UNL     1      44.194 -13.781   6.615  1.00  0.00     0.218 HD
ENDBRANCH   5  32
BRANCH   2  34
HETATM   34  C   UNL     1      40.247 -14.986   2.873  1.00  0.00     0.129 C 
BRANCH  34  35
HETATM   35  C   UNL     1      40.885 -14.861   1.491  1.00  0.00     0.048 C 
BRANCH  35  36
HETATM   36  C   UNL     1      39.912 -15.226   0.377  1.00  0.00     0.236 C 
BRANCH  36  37
HETATM   37  N   UNL     1      39.933 -14.152  -0.692  1.00  0.00    -0.067 N 
HETATM   38  H   UNL     1      40.901 -14.035  -1.014  1.00  0.00     0.280 HD
HETATM   39  C   UNL     1      39.082 -14.523  -1.912  1.00  0.00     0.261 C 
HETATM   40  C   UNL     1      39.155 -13.393  -2.945  1.00  0.00     0.195 C 
HETATM   41  O   UNL     1      38.726 -12.149  -2.381  1.00  0.00    -0.388 OA
HETATM   42  C   UNL     1      39.539 -11.756  -1.271  1.00  0.00     0.195 C 
HETATM   43  C   UNL     1      39.479 -12.799  -0.149  1.00  0.00     0.261 C 
ENDBRANCH  36  37
ENDBRANCH  35  36
ENDBRANCH  34  35
ENDBRANCH   2  34
TORSDOF 14
ENDMDL
MODEL 4
REMARK VINA RESULT:      -7.7      2.103      8.109
REMARK  14 active torsions:
REMARK  status: ('A' for Active; 'I' for Inactive)
REMARK    1  A    between atoms: C_2  and  O_3 
REMARK    2  A    between atoms: O_3  and  C_4 
REMARK    3  A    between atoms: C_5  and  O_6 
REMARK    4  A    between atoms: C_9  and  C_10 
REMARK    5  A    between atoms: N_11  and  C_12 
REMARK    6  A    between atoms: C_12  and  C_13 
REMARK    7  A    between atoms: C_13  and  C_14 
REMARK    8  A    between atoms: C_14  and  N_15 
REMARK    9  A    between atoms: C_24  and  O_25 
REMARK   10  A    between atoms: C_26  and  C_27 
REMARK   11  A    between atoms: C_27  and  C_28 
REMARK   12  A    between atoms: C_32  and  O_33 
REMARK   13  A    between atoms: O_33  and  C_34 
REMARK   14  A    between atoms: C_34  and  C_35 
ROOT
HETATM    1  C   UNL     1      42.181 -14.083   3.852  1.00  0.00     0.161 C 
HETATM    2  N   UNL     1      42.316 -13.029   4.856  1.00  0.00    -0.333 N 
HETATM    3  C   UNL     1      41.108 -12.397   5.076  1.00  0.00     0.278 C 
HETATM    4  O   UNL     1      40.861 -11.494   5.856  1.00  0.00    -0.265 OA
HETATM    5  C   UNL     1      40.118 -12.985   4.148  1.00  0.00     0.146 C 
HETATM    6  C   UNL     1      40.768 -13.882   3.400  1.00  0.00     0.059 C 
ENDROOT
BRANCH   6   7
HETATM    7  C   UNL     1      40.294 -14.616   2.208  1.00  0.00     0.193 C 
HETATM    8  O   UNL     1      39.991 -15.801   2.315  1.00  0.00    -0.287 OA
BRANCH   7   9
HETATM    9  C   UNL     1      40.294 -13.977   0.864  1.00  0.00     0.015 A 
HETATM   10  C   UNL     1      39.672 -14.654  -0.194  1.00  0.00     0.025 A 
HETATM   11  C   UNL     1      39.698 -14.128  -1.498  1.00  0.00    -0.028 A 
HETATM   12  C   UNL     1      39.035 -14.880  -2.620  1.00  0.00     0.051 C 
HETATM   13  C   UNL     1      40.350 -12.906  -1.741  1.00  0.00     0.074 A 
HETATM   14  C   UNL     1      40.993 -12.249  -0.690  1.00  0.00     0.038 A 
HETATM   15  C   UNL     1      40.978 -12.788   0.602  1.00  0.00     0.018 A 
BRANCH  13  16
HETATM   16  O   UNL     1      40.324 -12.462  -3.037  1.00  0.00    -0.350 OA
BRANCH  16  17
HETATM   17  C   UNL     1      40.924 -11.195  -3.312  1.00  0.00     0.179 C 
BRANCH  17  18
HETATM   18  C   UNL     1      39.827 -10.126  -3.399  1.00  0.00     0.002 C 
HETATM   19  C   UNL     1      38.439 -10.726  -3.163  1.00  0.00     0.011 C 
HETATM   20  C   UNL     1      40.098  -9.005  -2.397  1.00  0.00     0.011 C 
ENDBRANCH  17  18
ENDBRANCH  16  17
ENDBRANCH  13  16
ENDBRANCH   7   9
ENDBRANCH   6   7
BRANCH   1  21
HETATM   21  C   UNL     1      42.495 -15.421   4.506  1.00  0.00    -0.028 A 
HETATM   22  C   UNL     1      42.081 -15.712   5.822  1.00  0.00     0.012 A 
HETATM   23  C   UNL     1      42.452 -16.906   6.437  1.00  0.00     0.040 A 
HETATM   24  C   UNL     1      43.229 -17.816   5.736  1.00  0.00     0.099 A 
HETATM   25  C   UNL     1      43.631 -17.576   4.419  1.00  0.00     0.102 A 
HETATM   26  C   UNL     1      43.266 -16.373   3.810  1.00  0.00     0.049 A 
BRANCH  24  27
HETATM   27  O   UNL     1      43.594 -18.971   6.370  1.00  0.00    -0.358 OA
HETATM   28  H   UNL     1      44.507 -19.152   6.072  1.00  0.00     0.218 HD
ENDBRANCH  24  27
BRANCH  25  29
HETATM   29  O   UNL     1      44.390 -18.568   3.856  1.00  0.00    -0.349 OA
BRANCH  29  30
HETATM   30  C   UNL     1      43.981 -19.045   2.575  1.00  0.00     0.171 C 
HETATM   31  C   UNL     1      43.667 -20.525   2.707  1.00  0.00     0.034 C 
ENDBRANCH  29  30
ENDBRANCH  25  29
ENDBRANCH   1  21
BRANCH   5  32
HETATM   32  O   UNL     1      38.827 -12.560   4.058  1.00  0.00    -0.355 OA
HETATM   33  H   UNL     1      38.823 -11.788   3.459  1.00  0.00     0.218 HD
ENDBRANCH   5  32
BRANCH   2  34
HETATM   34  C   UNL     1      43.619 -12.459   5.160  1.00  0.00     0.129 C 
BRANCH  34  35
HETATM   35  C   UNL     1      44.237 -12.923   6.478  1.00  0.00     0.048 C 
BRANCH  35  36
HETATM   36  C   UNL     1      43.743 -12.100   7.662  1.00  0.00     0.236 C 
BRANCH  36  37
HETATM   37  N   UNL     1      44.335 -10.706   7.598  1.00  0.00    -0.067 N 
HETATM   38  H   UNL     1      44.260 -10.367   6.631  1.00  0.00     0.280 HD
HETATM   39  C   UNL     1      43.590  -9.712   8.496  1.00  0.00     0.261 C 
HETATM   40  C   UNL     1      44.244  -8.330   8.375  1.00  0.00     0.195 C 
HETATM   41  O   UNL     1      45.634  -8.386   8.716  1.00  0.00    -0.388 OA
HETATM   42  C   UNL     1      46.360  -9.270   7.856  1.00  0.00     0.195 C 
HETATM   43  C   UNL     1      45.819 -10.701   7.956  1.00  0.00     0.261 C 
ENDBRANCH  36  37
ENDBRANCH  35  36
ENDBRANCH  34  35
ENDBRANCH   2  34
TORSDOF 14
ENDMDL
MODEL 5
REMARK VINA RESULT:      -7.7      2.430      7.067
REMARK  14 active torsions:
REMARK  status: ('A' for Active; 'I' for Inactive)
REMARK    1  A    between atoms: C_2  and  O_3 
REMARK    2  A    between atoms: O_3  and  C_4 
REMARK    3  A    between atoms: C_5  and  O_6 
REMARK    4  A    between atoms: C_9  and  C_10 
REMARK    5  A    between atoms: N_11  and  C_12 
REMARK    6  A    between atoms: C_12  and  C_13 
REMARK    7  A    between atoms: C_13  and  C_14 
REMARK    8  A    between atoms: C_14  and  N_15 
REMARK    9  A    between atoms: C_24  and  O_25 
REMARK   10  A    between atoms: C_26  and  C_27 
REMARK   11  A    between atoms: C_27  and  C_28 
REMARK   12  A    between atoms: C_32  and  O_33 
REMARK   13  A    between atoms: O_33  and  C_34 
REMARK   14  A    between atoms: C_34  and  C_35 
ROOT
HETATM    1  C   UNL     1      40.889 -13.351   4.692  1.00  0.00     0.161 C 
HETATM    2  N   UNL     1      41.114 -14.670   4.106  1.00  0.00    -0.333 N 
HETATM    3  C   UNL     1      40.556 -14.754   2.846  1.00  0.00     0.278 C 
HETATM    4  O   UNL     1      40.575 -15.698   2.074  1.00  0.00    -0.265 OA
HETATM    5  C   UNL     1      39.866 -13.475   2.574  1.00  0.00     0.146 C 
HETATM    6  C   UNL     1      39.993 -12.722   3.671  1.00  0.00     0.059 C 
ENDROOT
BRANCH   6   7
HETATM    7  C   UNL     1      39.340 -11.436   3.996  1.00  0.00     0.193 C 
HETATM    8  O   UNL     1      38.398 -11.051   3.310  1.00  0.00    -0.287 OA
BRANCH   7   9
HETATM    9  C   UNL     1      39.881 -10.550   5.062  1.00  0.00     0.015 A 
HETATM   10  C   UNL     1      39.365 -10.677   6.358  1.00  0.00     0.025 A 
HETATM   11  C   UNL     1      39.792  -9.822   7.389  1.00  0.00    -0.028 A 
HETATM   12  C   UNL     1      39.213  -9.968   8.770  1.00  0.00     0.051 C 
HETATM   13  C   UNL     1      40.754  -8.832   7.117  1.00  0.00     0.074 A 
HETATM   14  C   UNL     1      41.245  -8.690   5.818  1.00  0.00     0.038 A 
HETATM   15  C   UNL     1      40.802  -9.534   4.793  1.00  0.00     0.018 A 
BRANCH  13  16
HETATM   16  O   UNL     1      41.119  -8.045   8.178  1.00  0.00    -0.350 OA
BRANCH  16  17
HETATM   17  C   UNL     1      42.337  -7.307   8.063  1.00  0.00     0.179 C 
BRANCH  17  18
HETATM   18  C   UNL     1      42.979  -7.175   9.451  1.00  0.00     0.002 C 
HETATM   19  C   UNL     1      42.877  -5.743   9.981  1.00  0.00     0.011 C 
HETATM   20  C   UNL     1      42.332  -8.152  10.430  1.00  0.00     0.011 C 
ENDBRANCH  17  18
ENDBRANCH  16  17
ENDBRANCH  13  16
ENDBRANCH   7   9
ENDBRANCH   6   7
BRANCH   1  21
HETATM   21  C   UNL     1      42.238 -12.679   4.909  1.00  0.00    -0.028 A 
HETATM   22  C   UNL     1      43.015 -12.222   3.825  1.00  0.00     0.012 A 
HETATM   23  C   UNL     1      44.285 -11.689   4.035  1.00  0.00     0.040 A 
HETATM   24  C   UNL     1      44.778 -11.604   5.328  1.00  0.00     0.099 A 
HETATM   25  C   UNL     1      44.024 -12.016   6.430  1.00  0.00     0.102 A 
HETATM   26  C   UNL     1      42.755 -12.559   6.215  1.00  0.00     0.049 A 
BRANCH  24  27
HETATM   27  O   UNL     1      46.035 -11.094   5.504  1.00  0.00    -0.358 OA
HETATM   28  H   UNL     1      46.157 -11.035   6.472  1.00  0.00     0.218 HD
ENDBRANCH  24  27
BRANCH  25  29
HETATM   29  O   UNL     1      44.641 -11.865   7.643  1.00  0.00    -0.349 OA
BRANCH  29  30
HETATM   30  C   UNL     1      44.190 -10.791   8.468  1.00  0.00     0.171 C 
HETATM   31  C   UNL     1      45.408 -10.005   8.918  1.00  0.00     0.034 C 
ENDBRANCH  29  30
ENDBRANCH  25  29
ENDBRANCH   1  21
BRANCH   5  32
HETATM   32  O   UNL     1      39.161 -13.229   1.435  1.00  0.00    -0.355 OA
HETATM   33  H   UNL     1      39.136 -12.257   1.321  1.00  0.00     0.218 HD
ENDBRANCH   5  32
BRANCH   2  34
HETATM   34  C   UNL     1      41.431 -15.811   4.952  1.00  0.00     0.129 C 
BRANCH  34  35
HETATM   35  C   UNL     1      42.919 -16.136   5.069  1.00  0.00     0.048 C 
BRANCH  35  36
HETATM   36  C   UNL     1      43.495 -16.659   3.759  1.00  0.00     0.236 C 
BRANCH  36  37
HETATM   37  N   UNL     1      43.259 -18.152   3.657  1.00  0.00    -0.067 N 
HETATM   38  H   UNL     1      42.363 -18.370   4.110  1.00  0.00     0.280 HD
HETATM   39  C   UNL     1      43.172 -18.634   2.204  1.00  0.00     0.261 C 
HETATM   40  C   UNL     1      42.931 -20.148   2.184  1.00  0.00     0.195 C 
HETATM   41  O   UNL     1      43.963 -20.844   2.893  1.00  0.00    -0.388 OA
HETATM   42  C   UNL     1      44.029 -20.447   4.267  1.00  0.00     0.195 C 
HETATM   43  C   UNL     1      44.333 -18.950   4.393  1.00  0.00     0.261 C 
ENDBRANCH  36  37
ENDBRANCH  35  36
ENDBRANCH  34  35
ENDBRANCH   2  34
TORSDOF 14
ENDMDL
MODEL 6
REMARK VINA RESULT:      -7.7      2.372      7.982
REMARK  14 active torsions:
REMARK  status: ('A' for Active; 'I' for Inactive)
REMARK    1  A    between atoms: C_2  and  O_3 
REMARK    2  A    between atoms: O_3  and  C_4 
REMARK    3  A    between atoms: C_5  and  O_6 
REMARK    4  A    between atoms: C_9  and  C_10 
REMARK    5  A    between atoms: N_11  and  C_12 
REMARK    6  A    between atoms: C_12  and  C_13 
REMARK    7  A    between atoms: C_13  and  C_14 
REMARK    8  A    between atoms: C_14  and  N_15 
REMARK    9  A    between atoms: C_24  and  O_25 
REMARK   10  A    between atoms: C_26  and  C_27 
REMARK   11  A    between atoms: C_27  and  C_28 
REMARK   12  A    between atoms: C_32  and  O_33 
REMARK   13  A    between atoms: O_33  and  C_34 
REMARK   14  A    between atoms: C_34  and  C_35 
ROOT
HETATM    1  C   UNL     1      41.891 -14.018   3.425  1.00  0.00     0.161 C 
HETATM    2  N   UNL     1      41.283 -15.241   3.945  1.00  0.00    -0.333 N 
HETATM    3  C   UNL     1      41.333 -15.271   5.324  1.00  0.00     0.278 C 
HETATM    4  O   UNL     1      40.903 -16.129   6.076  1.00  0.00    -0.265 OA
HETATM    5  C   UNL     1      42.058 -14.063   5.775  1.00  0.00     0.146 C 
HETATM    6  C   UNL     1      42.443 -13.407   4.676  1.00  0.00     0.059 C 
ENDROOT
BRANCH   6   7
HETATM    7  C   UNL     1      43.347 -12.244   4.557  1.00  0.00     0.193 C 
HETATM    8  O   UNL     1      43.868 -11.997   3.472  1.00  0.00    -0.287 OA
BRANCH   7   9
HETATM    9  C   UNL     1      43.728 -11.443   5.751  1.00  0.00     0.015 A 
HETATM   10  C   UNL     1      42.814 -10.500   6.239  1.00  0.00     0.025 A 
HETATM   11  C   UNL     1      43.147  -9.671   7.325  1.00  0.00    -0.028 A 
HETATM   12  C   UNL     1      42.154  -8.655   7.822  1.00  0.00     0.051 C 
HETATM   13  C   UNL     1      44.410  -9.794   7.931  1.00  0.00     0.074 A 
HETATM   14  C   UNL     1      45.329 -10.715   7.425  1.00  0.00     0.038 A 
HETATM   15  C   UNL     1      44.996 -11.525   6.333  1.00  0.00     0.018 A 
BRANCH  13  16
HETATM   16  O   UNL     1      44.652  -8.952   8.985  1.00  0.00    -0.350 OA
BRANCH  16  17
HETATM   17  C   UNL     1      45.282  -9.508  10.141  1.00  0.00     0.179 C 
BRANCH  17  18
HETATM   18  C   UNL     1      44.315  -9.431  11.330  1.00  0.00     0.002 C 
HETATM   19  C   UNL     1      43.377  -8.227  11.213  1.00  0.00     0.011 C 
HETATM   20  C   UNL     1      43.508 -10.723  11.441  1.00  0.00     0.011 C 
ENDBRANCH  17  18
ENDBRANCH  16  17
ENDBRANCH  13  16
ENDBRANCH   7   9
ENDBRANCH   6   7
BRANCH   1  21
HETATM   21  C   UNL     1      40.822 -13.214   2.698  1.00  0.00    -0.028 A 
HETATM   22  C   UNL     1      39.834 -12.497   3.402  1.00  0.00     0.012 A 
HETATM   23  C   UNL     1      38.811 -11.839   2.722  1.00  0.00     0.040 A 
HETATM   24  C   UNL     1      38.779 -11.888   1.337  1.00  0.00     0.099 A 
HETATM   25  C   UNL     1      39.760 -12.562   0.603  1.00  0.00     0.102 A 
HETATM   26  C   UNL     1      40.777 -13.228   1.289  1.00  0.00     0.049 A 
BRANCH  24  27
HETATM   27  O   UNL     1      37.754 -11.249   0.696  1.00  0.00    -0.358 OA
HETATM   28  H   UNL     1      37.510 -11.833  -0.049  1.00  0.00     0.218 HD
ENDBRANCH  24  27
BRANCH  25  29
HETATM   29  O   UNL     1      39.597 -12.518  -0.756  1.00  0.00    -0.349 OA
BRANCH  29  30
HETATM   30  C   UNL     1      39.187 -13.726  -1.396  1.00  0.00     0.171 C 
HETATM   31  C   UNL     1      40.115 -13.969  -2.572  1.00  0.00     0.034 C 
ENDBRANCH  29  30
ENDBRANCH  25  29
ENDBRANCH   1  21
BRANCH   5  32
HETATM   32  O   UNL     1      42.335 -13.796   7.080  1.00  0.00    -0.355 OA
HETATM   33  H   UNL     1      41.590 -13.265   7.426  1.00  0.00     0.218 HD
ENDBRANCH   5  32
BRANCH   2  34
HETATM   34  C   UNL     1      41.128 -16.410   3.093  1.00  0.00     0.129 C 
BRANCH  34  35
HETATM   35  C   UNL     1      42.399 -16.865   2.380  1.00  0.00     0.048 C 
BRANCH  35  36
HETATM   36  C   UNL     1      43.565 -17.039   3.346  1.00  0.00     0.236 C 
BRANCH  36  37
HETATM   37  N   UNL     1      44.052 -18.473   3.308  1.00  0.00    -0.067 N 
HETATM   38  H   UNL     1      45.046 -18.471   3.047  1.00  0.00     0.280 HD
HETATM   39  C   UNL     1      43.933 -19.168   4.669  1.00  0.00     0.261 C 
HETATM   40  C   UNL     1      44.445 -20.609   4.549  1.00  0.00     0.195 C 
HETATM   41  O   UNL     1      43.727 -21.330   3.542  1.00  0.00    -0.388 OA
HETATM   42  C   UNL     1      43.867 -20.727   2.251  1.00  0.00     0.195 C 
HETATM   43  C   UNL     1      43.318 -19.296   2.251  1.00  0.00     0.261 C 
ENDBRANCH  36  37
ENDBRANCH  35  36
ENDBRANCH  34  35
ENDBRANCH   2  34
TORSDOF 14
ENDMDL
MODEL 7
REMARK VINA RESULT:      -7.6      2.784      5.367
REMARK  14 active torsions:
REMARK  status: ('A' for Active; 'I' for Inactive)
REMARK    1  A    between atoms: C_2  and  O_3 
REMARK    2  A    between atoms: O_3  and  C_4 
REMARK    3  A    between atoms: C_5  and  O_6 
REMARK    4  A    between atoms: C_9  and  C_10 
REMARK    5  A    between atoms: N_11  and  C_12 
REMARK    6  A    between atoms: C_12  and  C_13 
REMARK    7  A    between atoms: C_13  and  C_14 
REMARK    8  A    between atoms: C_14  and  N_15 
REMARK    9  A    between atoms: C_24  and  O_25 
REMARK   10  A    between atoms: C_26  and  C_27 
REMARK   11  A    between atoms: C_27  and  C_28 
REMARK   12  A    between atoms: C_32  and  O_33 
REMARK   13  A    between atoms: O_33  and  C_34 
REMARK   14  A    between atoms: C_34  and  C_35 
ROOT
HETATM    1  C   UNL     1      40.508 -12.097   2.213  1.00  0.00     0.161 C 
HETATM    2  N   UNL     1      39.452 -11.144   2.547  1.00  0.00    -0.333 N 
HETATM    3  C   UNL     1      39.964 -10.055   3.223  1.00  0.00     0.278 C 
HETATM    4  O   UNL     1      39.368  -9.072   3.630  1.00  0.00    -0.265 OA
HETATM    5  C   UNL     1      41.410 -10.289   3.424  1.00  0.00     0.146 C 
HETATM    6  C   UNL     1      41.684 -11.496   2.919  1.00  0.00     0.059 C 
ENDROOT
BRANCH   6   7
HETATM    7  C   UNL     1      42.929 -12.286   3.020  1.00  0.00     0.193 C 
HETATM    8  O   UNL     1      44.006 -11.701   3.088  1.00  0.00    -0.287 OA
BRANCH   7   9
HETATM    9  C   UNL     1      42.906 -13.770   2.920  1.00  0.00     0.015 A 
HETATM   10  C   UNL     1      42.536 -14.507   4.052  1.00  0.00     0.025 A 
HETATM   11  C   UNL     1      42.560 -15.913   4.034  1.00  0.00    -0.028 A 
HETATM   12  C   UNL     1      42.171 -16.683   5.267  1.00  0.00     0.051 C 
HETATM   13  C   UNL     1      42.953 -16.586   2.864  1.00  0.00     0.074 A 
HETATM   14  C   UNL     1      43.348 -15.848   1.746  1.00  0.00     0.038 A 
HETATM   15  C   UNL     1      43.339 -14.449   1.778  1.00  0.00     0.018 A 
BRANCH  13  16
HETATM   16  O   UNL     1      42.943 -17.955   2.929  1.00  0.00    -0.350 OA
BRANCH  16  17
HETATM   17  C   UNL     1      44.200 -18.617   3.080  1.00  0.00     0.179 C 
BRANCH  17  18
HETATM   18  C   UNL     1      44.021 -20.113   2.786  1.00  0.00     0.002 C 
HETATM   19  C   UNL     1      43.838 -20.920   4.073  1.00  0.00     0.011 C 
HETATM   20  C   UNL     1      42.834 -20.331   1.849  1.00  0.00     0.011 C 
ENDBRANCH  17  18
ENDBRANCH  16  17
ENDBRANCH  13  16
ENDBRANCH   7   9
ENDBRANCH   6   7
BRANCH   1  21
HETATM   21  C   UNL     1      40.611 -12.198   0.697  1.00  0.00    -0.028 A 
HETATM   22  C   UNL     1      40.345 -13.405   0.020  1.00  0.00     0.012 A 
HETATM   23  C   UNL     1      40.529 -13.503  -1.358  1.00  0.00     0.040 A 
HETATM   24  C   UNL     1      40.970 -12.394  -2.063  1.00  0.00     0.099 A 
HETATM   25  C   UNL     1      41.213 -11.171  -1.430  1.00  0.00     0.102 A 
HETATM   26  C   UNL     1      41.037 -11.080  -0.048  1.00  0.00     0.049 A 
BRANCH  24  27
HETATM   27  O   UNL     1      41.160 -12.525  -3.411  1.00  0.00    -0.358 OA
HETATM   28  H   UNL     1      40.860 -13.429  -3.628  1.00  0.00     0.218 HD
ENDBRANCH  24  27
BRANCH  25  29
HETATM   29  O   UNL     1      41.640 -10.167  -2.258  1.00  0.00    -0.349 OA
BRANCH  29  30
HETATM   30  C   UNL     1      42.148  -8.989  -1.633  1.00  0.00     0.171 C 
HETATM   31  C   UNL     1      41.674  -7.792  -2.438  1.00  0.00     0.034 C 
ENDBRANCH  29  30
ENDBRANCH  25  29
ENDBRANCH   1  21
BRANCH   5  32
HETATM   32  O   UNL     1      42.223  -9.434   4.104  1.00  0.00    -0.355 OA
HETATM   33  H   UNL     1      41.986  -9.509   5.050  1.00  0.00     0.218 HD
ENDBRANCH   5  32
BRANCH   2  34
HETATM   34  C   UNL     1      38.060 -11.565   2.582  1.00  0.00     0.129 C 
BRANCH  34  35
HETATM   35  C   UNL     1      37.305 -11.415   1.263  1.00  0.00     0.048 C 
BRANCH  35  36
HETATM   36  C   UNL     1      37.284  -9.971   0.776  1.00  0.00     0.236 C 
BRANCH  36  37
HETATM   37  N   UNL     1      37.256  -9.942  -0.738  1.00  0.00    -0.067 N 
HETATM   38  H   UNL     1      36.326  -9.626  -1.039  1.00  0.00     0.280 HD
HETATM   39  C   UNL     1      38.286  -8.971  -1.325  1.00  0.00     0.261 C 
HETATM   40  C   UNL     1      38.195  -8.997  -2.856  1.00  0.00     0.195 C 
HETATM   41  O   UNL     1      38.393 -10.322  -3.362  1.00  0.00    -0.388 OA
HETATM   42  C   UNL     1      37.410 -11.237  -2.867  1.00  0.00     0.195 C 
HETATM   43  C   UNL     1      37.467 -11.331  -1.339  1.00  0.00     0.261 C 
ENDBRANCH  36  37
ENDBRANCH  35  36
ENDBRANCH  34  35
ENDBRANCH   2  34
TORSDOF 14
ENDMDL
MODEL 8
REMARK VINA RESULT:      -7.5      2.521      8.083
REMARK  14 active torsions:
REMARK  status: ('A' for Active; 'I' for Inactive)
REMARK    1  A    between atoms: C_2  and  O_3 
REMARK    2  A    between atoms: O_3  and  C_4 
REMARK    3  A    between atoms: C_5  and  O_6 
REMARK    4  A    between atoms: C_9  and  C_10 
REMARK    5  A    between atoms: N_11  and  C_12 
REMARK    6  A    between atoms: C_12  and  C_13 
REMARK    7  A    between atoms: C_13  and  C_14 
REMARK    8  A    between atoms: C_14  and  N_15 
REMARK    9  A    between atoms: C_24  and  O_25 
REMARK   10  A    between atoms: C_26  and  C_27 
REMARK   11  A    between atoms: C_27  and  C_28 
REMARK   12  A    between atoms: C_32  and  O_33 
REMARK   13  A    between atoms: O_33  and  C_34 
REMARK   14  A    between atoms: C_34  and  C_35 
ROOT
HETATM    1  C   UNL     1      42.560 -12.963   4.354  1.00  0.00     0.161 C 
HETATM    2  N   UNL     1      42.126 -14.350   4.507  1.00  0.00    -0.333 N 
HETATM    3  C   UNL     1      42.337 -14.796   5.796  1.00  0.00     0.278 C 
HETATM    4  O   UNL     1      42.073 -15.888   6.269  1.00  0.00    -0.265 OA
HETATM    5  C   UNL     1      43.000 -13.707   6.546  1.00  0.00     0.146 C 
HETATM    6  C   UNL     1      43.197 -12.704   5.685  1.00  0.00     0.059 C 
ENDROOT
BRANCH   6   7
HETATM    7  C   UNL     1      43.975 -11.461   5.867  1.00  0.00     0.193 C 
HETATM    8  O   UNL     1      44.928 -11.235   5.126  1.00  0.00    -0.287 OA
BRANCH   7   9
HETATM    9  C   UNL     1      43.699 -10.543   7.005  1.00  0.00     0.015 A 
HETATM   10  C   UNL     1      44.617 -10.498   8.062  1.00  0.00     0.025 A 
HETATM   11  C   UNL     1      44.375  -9.698   9.192  1.00  0.00    -0.028 A 
HETATM   12  C   UNL     1      45.369  -9.676  10.321  1.00  0.00     0.051 C 
HETATM   13  C   UNL     1      43.199  -8.929   9.260  1.00  0.00     0.074 A 
HETATM   14  C   UNL     1      42.272  -8.999   8.218  1.00  0.00     0.038 A 
HETATM   15  C   UNL     1      42.513  -9.811   7.103  1.00  0.00     0.018 A 
BRANCH  13  16
HETATM   16  O   UNL     1      43.041  -8.174  10.392  1.00  0.00    -0.350 OA
BRANCH  16  17
HETATM   17  C   UNL     1      41.827  -8.332  11.127  1.00  0.00     0.179 C 
BRANCH  17  18
HETATM   18  C   UNL     1      42.158  -8.752  12.566  1.00  0.00     0.002 C 
HETATM   19  C   UNL     1      42.518 -10.237  12.647  1.00  0.00     0.011 C 
HETATM   20  C   UNL     1      43.298  -7.898  13.118  1.00  0.00     0.011 C 
ENDBRANCH  17  18
ENDBRANCH  16  17
ENDBRANCH  13  16
ENDBRANCH   7   9
ENDBRANCH   6   7
BRANCH   1  21
HETATM   21  C   UNL     1      41.348 -12.109   4.010  1.00  0.00    -0.028 A 
HETATM   22  C   UNL     1      40.327 -11.866   4.952  1.00  0.00     0.012 A 
HETATM   23  C   UNL     1      39.183 -11.156   4.594  1.00  0.00     0.040 A 
HETATM   24  C   UNL     1      39.060 -10.679   3.298  1.00  0.00     0.099 A 
HETATM   25  C   UNL     1      40.066 -10.871   2.347  1.00  0.00     0.102 A 
HETATM   26  C   UNL     1      41.206 -11.592   2.707  1.00  0.00     0.049 A 
BRANCH  24  27
HETATM   27  O   UNL     1      37.918 -10.002   2.969  1.00  0.00    -0.358 OA
HETATM   28  H   UNL     1      37.425  -9.903   3.808  1.00  0.00     0.218 HD
ENDBRANCH  24  27
BRANCH  25  29
HETATM   29  O   UNL     1      39.804 -10.338   1.113  1.00  0.00    -0.349 OA
BRANCH  29  30
HETATM   30  C   UNL     1      40.823 -10.472   0.123  1.00  0.00     0.171 C 
HETATM   31  C   UNL     1      40.193 -11.084  -1.116  1.00  0.00     0.034 C 
ENDBRANCH  29  30
ENDBRANCH  25  29
ENDBRANCH   1  21
BRANCH   5  32
HETATM   32  O   UNL     1      43.402 -13.823   7.841  1.00  0.00    -0.355 OA
HETATM   33  H   UNL     1      44.376 -13.908   7.830  1.00  0.00     0.218 HD
ENDBRANCH   5  32
BRANCH   2  34
HETATM   34  C   UNL     1      41.977 -15.210   3.344  1.00  0.00     0.129 C 
BRANCH  34  35
HETATM   35  C   UNL     1      43.255 -15.910   2.888  1.00  0.00     0.048 C 
BRANCH  35  36
HETATM   36  C   UNL     1      42.961 -17.166   2.077  1.00  0.00     0.236 C 
BRANCH  36  37
HETATM   37  N   UNL     1      43.685 -18.350   2.686  1.00  0.00    -0.067 N 
HETATM   38  H   UNL     1      44.663 -18.327   2.375  1.00  0.00     0.280 HD
HETATM   39  C   UNL     1      43.686 -18.309   4.219  1.00  0.00     0.261 C 
HETATM   40  C   UNL     1      44.435 -19.534   4.758  1.00  0.00     0.195 C 
HETATM   41  O   UNL     1      43.849 -20.749   4.279  1.00  0.00    -0.388 OA
HETATM   42  C   UNL     1      43.883 -20.833   2.851  1.00  0.00     0.195 C 
HETATM   43  C   UNL     1      43.100 -19.679   2.214  1.00  0.00     0.261 C 
ENDBRANCH  36  37
ENDBRANCH  35  36
ENDBRANCH  34  35
ENDBRANCH   2  34
TORSDOF 14
ENDMDL
MODEL 9
REMARK VINA RESULT:      -7.5      2.555      7.789
REMARK  14 active torsions:
REMARK  status: ('A' for Active; 'I' for Inactive)
REMARK    1  A    between atoms: C_2  and  O_3 
REMARK    2  A    between atoms: O_3  and  C_4 
REMARK    3  A    between atoms: C_5  and  O_6 
REMARK    4  A    between atoms: C_9  and  C_10 
REMARK    5  A    between atoms: N_11  and  C_12 
REMARK    6  A    between atoms: C_12  and  C_13 
REMARK    7  A    between atoms: C_13  and  C_14 
REMARK    8  A    between atoms: C_14  and  N_15 
REMARK    9  A    between atoms: C_24  and  O_25 
REMARK   10  A    between atoms: C_26  and  C_27 
REMARK   11  A    between atoms: C_27  and  C_28 
REMARK   12  A    between atoms: C_32  and  O_33 
REMARK   13  A    between atoms: O_33  and  C_34 
REMARK   14  A    between atoms: C_34  and  C_35 
ROOT
HETATM    1  C   UNL     1      42.267 -13.356   4.375  1.00  0.00     0.161 C 
HETATM    2  N   UNL     1      41.829 -14.710   4.707  1.00  0.00    -0.333 N 
HETATM    3  C   UNL     1      42.092 -15.006   6.029  1.00  0.00     0.278 C 
HETATM    4  O   UNL     1      41.840 -16.032   6.637  1.00  0.00    -0.265 OA
HETATM    5  C   UNL     1      42.795 -13.846   6.618  1.00  0.00     0.146 C 
HETATM    6  C   UNL     1      42.962 -12.952   5.638  1.00  0.00     0.059 C 
ENDROOT
BRANCH   6   7
HETATM    7  C   UNL     1      43.758 -11.707   5.642  1.00  0.00     0.193 C 
HETATM    8  O   UNL     1      44.420 -11.415   4.649  1.00  0.00    -0.287 OA
BRANCH   7   9
HETATM    9  C   UNL     1      43.863 -10.867   6.866  1.00  0.00     0.015 A 
HETATM   10  C   UNL     1      42.752 -10.101   7.244  1.00  0.00     0.025 A 
HETATM   11  C   UNL     1      42.817  -9.241   8.354  1.00  0.00    -0.028 A 
HETATM   12  C   UNL     1      41.616  -8.417   8.733  1.00  0.00     0.051 C 
HETATM   13  C   UNL     1      44.008  -9.152   9.096  1.00  0.00     0.074 A 
HETATM   14  C   UNL     1      45.122  -9.895   8.699  1.00  0.00     0.038 A 
HETATM   15  C   UNL     1      45.055 -10.737   7.583  1.00  0.00     0.018 A 
BRANCH  13  16
HETATM   16  O   UNL     1      43.986  -8.295  10.165  1.00  0.00    -0.350 OA
BRANCH  16  17
HETATM   17  C   UNL     1      44.061  -8.867  11.471  1.00  0.00     0.179 C 
BRANCH  17  18
HETATM   18  C   UNL     1      42.797  -8.496  12.259  1.00  0.00     0.002 C 
HETATM   19  C   UNL     1      41.978  -9.737  12.622  1.00  0.00     0.011 C 
HETATM   20  C   UNL     1      43.168  -7.717  13.520  1.00  0.00     0.011 C 
ENDBRANCH  17  18
ENDBRANCH  16  17
ENDBRANCH  13  16
ENDBRANCH   7   9
ENDBRANCH   6   7
BRANCH   1  21
HETATM   21  C   UNL     1      41.048 -12.533   3.984  1.00  0.00    -0.028 A 
HETATM   22  C   UNL     1      40.708 -12.318   2.633  1.00  0.00     0.012 A 
HETATM   23  C   UNL     1      39.641 -11.489   2.291  1.00  0.00     0.040 A 
HETATM   24  C   UNL     1      38.906 -10.882   3.297  1.00  0.00     0.099 A 
HETATM   25  C   UNL     1      39.193 -11.097   4.648  1.00  0.00     0.102 A 
HETATM   26  C   UNL     1      40.270 -11.920   4.986  1.00  0.00     0.049 A 
BRANCH  24  27
HETATM   27  O   UNL     1      37.877 -10.059   2.932  1.00  0.00    -0.358 OA
HETATM   28  H   UNL     1      38.127  -9.172   3.257  1.00  0.00     0.218 HD
ENDBRANCH  24  27
BRANCH  25  29
HETATM   29  O   UNL     1      38.378 -10.434   5.525  1.00  0.00    -0.349 OA
BRANCH  29  30
HETATM   30  C   UNL     1      39.015  -9.606   6.498  1.00  0.00     0.171 C 
HETATM   31  C   UNL     1      38.979  -8.176   5.990  1.00  0.00     0.034 C 
ENDBRANCH  29  30
ENDBRANCH  25  29
ENDBRANCH   1  21
BRANCH   5  32
HETATM   32  O   UNL     1      43.250 -13.814   7.901  1.00  0.00    -0.355 OA
HETATM   33  H   UNL     1      42.470 -13.683   8.476  1.00  0.00     0.218 HD
ENDBRANCH   5  32
BRANCH   2  34
HETATM   34  C   UNL     1      41.624 -15.699   3.659  1.00  0.00     0.129 C 
BRANCH  34  35
HETATM   35  C   UNL     1      42.893 -16.160   2.946  1.00  0.00     0.048 C 
BRANCH  35  36
HETATM   36  C   UNL     1      43.769 -17.028   3.842  1.00  0.00     0.236 C 
BRANCH  36  37
HETATM   37  N   UNL     1      43.425 -18.488   3.634  1.00  0.00    -0.067 N 
HETATM   38  H   UNL     1      42.461 -18.642   3.955  1.00  0.00     0.280 HD
HETATM   39  C   UNL     1      43.493 -18.903   2.160  1.00  0.00     0.261 C 
HETATM   40  C   UNL     1      43.131 -20.388   2.033  1.00  0.00     0.195 C 
HETATM   41  O   UNL     1      43.996 -21.200   2.834  1.00  0.00    -0.388 OA
HETATM   42  C   UNL     1      43.911 -20.865   4.223  1.00  0.00     0.195 C 
HETATM   43  C   UNL     1      44.320 -19.408   4.463  1.00  0.00     0.261 C 
ENDBRANCH  36  37
ENDBRANCH  35  36
ENDBRANCH  34  35
ENDBRANCH   2  34
TORSDOF 14
ENDMDL
MODEL 10
REMARK VINA RESULT:      -7.5      2.862      7.049
REMARK  14 active torsions:
REMARK  status: ('A' for Active; 'I' for Inactive)
REMARK    1  A    between atoms: C_2  and  O_3 
REMARK    2  A    between atoms: O_3  and  C_4 
REMARK    3  A    between atoms: C_5  and  O_6 
REMARK    4  A    between atoms: C_9  and  C_10 
REMARK    5  A    between atoms: N_11  and  C_12 
REMARK    6  A    between atoms: C_12  and  C_13 
REMARK    7  A    between atoms: C_13  and  C_14 
REMARK    8  A    between atoms: C_14  and  N_15 
REMARK    9  A    between atoms: C_24  and  O_25 
REMARK   10  A    between atoms: C_26  and  C_27 
REMARK   11  A    between atoms: C_27  and  C_28 
REMARK   12  A    between atoms: C_32  and  O_33 
REMARK   13  A    between atoms: O_33  and  C_34 
REMARK   14  A    between atoms: C_34  and  C_35 
ROOT
HETATM    1  C   UNL     1      40.847 -11.258   6.245  1.00  0.00     0.161 C 
HETATM    2  N   UNL     1      40.369 -12.424   5.505  1.00  0.00    -0.333 N 
HETATM    3  C   UNL     1      39.593 -12.044   4.429  1.00  0.00     0.278 C 
HETATM    4  O   UNL     1      39.057 -12.757   3.597  1.00  0.00    -0.265 OA
HETATM    5  C   UNL     1      39.473 -10.571   4.459  1.00  0.00     0.146 C 
HETATM    6  C   UNL     1      40.121 -10.148   5.549  1.00  0.00     0.059 C 
ENDROOT
BRANCH   6   7
HETATM    7  C   UNL     1      40.155  -8.796   6.144  1.00  0.00     0.193 C 
HETATM    8  O   UNL     1      40.022  -7.816   5.416  1.00  0.00    -0.287 OA
BRANCH   7   9
HETATM    9  C   UNL     1      40.464  -8.602   7.587  1.00  0.00     0.015 A 
HETATM   10  C   UNL     1      41.577  -7.821   7.929  1.00  0.00     0.025 A 
HETATM   11  C   UNL     1      41.954  -7.657   9.273  1.00  0.00    -0.028 A 
HETATM   12  C   UNL     1      43.160  -6.826   9.615  1.00  0.00     0.051 C 
HETATM   13  C   UNL     1      41.202  -8.279  10.286  1.00  0.00     0.074 A 
HETATM   14  C   UNL     1      40.112  -9.079   9.940  1.00  0.00     0.038 A 
HETATM   15  C   UNL     1      39.753  -9.252   8.598  1.00  0.00     0.018 A 
BRANCH  13  16
HETATM   16  O   UNL     1      41.634  -8.064  11.569  1.00  0.00    -0.350 OA
BRANCH  16  17
HETATM   17  C   UNL     1      41.716  -9.197  12.436  1.00  0.00     0.179 C 
BRANCH  17  18
HETATM   18  C   UNL     1      42.459  -8.799  13.718  1.00  0.00     0.002 C 
HETATM   19  C   UNL     1      43.277  -7.521  13.518  1.00  0.00     0.011 C 
HETATM   20  C   UNL     1      41.471  -8.622  14.870  1.00  0.00     0.011 C 
ENDBRANCH  17  18
ENDBRANCH  16  17
ENDBRANCH  13  16
ENDBRANCH   7   9
ENDBRANCH   6   7
BRANCH   1  21
HETATM   21  C   UNL     1      42.367 -11.221   6.167  1.00  0.00    -0.028 A 
HETATM   22  C   UNL     1      43.044 -11.361   4.938  1.00  0.00     0.012 A 
HETATM   23  C   UNL     1      44.436 -11.414   4.895  1.00  0.00     0.040 A 
HETATM   24  C   UNL     1      45.154 -11.317   6.077  1.00  0.00     0.099 A 
HETATM   25  C   UNL     1      44.518 -11.144   7.310  1.00  0.00     0.102 A 
HETATM   26  C   UNL     1      43.123 -11.103   7.350  1.00  0.00     0.049 A 
BRANCH  24  27
HETATM   27  O   UNL     1      46.518 -11.390   6.007  1.00  0.00    -0.358 OA
HETATM   28  H   UNL     1      46.707 -12.195   5.486  1.00  0.00     0.218 HD
ENDBRANCH  24  27
BRANCH  25  29
HETATM   29  O   UNL     1      45.360 -11.060   8.387  1.00  0.00    -0.349 OA
BRANCH  29  30
HETATM   30  C   UNL     1      45.480  -9.783   9.013  1.00  0.00     0.171 C 
HETATM   31  C   UNL     1      45.022  -9.924  10.454  1.00  0.00     0.034 C 
ENDBRANCH  29  30
ENDBRANCH  25  29
ENDBRANCH   1  21
BRANCH   5  32
HETATM   32  O   UNL     1      38.731  -9.859   3.566  1.00  0.00    -0.355 OA
HETATM   33  H   UNL     1      38.134  -9.285   4.087  1.00  0.00     0.218 HD
ENDBRANCH   5  32
BRANCH   2  34
HETATM   34  C   UNL     1      40.332 -13.735   6.135  1.00  0.00     0.129 C 
BRANCH  34  35
HETATM   35  C   UNL     1      41.465 -14.678   5.736  1.00  0.00     0.048 C 
BRANCH  35  36
HETATM   36  C   UNL     1      41.008 -15.726   4.728  1.00  0.00     0.236 C 
BRANCH  36  37
HETATM   37  N   UNL     1      40.807 -15.078   3.373  1.00  0.00    -0.067 N 
HETATM   38  H   UNL     1      40.115 -14.325   3.473  1.00  0.00     0.280 HD
HETATM   39  C   UNL     1      42.095 -14.452   2.826  1.00  0.00     0.261 C 
HETATM   40  C   UNL     1      41.811 -13.818   1.459  1.00  0.00     0.195 C 
HETATM   41  O   UNL     1      41.281 -14.782   0.543  1.00  0.00    -0.388 OA
HETATM   42  C   UNL     1      40.050 -15.343   1.009  1.00  0.00     0.195 C 
HETATM   43  C   UNL     1      40.246 -16.062   2.349  1.00  0.00     0.261 C 
ENDBRANCH  36  37
ENDBRANCH  35  36
ENDBRANCH  34  35
ENDBRANCH   2  34
TORSDOF 14
ENDMDL
