MODEL 1
REMARK VINA RESULT:      -9.1      0.000      0.000
REMARK  3 active torsions:
REMARK  status: ('A' for Active; 'I' for Inactive)
REMARK    1  A    between atoms: C_8  and  C_9 
REMARK       I    between atoms: C_9  and  N_10 
REMARK    2  A    between atoms: N_10  and  C_11 
REMARK    3  A    between atoms: C_18  and  C_19 
REMARK       I    between atoms: C_19  and  N_20 
ROOT
HETATM    1  C   UNL     1      40.673 -14.808   1.335  1.00  0.00     0.036 A 
HETATM    2  C   UNL     1      40.181 -15.007   0.037  1.00  0.00     0.046 A 
HETATM    3  C   UNL     1      39.452 -13.978  -0.597  1.00  0.00     0.030 A 
HETATM    4  C   UNL     1      39.272 -12.774   0.073  1.00  0.00     0.063 A 
HETATM    5  N   UNL     1      38.555 -11.987  -0.786  1.00  0.00    -0.277 N 
HETATM    6  H   UNL     1      38.249 -11.033  -0.632  1.00  0.00     0.189 HD
HETATM    7  N   UNL     1      38.222 -12.583  -1.942  1.00  0.00    -0.168 NA
HETATM    8  C   UNL     1      38.765 -13.817  -1.838  1.00  0.00     0.156 A 
HETATM    9  C   UNL     1      39.760 -12.536   1.359  1.00  0.00     0.034 A 
HETATM   10  C   UNL     1      40.450 -13.584   1.980  1.00  0.00     0.032 A 
ENDROOT
BRANCH   1  11
HETATM   11  N   UNL     1      41.356 -15.805   2.069  1.00  0.00    -0.323 N 
HETATM   12  C   UNL     1      42.718 -16.056   2.056  1.00  0.00     0.258 C 
HETATM   13  O   UNL     1      43.578 -15.374   1.519  1.00  0.00    -0.267 OA
HETATM   14  H   UNL     1      40.769 -16.401   2.636  1.00  0.00     0.169 HD
BRANCH  12  15
HETATM   15  C   UNL     1      43.136 -17.283   2.787  1.00  0.00     0.056 A 
HETATM   16  C   UNL     1      43.474 -17.236   4.147  1.00  0.00     0.048 A 
HETATM   17  C   UNL     1      43.408 -15.970   4.954  1.00  0.00     0.071 C 
HETATM   18  N   UNL     1      43.887 -18.339   4.832  1.00  0.00    -0.241 NA
HETATM   19  C   UNL     1      43.948 -19.505   4.159  1.00  0.00     0.126 A 
HETATM   20 CL   UNL     1      44.483 -20.842   5.087  1.00  0.00    -0.063 Cl
HETATM   21  C   UNL     1      43.615 -19.652   2.825  1.00  0.00     0.045 A 
HETATM   22  C   UNL     1      43.197 -18.520   2.129  1.00  0.00     0.022 A 
ENDBRANCH  12  15
ENDBRANCH   1  11
BRANCH   8  23
HETATM   23  C   UNL     1      38.596 -14.815  -2.904  1.00  0.00     0.270 C 
HETATM   24  N   UNL     1      38.324 -16.077  -2.449  1.00  0.00    -0.365 N 
HETATM   25  H   UNL     1      38.286 -16.234  -1.450  1.00  0.00     0.159 HD
HETATM   26  H   UNL     1      38.233 -16.834  -3.108  1.00  0.00     0.159 HD
HETATM   27  O   UNL     1      38.699 -14.581  -4.103  1.00  0.00    -0.266 OA
ENDBRANCH   8  23
TORSDOF 3
ENDMDL
MODEL 2
REMARK VINA RESULT:      -8.2      4.831      7.441
REMARK  3 active torsions:
REMARK  status: ('A' for Active; 'I' for Inactive)
REMARK    1  A    between atoms: C_8  and  C_9 
REMARK       I    between atoms: C_9  and  N_10 
REMARK    2  A    between atoms: N_10  and  C_11 
REMARK    3  A    between atoms: C_18  and  C_19 
REMARK       I    between atoms: C_19  and  N_20 
ROOT
HETATM    1  C   UNL     1      42.708 -13.205   5.163  1.00  0.00     0.036 A 
HETATM    2  C   UNL     1      43.639 -12.669   6.064  1.00  0.00     0.046 A 
HETATM    3  C   UNL     1      43.429 -11.380   6.599  1.00  0.00     0.030 A 
HETATM    4  C   UNL     1      42.279 -10.686   6.243  1.00  0.00     0.063 A 
HETATM    5  N   UNL     1      42.350  -9.499   6.919  1.00  0.00    -0.277 N 
HETATM    6  H   UNL     1      41.673  -8.744   6.906  1.00  0.00     0.189 HD
HETATM    7  N   UNL     1      43.461  -9.343   7.657  1.00  0.00    -0.168 NA
HETATM    8  C   UNL     1      44.141 -10.497   7.465  1.00  0.00     0.156 A 
HETATM    9  C   UNL     1      41.324 -11.193   5.360  1.00  0.00     0.034 A 
HETATM   10  C   UNL     1      41.572 -12.460   4.817  1.00  0.00     0.032 A 
ENDROOT
BRANCH   1  11
HETATM   11  N   UNL     1      42.870 -14.458   4.530  1.00  0.00    -0.323 N 
HETATM   12  C   UNL     1      42.357 -15.673   4.953  1.00  0.00     0.258 C 
HETATM   13  O   UNL     1      41.563 -15.848   5.866  1.00  0.00    -0.267 OA
HETATM   14  H   UNL     1      43.444 -14.450   3.698  1.00  0.00     0.169 HD
BRANCH  12  15
HETATM   15  C   UNL     1      42.838 -16.857   4.192  1.00  0.00     0.056 A 
HETATM   16  C   UNL     1      42.288 -17.189   2.946  1.00  0.00     0.048 A 
HETATM   17  C   UNL     1      41.213 -16.367   2.290  1.00  0.00     0.071 C 
HETATM   18  N   UNL     1      42.691 -18.283   2.241  1.00  0.00    -0.241 NA
HETATM   19  C   UNL     1      43.663 -19.046   2.777  1.00  0.00     0.126 A 
HETATM   20 CL   UNL     1      44.108 -20.406   1.835  1.00  0.00    -0.063 Cl
HETATM   21  C   UNL     1      44.279 -18.786   3.987  1.00  0.00     0.045 A 
HETATM   22  C   UNL     1      43.860 -17.669   4.705  1.00  0.00     0.022 A 
ENDBRANCH  12  15
ENDBRANCH   1  11
BRANCH   8  23
HETATM   23  C   UNL     1      45.455 -10.717   8.085  1.00  0.00     0.270 C 
HETATM   24  N   UNL     1      46.503 -10.667   7.207  1.00  0.00    -0.365 N 
HETATM   25  H   UNL     1      46.306 -10.513   6.225  1.00  0.00     0.159 HD
HETATM   26  H   UNL     1      47.438 -10.847   7.537  1.00  0.00     0.159 HD
HETATM   27  O   UNL     1      45.637 -10.945   9.276  1.00  0.00    -0.266 OA
ENDBRANCH   8  23
TORSDOF 3
ENDMDL
MODEL 3
REMARK VINA RESULT:      -8.2      3.561      8.216
REMARK  3 active torsions:
REMARK  status: ('A' for Active; 'I' for Inactive)
REMARK    1  A    between atoms: C_8  and  C_9 
REMARK       I    between atoms: C_9  and  N_10 
REMARK    2  A    between atoms: N_10  and  C_11 
REMARK    3  A    between atoms: C_18  and  C_19 
REMARK       I    between atoms: C_19  and  N_20 
ROOT
HETATM    1  C   UNL     1      42.462 -16.090   2.516  1.00  0.00     0.036 A 
HETATM    2  C   UNL     1      42.340 -15.927   3.902  1.00  0.00     0.046 A 
HETATM    3  C   UNL     1      42.871 -16.905   4.769  1.00  0.00     0.030 A 
HETATM    4  C   UNL     1      43.539 -17.994   4.222  1.00  0.00     0.063 A 
HETATM    5  N   UNL     1      43.944 -18.744   5.291  1.00  0.00    -0.277 N 
HETATM    6  H   UNL     1      44.471 -19.610   5.269  1.00  0.00     0.189 HD
HETATM    7  N   UNL     1      43.571 -18.259   6.486  1.00  0.00    -0.168 NA
HETATM    8  C   UNL     1      42.902 -17.124   6.180  1.00  0.00     0.156 A 
HETATM    9  C   UNL     1      43.692 -18.182   2.847  1.00  0.00     0.034 A 
HETATM   10  C   UNL     1      43.126 -17.215   2.007  1.00  0.00     0.032 A 
ENDROOT
BRANCH   1  11
HETATM   11  N   UNL     1      41.904 -15.196   1.574  1.00  0.00    -0.323 N 
HETATM   12  C   UNL     1      40.559 -14.936   1.372  1.00  0.00     0.258 C 
HETATM   13  O   UNL     1      39.631 -15.328   2.065  1.00  0.00    -0.267 OA
HETATM   14  H   UNL     1      42.572 -14.726   0.978  1.00  0.00     0.169 HD
BRANCH  12  15
HETATM   15  C   UNL     1      40.254 -14.085   0.190  1.00  0.00     0.056 A 
HETATM   16  C   UNL     1      40.509 -12.707   0.206  1.00  0.00     0.048 A 
HETATM   17  C   UNL     1      41.125 -12.010   1.386  1.00  0.00     0.071 C 
HETATM   18  N   UNL     1      40.213 -11.901  -0.852  1.00  0.00    -0.241 NA
HETATM   19  C   UNL     1      39.673 -12.478  -1.944  1.00  0.00     0.126 A 
HETATM   20 CL   UNL     1      39.323 -11.398  -3.227  1.00  0.00    -0.063 Cl
HETATM   21  C   UNL     1      39.407 -13.830  -2.059  1.00  0.00     0.045 A 
HETATM   22  C   UNL     1      39.707 -14.648  -0.972  1.00  0.00     0.022 A 
ENDBRANCH  12  15
ENDBRANCH   1  11
BRANCH   8  23
HETATM   23  C   UNL     1      42.289 -16.295   7.228  1.00  0.00     0.270 C 
HETATM   24  N   UNL     1      43.141 -15.961   8.245  1.00  0.00    -0.365 N 
HETATM   25  H   UNL     1      44.089 -16.317   8.220  1.00  0.00     0.159 HD
HETATM   26  H   UNL     1      42.796 -15.429   9.028  1.00  0.00     0.159 HD
HETATM   27  O   UNL     1      41.118 -15.929   7.235  1.00  0.00    -0.266 OA
ENDBRANCH   8  23
TORSDOF 3
ENDMDL
MODEL 4
REMARK VINA RESULT:      -8.1      2.023      3.136
REMARK  3 active torsions:
REMARK  status: ('A' for Active; 'I' for Inactive)
REMARK    1  A    between atoms: C_8  and  C_9 
REMARK       I    between atoms: C_9  and  N_10 
REMARK    2  A    between atoms: N_10  and  C_11 
REMARK    3  A    between atoms: C_18  and  C_19 
REMARK       I    between atoms: C_19  and  N_20 
ROOT
HETATM    1  C   UNL     1      40.993 -14.873   1.143  1.00  0.00     0.036 A 
HETATM    2  C   UNL     1      41.295 -13.508   1.253  1.00  0.00     0.046 A 
HETATM    3  C   UNL     1      40.691 -12.588   0.370  1.00  0.00     0.030 A 
HETATM    4  C   UNL     1      39.779 -13.058  -0.567  1.00  0.00     0.063 A 
HETATM    5  N   UNL     1      39.363 -11.950  -1.253  1.00  0.00    -0.277 N 
HETATM    6  H   UNL     1      38.688 -11.914  -2.008  1.00  0.00     0.189 HD
HETATM    7  N   UNL     1      39.948 -10.804  -0.869  1.00  0.00    -0.168 NA
HETATM    8  C   UNL     1      40.776 -11.183   0.132  1.00  0.00     0.156 A 
HETATM    9  C   UNL     1      39.444 -14.406  -0.696  1.00  0.00     0.034 A 
HETATM   10  C   UNL     1      40.082 -15.304   0.169  1.00  0.00     0.032 A 
ENDROOT
BRANCH   1  11
HETATM   11  N   UNL     1      41.598 -15.871   1.941  1.00  0.00    -0.323 N 
HETATM   12  C   UNL     1      42.947 -16.176   2.004  1.00  0.00     0.258 C 
HETATM   13  O   UNL     1      43.860 -15.547   1.490  1.00  0.00    -0.267 OA
HETATM   14  H   UNL     1      40.960 -16.425   2.496  1.00  0.00     0.169 HD
BRANCH  12  15
HETATM   15  C   UNL     1      43.279 -17.395   2.792  1.00  0.00     0.056 A 
HETATM   16  C   UNL     1      43.556 -17.316   4.164  1.00  0.00     0.048 A 
HETATM   17  C   UNL     1      43.508 -16.022   4.927  1.00  0.00     0.071 C 
HETATM   18  N   UNL     1      43.889 -18.411   4.902  1.00  0.00    -0.241 NA
HETATM   19  C   UNL     1      43.931 -19.600   4.270  1.00  0.00     0.126 A 
HETATM   20 CL   UNL     1      44.365 -20.926   5.264  1.00  0.00    -0.063 Cl
HETATM   21  C   UNL     1      43.653 -19.778   2.927  1.00  0.00     0.045 A 
HETATM   22  C   UNL     1      43.317 -18.655   2.177  1.00  0.00     0.022 A 
ENDBRANCH  12  15
ENDBRANCH   1  11
BRANCH   8  23
HETATM   23  C   UNL     1      41.642 -10.210   0.813  1.00  0.00     0.270 C 
HETATM   24  N   UNL     1      41.755  -9.011   0.162  1.00  0.00    -0.365 N 
HETATM   25  H   UNL     1      41.275  -8.893  -0.722  1.00  0.00     0.159 HD
HETATM   26  H   UNL     1      42.361  -8.298   0.535  1.00  0.00     0.159 HD
HETATM   27  O   UNL     1      42.240 -10.420   1.863  1.00  0.00    -0.266 OA
ENDBRANCH   8  23
TORSDOF 3
ENDMDL
MODEL 5
REMARK VINA RESULT:      -8.0      9.932     12.467
REMARK  3 active torsions:
REMARK  status: ('A' for Active; 'I' for Inactive)
REMARK    1  A    between atoms: C_8  and  C_9 
REMARK       I    between atoms: C_9  and  N_10 
REMARK    2  A    between atoms: N_10  and  C_11 
REMARK    3  A    between atoms: C_18  and  C_19 
REMARK       I    between atoms: C_19  and  N_20 
ROOT
HETATM    1  C   UNL     1      44.458  -9.863  10.032  1.00  0.00     0.036 A 
HETATM    2  C   UNL     1      44.038 -10.924   9.218  1.00  0.00     0.046 A 
HETATM    3  C   UNL     1      44.676 -11.146   7.979  1.00  0.00     0.030 A 
HETATM    4  C   UNL     1      45.735 -10.324   7.613  1.00  0.00     0.063 A 
HETATM    5  N   UNL     1      46.148 -10.787   6.394  1.00  0.00    -0.277 N 
HETATM    6  H   UNL     1      46.910 -10.430   5.829  1.00  0.00     0.189 HD
HETATM    7  N   UNL     1      45.430 -11.816   5.916  1.00  0.00    -0.168 NA
HETATM    8  C   UNL     1      44.512 -12.046   6.883  1.00  0.00     0.156 A 
HETATM    9  C   UNL     1      46.189  -9.268   8.405  1.00  0.00     0.034 A 
HETATM   10  C   UNL     1      45.518  -9.046   9.614  1.00  0.00     0.032 A 
ENDROOT
BRANCH   1  11
HETATM   11  N   UNL     1      43.836  -9.528  11.256  1.00  0.00    -0.323 N 
HETATM   12  C   UNL     1      42.813  -8.613  11.443  1.00  0.00     0.258 C 
HETATM   13  O   UNL     1      42.179  -8.042  10.568  1.00  0.00    -0.267 OA
HETATM   14  H   UNL     1      44.207  -9.996  12.071  1.00  0.00     0.169 HD
BRANCH  12  15
HETATM   15  C   UNL     1      42.477  -8.328  12.865  1.00  0.00     0.056 A 
HETATM   16  C   UNL     1      41.445  -9.018  13.516  1.00  0.00     0.048 A 
HETATM   17  C   UNL     1      40.641 -10.095  12.844  1.00  0.00     0.071 C 
HETATM   18  N   UNL     1      41.099  -8.758  14.808  1.00  0.00    -0.241 NA
HETATM   19  C   UNL     1      41.800  -7.811  15.462  1.00  0.00     0.126 A 
HETATM   20 CL   UNL     1      41.299  -7.537  17.078  1.00  0.00    -0.063 Cl
HETATM   21  C   UNL     1      42.846  -7.095  14.910  1.00  0.00     0.045 A 
HETATM   22  C   UNL     1      43.192  -7.363  13.589  1.00  0.00     0.022 A 
ENDBRANCH  12  15
ENDBRANCH   1  11
BRANCH   8  23
HETATM   23  C   UNL     1      43.492 -13.094   6.730  1.00  0.00     0.270 C 
HETATM   24  N   UNL     1      42.229 -12.615   6.511  1.00  0.00    -0.365 N 
HETATM   25  H   UNL     1      42.086 -11.613   6.496  1.00  0.00     0.159 HD
HETATM   26  H   UNL     1      41.459 -13.261   6.434  1.00  0.00     0.159 HD
HETATM   27  O   UNL     1      43.710 -14.299   6.803  1.00  0.00    -0.266 OA
ENDBRANCH   8  23
TORSDOF 3
ENDMDL
MODEL 6
REMARK VINA RESULT:      -7.8      3.522      7.818
REMARK  3 active torsions:
REMARK  status: ('A' for Active; 'I' for Inactive)
REMARK    1  A    between atoms: C_8  and  C_9 
REMARK       I    between atoms: C_9  and  N_10 
REMARK    2  A    between atoms: N_10  and  C_11 
REMARK    3  A    between atoms: C_18  and  C_19 
REMARK       I    between atoms: C_19  and  N_20 
ROOT
HETATM    1  C   UNL     1      42.305 -15.642   2.830  1.00  0.00     0.036 A 
HETATM    2  C   UNL     1      42.593 -17.002   2.648  1.00  0.00     0.046 A 
HETATM    3  C   UNL     1      43.298 -17.705   3.649  1.00  0.00     0.030 A 
HETATM    4  C   UNL     1      43.658 -17.035   4.811  1.00  0.00     0.063 A 
HETATM    5  N   UNL     1      44.301 -17.966   5.580  1.00  0.00    -0.277 N 
HETATM    6  H   UNL     1      44.695 -17.832   6.504  1.00  0.00     0.189 HD
HETATM    7  N   UNL     1      44.423 -19.174   5.007  1.00  0.00    -0.168 NA
HETATM    8  C   UNL     1      43.811 -19.027   3.809  1.00  0.00     0.156 A 
HETATM    9  C   UNL     1      43.376 -15.686   5.033  1.00  0.00     0.034 A 
HETATM   10  C   UNL     1      42.706 -15.002   4.011  1.00  0.00     0.032 A 
ENDROOT
BRANCH   1  11
HETATM   11  N   UNL     1      41.662 -14.845   1.856  1.00  0.00    -0.323 N 
HETATM   12  C   UNL     1      40.317 -14.862   1.527  1.00  0.00     0.258 C 
HETATM   13  O   UNL     1      39.432 -15.466   2.116  1.00  0.00    -0.267 OA
HETATM   14  H   UNL     1      42.269 -14.223   1.339  1.00  0.00     0.169 HD
BRANCH  12  15
HETATM   15  C   UNL     1      39.951 -14.046   0.337  1.00  0.00     0.056 A 
HETATM   16  C   UNL     1      39.599 -12.695   0.467  1.00  0.00     0.048 A 
HETATM   17  C   UNL     1      39.595 -11.983   1.790  1.00  0.00     0.071 C 
HETATM   18  N   UNL     1      39.233 -11.934  -0.602  1.00  0.00    -0.241 NA
HETATM   19  C   UNL     1      39.235 -12.521  -1.815  1.00  0.00     0.126 A 
HETATM   20 CL   UNL     1      38.756 -11.500  -3.105  1.00  0.00    -0.063 Cl
HETATM   21  C   UNL     1      39.588 -13.838  -2.043  1.00  0.00     0.045 A 
HETATM   22  C   UNL     1      39.956 -14.612  -0.946  1.00  0.00     0.022 A 
ENDBRANCH  12  15
ENDBRANCH   1  11
BRANCH   8  23
HETATM   23  C   UNL     1      43.754 -20.134   2.843  1.00  0.00     0.270 C 
HETATM   24  N   UNL     1      44.042 -21.359   3.380  1.00  0.00    -0.365 N 
HETATM   25  H   UNL     1      44.289 -21.413   4.361  1.00  0.00     0.159 HD
HETATM   26  H   UNL     1      44.066 -22.170   2.783  1.00  0.00     0.159 HD
HETATM   27  O   UNL     1      43.493 -20.009   1.651  1.00  0.00    -0.266 OA
ENDBRANCH   8  23
TORSDOF 3
ENDMDL
MODEL 7
REMARK VINA RESULT:      -7.4      4.944      7.017
REMARK  3 active torsions:
REMARK  status: ('A' for Active; 'I' for Inactive)
REMARK    1  A    between atoms: C_8  and  C_9 
REMARK       I    between atoms: C_9  and  N_10 
REMARK    2  A    between atoms: N_10  and  C_11 
REMARK    3  A    between atoms: C_18  and  C_19 
REMARK       I    between atoms: C_19  and  N_20 
ROOT
HETATM    1  C   UNL     1      43.337 -13.078   5.761  1.00  0.00     0.036 A 
HETATM    2  C   UNL     1      42.222 -12.242   5.909  1.00  0.00     0.046 A 
HETATM    3  C   UNL     1      42.317 -11.089   6.718  1.00  0.00     0.030 A 
HETATM    4  C   UNL     1      43.534 -10.792   7.319  1.00  0.00     0.063 A 
HETATM    5  N   UNL     1      43.321  -9.631   8.011  1.00  0.00    -0.277 N 
HETATM    6  H   UNL     1      43.995  -9.114   8.564  1.00  0.00     0.189 HD
HETATM    7  N   UNL     1      42.064  -9.164   7.942  1.00  0.00    -0.168 NA
HETATM    8  C   UNL     1      41.429 -10.058   7.149  1.00  0.00     0.156 A 
HETATM    9  C   UNL     1      44.669 -11.592   7.182  1.00  0.00     0.034 A 
HETATM   10  C   UNL     1      44.539 -12.749   6.403  1.00  0.00     0.032 A 
ENDROOT
BRANCH   1  11
HETATM   11  N   UNL     1      43.314 -14.285   5.025  1.00  0.00    -0.323 N 
HETATM   12  C   UNL     1      42.730 -15.480   5.411  1.00  0.00     0.258 C 
HETATM   13  O   UNL     1      42.017 -15.658   6.387  1.00  0.00    -0.267 OA
HETATM   14  H   UNL     1      43.800 -14.259   4.139  1.00  0.00     0.169 HD
BRANCH  12  15
HETATM   15  C   UNL     1      43.017 -16.635   4.518  1.00  0.00     0.056 A 
HETATM   16  C   UNL     1      42.258 -16.862   3.361  1.00  0.00     0.048 A 
HETATM   17  C   UNL     1      41.141 -15.951   2.934  1.00  0.00     0.071 C 
HETATM   18  N   UNL     1      42.482 -17.927   2.542  1.00  0.00    -0.241 NA
HETATM   19  C   UNL     1      43.483 -18.767   2.871  1.00  0.00     0.126 A 
HETATM   20 CL   UNL     1      43.695 -20.085   1.797  1.00  0.00    -0.063 Cl
HETATM   21  C   UNL     1      44.296 -18.613   3.978  1.00  0.00     0.045 A 
HETATM   22  C   UNL     1      44.060 -17.525   4.814  1.00  0.00     0.022 A 
ENDBRANCH  12  15
ENDBRANCH   1  11
BRANCH   8  23
HETATM   23  C   UNL     1      39.997  -9.925   6.846  1.00  0.00     0.270 C 
HETATM   24  N   UNL     1      39.189 -10.733   7.599  1.00  0.00    -0.365 N 
HETATM   25  H   UNL     1      39.619 -11.361   8.267  1.00  0.00     0.159 HD
HETATM   26  H   UNL     1      38.196 -10.738   7.431  1.00  0.00     0.159 HD
HETATM   27  O   UNL     1      39.530  -9.180   5.991  1.00  0.00    -0.266 OA
ENDBRANCH   8  23
TORSDOF 3
ENDMDL
MODEL 8
REMARK VINA RESULT:      -7.4      3.837      4.994
REMARK  3 active torsions:
REMARK  status: ('A' for Active; 'I' for Inactive)
REMARK    1  A    between atoms: C_8  and  C_9 
REMARK       I    between atoms: C_9  and  N_10 
REMARK    2  A    between atoms: N_10  and  C_11 
REMARK    3  A    between atoms: C_18  and  C_19 
REMARK       I    between atoms: C_19  and  N_20 
ROOT
HETATM    1  C   UNL     1      41.273 -14.090   1.937  1.00  0.00     0.036 A 
HETATM    2  C   UNL     1      41.159 -13.395   0.725  1.00  0.00     0.046 A 
HETATM    3  C   UNL     1      40.373 -13.934  -0.316  1.00  0.00     0.030 A 
HETATM    4  C   UNL     1      39.699 -15.129  -0.097  1.00  0.00     0.063 A 
HETATM    5  N   UNL     1      39.025 -15.382  -1.260  1.00  0.00    -0.277 N 
HETATM    6  H   UNL     1      38.419 -16.170  -1.459  1.00  0.00     0.189 HD
HETATM    7  N   UNL     1      39.227 -14.475  -2.230  1.00  0.00    -0.168 NA
HETATM    8  C   UNL     1      40.063 -13.575  -1.663  1.00  0.00     0.156 A 
HETATM    9  C   UNL     1      39.778 -15.841   1.101  1.00  0.00     0.034 A 
HETATM   10  C   UNL     1      40.591 -15.303   2.106  1.00  0.00     0.032 A 
ENDROOT
BRANCH   1  11
HETATM   11  N   UNL     1      42.088 -13.659   3.008  1.00  0.00    -0.323 N 
HETATM   12  C   UNL     1      41.660 -13.190   4.239  1.00  0.00     0.258 C 
HETATM   13  O   UNL     1      40.513 -13.201   4.662  1.00  0.00    -0.267 OA
HETATM   14  H   UNL     1      43.082 -13.677   2.828  1.00  0.00     0.169 HD
BRANCH  12  15
HETATM   15  C   UNL     1      42.733 -12.634   5.107  1.00  0.00     0.056 A 
HETATM   16  C   UNL     1      43.096 -11.282   5.034  1.00  0.00     0.048 A 
HETATM   17  C   UNL     1      42.416 -10.311   4.110  1.00  0.00     0.071 C 
HETATM   18  N   UNL     1      44.093 -10.755   5.797  1.00  0.00    -0.241 NA
HETATM   19  C   UNL     1      44.725 -11.580   6.655  1.00  0.00     0.126 A 
HETATM   20 CL   UNL     1      45.971 -10.844   7.573  1.00  0.00    -0.063 Cl
HETATM   21  C   UNL     1      44.423 -12.920   6.812  1.00  0.00     0.045 A 
HETATM   22  C   UNL     1      43.405 -13.455   6.026  1.00  0.00     0.022 A 
ENDBRANCH  12  15
ENDBRANCH   1  11
BRANCH   8  23
HETATM   23  C   UNL     1      40.563 -12.419  -2.419  1.00  0.00     0.270 C 
HETATM   24  N   UNL     1      41.657 -12.690  -3.196  1.00  0.00    -0.365 N 
HETATM   25  H   UNL     1      42.045 -13.626  -3.176  1.00  0.00     0.159 HD
HETATM   26  H   UNL     1      42.092 -11.947  -3.719  1.00  0.00     0.159 HD
HETATM   27  O   UNL     1      40.082 -11.292  -2.373  1.00  0.00    -0.266 OA
ENDBRANCH   8  23
TORSDOF 3
ENDMDL
MODEL 9
REMARK VINA RESULT:      -7.4     14.351     15.460
REMARK  3 active torsions:
REMARK  status: ('A' for Active; 'I' for Inactive)
REMARK    1  A    between atoms: C_8  and  C_9 
REMARK       I    between atoms: C_9  and  N_10 
REMARK    2  A    between atoms: N_10  and  C_11 
REMARK    3  A    between atoms: C_18  and  C_19 
REMARK       I    between atoms: C_19  and  N_20 
ROOT
HETATM    1  C   UNL     1      44.770 -29.757   1.537  1.00  0.00     0.036 A 
HETATM    2  C   UNL     1      44.979 -29.655   0.154  1.00  0.00     0.046 A 
HETATM    3  C   UNL     1      46.068 -28.900  -0.332  1.00  0.00     0.030 A 
HETATM    4  C   UNL     1      46.931 -28.304   0.580  1.00  0.00     0.063 A 
HETATM    5  N   UNL     1      47.874 -27.668  -0.178  1.00  0.00    -0.277 N 
HETATM    6  H   UNL     1      48.670 -27.134   0.154  1.00  0.00     0.189 HD
HETATM    7  N   UNL     1      47.685 -27.767  -1.504  1.00  0.00    -0.168 NA
HETATM    8  C   UNL     1      46.568 -28.522  -1.615  1.00  0.00     0.156 A 
HETATM    9  C   UNL     1      46.762 -28.396   1.963  1.00  0.00     0.034 A 
HETATM   10  C   UNL     1      45.655 -29.122   2.419  1.00  0.00     0.032 A 
ENDROOT
BRANCH   1  11
HETATM   11  N   UNL     1      43.671 -30.437   2.110  1.00  0.00    -0.323 N 
HETATM   12  C   UNL     1      42.343 -30.047   2.070  1.00  0.00     0.258 C 
HETATM   13  O   UNL     1      41.875 -29.126   1.417  1.00  0.00    -0.267 OA
HETATM   14  H   UNL     1      43.903 -31.279   2.618  1.00  0.00     0.169 HD
BRANCH  12  15
HETATM   15  C   UNL     1      41.425 -30.860   2.914  1.00  0.00     0.056 A 
HETATM   16  C   UNL     1      40.840 -32.035   2.422  1.00  0.00     0.048 A 
HETATM   17  C   UNL     1      41.119 -32.562   1.042  1.00  0.00     0.071 C 
HETATM   18  N   UNL     1      39.975 -32.782   3.163  1.00  0.00    -0.241 NA
HETATM   19  C   UNL     1      39.702 -32.362   4.414  1.00  0.00     0.126 A 
HETATM   20 CL   UNL     1      38.601 -33.350   5.278  1.00  0.00    -0.063 Cl
HETATM   21  C   UNL     1      40.247 -31.230   4.991  1.00  0.00     0.045 A 
HETATM   22  C   UNL     1      41.127 -30.468   4.227  1.00  0.00     0.022 A 
ENDBRANCH  12  15
ENDBRANCH   1  11
BRANCH   8  23
HETATM   23  C   UNL     1      45.993 -28.842  -2.929  1.00  0.00     0.270 C 
HETATM   24  N   UNL     1      45.491 -27.758  -3.598  1.00  0.00    -0.365 N 
HETATM   25  H   UNL     1      45.526 -26.852  -3.147  1.00  0.00     0.159 HD
HETATM   26  H   UNL     1      45.041 -27.889  -4.489  1.00  0.00     0.159 HD
HETATM   27  O   UNL     1      45.933 -29.968  -3.412  1.00  0.00    -0.266 OA
ENDBRANCH   8  23
TORSDOF 3
ENDMDL
MODEL 10
REMARK VINA RESULT:      -7.3      3.767      8.461
REMARK  3 active torsions:
REMARK  status: ('A' for Active; 'I' for Inactive)
REMARK    1  A    between atoms: C_8  and  C_9 
REMARK       I    between atoms: C_9  and  N_10 
REMARK    2  A    between atoms: N_10  and  C_11 
REMARK    3  A    between atoms: C_18  and  C_19 
REMARK       I    between atoms: C_19  and  N_20 
ROOT
HETATM    1  C   UNL     1      41.569 -15.593   2.613  1.00  0.00     0.036 A 
HETATM    2  C   UNL     1      41.779 -15.668   3.997  1.00  0.00     0.046 A 
HETATM    3  C   UNL     1      42.641 -16.657   4.519  1.00  0.00     0.030 A 
HETATM    4  C   UNL     1      43.291 -17.512   3.637  1.00  0.00     0.063 A 
HETATM    5  N   UNL     1      44.051 -18.332   4.425  1.00  0.00    -0.277 N 
HETATM    6  H   UNL     1      44.668 -19.076   4.119  1.00  0.00     0.189 HD
HETATM    7  N   UNL     1      43.928 -18.110   5.743  1.00  0.00    -0.168 NA
HETATM    8  C   UNL     1      43.055 -17.080   5.818  1.00  0.00     0.156 A 
HETATM    9  C   UNL     1      43.117 -17.457   2.253  1.00  0.00     0.034 A 
HETATM   10  C   UNL     1      42.231 -16.490   1.763  1.00  0.00     0.032 A 
ENDROOT
BRANCH   1  11
HETATM   11  N   UNL     1      40.676 -14.679   2.010  1.00  0.00    -0.323 N 
HETATM   12  C   UNL     1      40.922 -13.347   1.721  1.00  0.00     0.258 C 
HETATM   13  O   UNL     1      41.997 -12.771   1.808  1.00  0.00    -0.267 OA
HETATM   14  H   UNL     1      39.759 -15.047   1.799  1.00  0.00     0.169 HD
BRANCH  12  15
HETATM   15  C   UNL     1      39.738 -12.576   1.253  1.00  0.00     0.056 A 
HETATM   16  C   UNL     1      39.401 -12.522  -0.107  1.00  0.00     0.048 A 
HETATM   17  C   UNL     1      40.182 -13.251  -1.164  1.00  0.00     0.071 C 
HETATM   18  N   UNL     1      38.340 -11.802  -0.565  1.00  0.00    -0.241 NA
HETATM   19  C   UNL     1      37.596 -11.142   0.344  1.00  0.00     0.126 A 
HETATM   20 CL   UNL     1      36.285 -10.254  -0.310  1.00  0.00    -0.063 Cl
HETATM   21  C   UNL     1      37.838 -11.154   1.705  1.00  0.00     0.045 A 
HETATM   22  C   UNL     1      38.927 -11.888   2.167  1.00  0.00     0.022 A 
ENDBRANCH  12  15
ENDBRANCH   1  11
BRANCH   8  23
HETATM   23  C   UNL     1      42.619 -16.544   7.115  1.00  0.00     0.270 C 
HETATM   24  N   UNL     1      43.559 -16.643   8.105  1.00  0.00    -0.365 N 
HETATM   25  H   UNL     1      44.445 -17.084   7.889  1.00  0.00     0.159 HD
HETATM   26  H   UNL     1      43.333 -16.338   9.038  1.00  0.00     0.159 HD
HETATM   27  O   UNL     1      41.514 -16.061   7.337  1.00  0.00    -0.266 OA
ENDBRANCH   8  23
TORSDOF 3
ENDMDL
