MODEL 1
REMARK VINA RESULT:      -7.3      0.000      0.000
REMARK  10 active torsions:
REMARK  status: ('A' for Active; 'I' for Inactive)
REMARK    1  A    between atoms: O_2  and  C_3 
REMARK    2  A    between atoms: C_4  and  O_5 
REMARK    3  A    between atoms: O_5  and  C_6 
REMARK    4  A    between atoms: C_6  and  C_7 
REMARK       I    between atoms: C_7  and  N_8 
REMARK    5  A    between atoms: N_8  and  C_9 
REMARK    6  A    between atoms: C_9  and  N_10 
REMARK    7  A    between atoms: N_10  and  N_11 
REMARK    8  A    between atoms: N_11  and  C_12 
REMARK    9  A    between atoms: C_12  and  N_13 
REMARK   10  A    between atoms: N_13  and  C_14 
ROOT
HETATM    1  C   UNL     1      43.218 -14.072   5.732  1.00  0.00     0.193 C 
HETATM    2  S   UNL     1      43.763 -12.767   6.628  1.00  0.00    -0.039 SA
ENDROOT
BRANCH   1   3
HETATM    3  N   UNL     1      43.469 -15.421   5.991  1.00  0.00    -0.301 N 
HETATM    4  C   UNL     1      42.654 -16.408   6.559  1.00  0.00     0.248 C 
HETATM    5  O   UNL     1      41.516 -16.246   6.987  1.00  0.00    -0.271 OA
HETATM    6  H   UNL     1      44.405 -15.724   5.765  1.00  0.00     0.171 HD
BRANCH   4   7
HETATM    7  C   UNL     1      43.348 -17.775   6.631  1.00  0.00     0.278 C 
BRANCH   7   8
HETATM    8  O   UNL     1      44.420 -17.970   5.712  1.00  0.00    -0.339 OA
BRANCH   8   9
HETATM    9  C   UNL     1      44.064 -18.685   4.601  1.00  0.00     0.102 A 
HETATM   10  C   UNL     1      43.612 -18.094   3.417  1.00  0.00     0.101 A 
HETATM   11  C   UNL     1      43.315 -18.883   2.306  1.00  0.00     0.039 A 
HETATM   12  C   UNL     1      43.414 -20.272   2.397  1.00  0.00     0.003 A 
HETATM   13  C   UNL     1      43.814 -20.867   3.594  1.00  0.00     0.003 A 
HETATM   14  C   UNL     1      44.133 -20.074   4.698  1.00  0.00     0.039 A 
BRANCH  10  15
HETATM   15  O   UNL     1      43.519 -16.735   3.276  1.00  0.00    -0.353 OA
HETATM   16  C   UNL     1      43.296 -16.406   1.902  1.00  0.00     0.210 C 
ENDBRANCH  10  15
ENDBRANCH   8   9
ENDBRANCH   7   8
ENDBRANCH   4   7
ENDBRANCH   1   3
BRANCH   1  17
HETATM   17  N   UNL     1      42.382 -13.935   4.620  1.00  0.00    -0.274 N 
HETATM   18  H   UNL     1      42.538 -14.478   3.773  1.00  0.00     0.189 HD
BRANCH  17  19
HETATM   19  N   UNL     1      41.652 -12.747   4.415  1.00  0.00    -0.274 N 
HETATM   20  H   UNL     1      42.206 -11.891   4.461  1.00  0.00     0.189 HD
BRANCH  19  21
HETATM   21  C   UNL     1      40.315 -12.681   4.698  1.00  0.00     0.191 C 
HETATM   22  S   UNL     1      39.679 -11.985   6.088  1.00  0.00    -0.039 SA
BRANCH  21  23
HETATM   23  N   UNL     1      39.441 -13.189   3.781  1.00  0.00    -0.332 N 
HETATM   24  H   UNL     1      38.484 -13.210   4.120  1.00  0.00     0.168 HD
BRANCH  23  25
HETATM   25  C   UNL     1      39.641 -13.756   2.504  1.00  0.00     0.034 A 
HETATM   26  C   UNL     1      39.767 -15.125   2.261  1.00  0.00     0.029 A 
HETATM   27  C   UNL     1      39.941 -15.601   0.957  1.00  0.00     0.002 A 
HETATM   28  C   UNL     1      39.972 -14.714  -0.116  1.00  0.00     0.000 A 
HETATM   29  C   UNL     1      39.816 -13.350   0.112  1.00  0.00     0.002 A 
HETATM   30  C   UNL     1      39.646 -12.875   1.415  1.00  0.00     0.029 A 
ENDBRANCH  23  25
ENDBRANCH  21  23
ENDBRANCH  19  21
ENDBRANCH  17  19
ENDBRANCH   1  17
TORSDOF 10
ENDMDL
MODEL 2
REMARK VINA RESULT:      -7.2      3.086      5.287
REMARK  10 active torsions:
REMARK  status: ('A' for Active; 'I' for Inactive)
REMARK    1  A    between atoms: O_2  and  C_3 
REMARK    2  A    between atoms: C_4  and  O_5 
REMARK    3  A    between atoms: O_5  and  C_6 
REMARK    4  A    between atoms: C_6  and  C_7 
REMARK       I    between atoms: C_7  and  N_8 
REMARK    5  A    between atoms: N_8  and  C_9 
REMARK    6  A    between atoms: C_9  and  N_10 
REMARK    7  A    between atoms: N_10  and  N_11 
REMARK    8  A    between atoms: N_11  and  C_12 
REMARK    9  A    between atoms: C_12  and  N_13 
REMARK   10  A    between atoms: N_13  and  C_14 
ROOT
HETATM    1  C   UNL     1      40.281 -13.329   5.381  1.00  0.00     0.193 C 
HETATM    2  S   UNL     1      39.759 -12.925   3.843  1.00  0.00    -0.039 SA
ENDROOT
BRANCH   1   3
HETATM    3  N   UNL     1      41.116 -14.396   5.721  1.00  0.00    -0.301 N 
HETATM    4  C   UNL     1      40.877 -15.523   6.517  1.00  0.00     0.248 C 
HETATM    5  O   UNL     1      39.840 -15.774   7.122  1.00  0.00    -0.271 OA
HETATM    6  H   UNL     1      42.057 -14.322   5.363  1.00  0.00     0.171 HD
BRANCH   4   7
HETATM    7  C   UNL     1      42.094 -16.456   6.596  1.00  0.00     0.278 C 
BRANCH   7   8
HETATM    8  O   UNL     1      43.171 -16.139   5.719  1.00  0.00    -0.339 OA
BRANCH   8   9
HETATM    9  C   UNL     1      43.307 -17.019   4.681  1.00  0.00     0.102 A 
HETATM   10  C   UNL     1      42.812 -16.777   3.396  1.00  0.00     0.101 A 
HETATM   11  C   UNL     1      43.033 -17.699   2.371  1.00  0.00     0.039 A 
HETATM   12  C   UNL     1      43.700 -18.893   2.647  1.00  0.00     0.003 A 
HETATM   13  C   UNL     1      44.150 -19.160   3.941  1.00  0.00     0.003 A 
HETATM   14  C   UNL     1      43.948 -18.226   4.959  1.00  0.00     0.039 A 
BRANCH  10  15
HETATM   15  O   UNL     1      42.169 -15.611   3.075  1.00  0.00    -0.353 OA
HETATM   16  C   UNL     1      43.091 -14.702   2.469  1.00  0.00     0.210 C 
ENDBRANCH  10  15
ENDBRANCH   8   9
ENDBRANCH   7   8
ENDBRANCH   4   7
ENDBRANCH   1   3
BRANCH   1  17
HETATM   17  N   UNL     1      39.960 -12.578   6.515  1.00  0.00    -0.274 N 
HETATM   18  H   UNL     1      39.146 -12.803   7.083  1.00  0.00     0.189 HD
BRANCH  17  19
HETATM   19  N   UNL     1      40.396 -11.243   6.636  1.00  0.00    -0.274 N 
HETATM   20  H   UNL     1      39.658 -10.543   6.556  1.00  0.00     0.189 HD
BRANCH  19  21
HETATM   21  C   UNL     1      41.678 -10.887   6.317  1.00  0.00     0.191 C 
HETATM   22  S   UNL     1      42.112 -10.100   4.899  1.00  0.00    -0.039 SA
BRANCH  21  23
HETATM   23  N   UNL     1      42.663 -11.163   7.221  1.00  0.00    -0.332 N 
HETATM   24  H   UNL     1      42.457 -11.980   7.788  1.00  0.00     0.168 HD
BRANCH  23  25
HETATM   25  C   UNL     1      43.850 -10.479   7.557  1.00  0.00     0.034 A 
HETATM   26  C   UNL     1      43.891  -9.237   8.193  1.00  0.00     0.029 A 
HETATM   27  C   UNL     1      45.117  -8.642   8.508  1.00  0.00     0.002 A 
HETATM   28  C   UNL     1      46.312  -9.291   8.208  1.00  0.00     0.000 A 
HETATM   29  C   UNL     1      46.282 -10.544   7.602  1.00  0.00     0.002 A 
HETATM   30  C   UNL     1      45.057 -11.136   7.284  1.00  0.00     0.029 A 
ENDBRANCH  23  25
ENDBRANCH  21  23
ENDBRANCH  19  21
ENDBRANCH  17  19
ENDBRANCH   1  17
TORSDOF 10
ENDMDL
MODEL 3
REMARK VINA RESULT:      -7.2      2.267      4.458
REMARK  10 active torsions:
REMARK  status: ('A' for Active; 'I' for Inactive)
REMARK    1  A    between atoms: O_2  and  C_3 
REMARK    2  A    between atoms: C_4  and  O_5 
REMARK    3  A    between atoms: O_5  and  C_6 
REMARK    4  A    between atoms: C_6  and  C_7 
REMARK       I    between atoms: C_7  and  N_8 
REMARK    5  A    between atoms: N_8  and  C_9 
REMARK    6  A    between atoms: C_9  and  N_10 
REMARK    7  A    between atoms: N_10  and  N_11 
REMARK    8  A    between atoms: N_11  and  C_12 
REMARK    9  A    between atoms: C_12  and  N_13 
REMARK   10  A    between atoms: N_13  and  C_14 
ROOT
HETATM    1  C   UNL     1      40.317 -13.990   0.002  1.00  0.00     0.193 C 
HETATM    2  S   UNL     1      39.599 -14.238  -1.490  1.00  0.00    -0.039 SA
ENDROOT
BRANCH   1   3
HETATM    3  N   UNL     1      41.365 -14.732   0.553  1.00  0.00    -0.301 N 
HETATM    4  C   UNL     1      41.386 -15.609   1.644  1.00  0.00     0.248 C 
HETATM    5  O   UNL     1      40.438 -15.874   2.376  1.00  0.00    -0.271 OA
HETATM    6  H   UNL     1      42.261 -14.580   0.113  1.00  0.00     0.171 HD
BRANCH   4   7
HETATM    7  C   UNL     1      42.773 -16.224   1.877  1.00  0.00     0.278 C 
BRANCH   7   8
HETATM    8  O   UNL     1      43.035 -16.665   3.206  1.00  0.00    -0.339 OA
BRANCH   8   9
HETATM    9  C   UNL     1      43.340 -17.996   3.290  1.00  0.00     0.102 A 
HETATM   10  C   UNL     1      43.978 -18.573   4.393  1.00  0.00     0.101 A 
HETATM   11  C   UNL     1      44.212 -19.948   4.431  1.00  0.00     0.039 A 
HETATM   12  C   UNL     1      43.861 -20.740   3.337  1.00  0.00     0.003 A 
HETATM   13  C   UNL     1      43.272 -20.158   2.213  1.00  0.00     0.003 A 
HETATM   14  C   UNL     1      43.017 -18.786   2.187  1.00  0.00     0.039 A 
BRANCH  10  15
HETATM   15  O   UNL     1      44.321 -17.838   5.496  1.00  0.00    -0.353 OA
HETATM   16  C   UNL     1      43.394 -18.093   6.555  1.00  0.00     0.210 C 
ENDBRANCH  10  15
ENDBRANCH   8   9
ENDBRANCH   7   8
ENDBRANCH   4   7
ENDBRANCH   1   3
BRANCH   1  17
HETATM   17  N   UNL     1      39.957 -12.943   0.854  1.00  0.00    -0.274 N 
HETATM   18  H   UNL     1      40.560 -12.132   0.976  1.00  0.00     0.189 HD
BRANCH  17  19
HETATM   19  N   UNL     1      39.068 -13.165   1.925  1.00  0.00    -0.274 N 
HETATM   20  H   UNL     1      38.184 -13.603   1.665  1.00  0.00     0.189 HD
BRANCH  19  21
HETATM   21  C   UNL     1      39.110 -12.386   3.050  1.00  0.00     0.191 C 
HETATM   22  S   UNL     1      38.820 -10.732   3.061  1.00  0.00    -0.039 SA
BRANCH  21  23
HETATM   23  N   UNL     1      39.377 -12.996   4.241  1.00  0.00    -0.332 N 
HETATM   24  H   UNL     1      38.559 -13.064   4.839  1.00  0.00     0.168 HD
BRANCH  23  25
HETATM   25  C   UNL     1      40.581 -13.462   4.811  1.00  0.00     0.034 A 
HETATM   26  C   UNL     1      41.854 -13.107   4.361  1.00  0.00     0.029 A 
HETATM   27  C   UNL     1      42.996 -13.600   5.002  1.00  0.00     0.002 A 
HETATM   28  C   UNL     1      42.874 -14.436   6.108  1.00  0.00     0.000 A 
HETATM   29  C   UNL     1      41.610 -14.772   6.584  1.00  0.00     0.002 A 
HETATM   30  C   UNL     1      40.470 -14.281   5.941  1.00  0.00     0.029 A 
ENDBRANCH  23  25
ENDBRANCH  21  23
ENDBRANCH  19  21
ENDBRANCH  17  19
ENDBRANCH   1  17
TORSDOF 10
ENDMDL
MODEL 4
REMARK VINA RESULT:      -7.1      1.991      2.865
REMARK  10 active torsions:
REMARK  status: ('A' for Active; 'I' for Inactive)
REMARK    1  A    between atoms: O_2  and  C_3 
REMARK    2  A    between atoms: C_4  and  O_5 
REMARK    3  A    between atoms: O_5  and  C_6 
REMARK    4  A    between atoms: C_6  and  C_7 
REMARK       I    between atoms: C_7  and  N_8 
REMARK    5  A    between atoms: N_8  and  C_9 
REMARK    6  A    between atoms: C_9  and  N_10 
REMARK    7  A    between atoms: N_10  and  N_11 
REMARK    8  A    between atoms: N_11  and  C_12 
REMARK    9  A    between atoms: C_12  and  N_13 
REMARK   10  A    between atoms: N_13  and  C_14 
ROOT
HETATM    1  C   UNL     1      40.148 -12.994   5.709  1.00  0.00     0.193 C 
HETATM    2  S   UNL     1      39.608 -11.531   6.319  1.00  0.00    -0.039 SA
ENDROOT
BRANCH   1   3
HETATM    3  N   UNL     1      41.139 -13.809   6.262  1.00  0.00    -0.301 N 
HETATM    4  C   UNL     1      41.139 -15.181   6.543  1.00  0.00     0.248 C 
HETATM    5  O   UNL     1      40.200 -15.952   6.375  1.00  0.00    -0.271 OA
HETATM    6  H   UNL     1      41.978 -13.320   6.537  1.00  0.00     0.171 HD
BRANCH   4   7
HETATM    7  C   UNL     1      42.472 -15.660   7.136  1.00  0.00     0.278 C 
BRANCH   7   8
HETATM    8  O   UNL     1      43.611 -15.506   6.293  1.00  0.00    -0.339 OA
BRANCH   8   9
HETATM    9  C   UNL     1      43.610 -16.349   5.216  1.00  0.00     0.102 A 
HETATM   10  C   UNL     1      43.281 -15.942   3.920  1.00  0.00     0.101 A 
HETATM   11  C   UNL     1      43.352 -16.846   2.859  1.00  0.00     0.039 A 
HETATM   12  C   UNL     1      43.698 -18.175   3.105  1.00  0.00     0.003 A 
HETATM   13  C   UNL     1      43.977 -18.596   4.406  1.00  0.00     0.003 A 
HETATM   14  C   UNL     1      43.928 -17.685   5.462  1.00  0.00     0.039 A 
BRANCH  10  15
HETATM   15  O   UNL     1      42.955 -14.644   3.629  1.00  0.00    -0.353 OA
HETATM   16  C   UNL     1      43.411 -14.315   2.314  1.00  0.00     0.210 C 
ENDBRANCH  10  15
ENDBRANCH   8   9
ENDBRANCH   7   8
ENDBRANCH   4   7
ENDBRANCH   1   3
BRANCH   1  17
HETATM   17  N   UNL     1      39.604 -13.590   4.570  1.00  0.00    -0.274 N 
HETATM   18  H   UNL     1      39.092 -14.469   4.628  1.00  0.00     0.189 HD
BRANCH  17  19
HETATM   19  N   UNL     1      40.140 -13.321   3.294  1.00  0.00    -0.274 N 
HETATM   20  H   UNL     1      40.448 -12.358   3.154  1.00  0.00     0.189 HD
BRANCH  19  21
HETATM   21  C   UNL     1      39.769 -14.059   2.202  1.00  0.00     0.191 C 
HETATM   22  S   UNL     1      39.829 -15.735   2.135  1.00  0.00    -0.039 SA
BRANCH  21  23
HETATM   23  N   UNL     1      39.295 -13.392   1.110  1.00  0.00    -0.332 N 
HETATM   24  H   UNL     1      38.415 -12.920   1.290  1.00  0.00     0.168 HD
BRANCH  23  25
HETATM   25  C   UNL     1      39.760 -13.315  -0.220  1.00  0.00     0.034 A 
HETATM   26  C   UNL     1      39.447 -14.238  -1.219  1.00  0.00     0.029 A 
HETATM   27  C   UNL     1      39.936 -14.070  -2.519  1.00  0.00     0.002 A 
HETATM   28  C   UNL     1      40.726 -12.968  -2.836  1.00  0.00     0.000 A 
HETATM   29  C   UNL     1      41.018 -12.025  -1.855  1.00  0.00     0.002 A 
HETATM   30  C   UNL     1      40.532 -12.195  -0.556  1.00  0.00     0.029 A 
ENDBRANCH  23  25
ENDBRANCH  21  23
ENDBRANCH  19  21
ENDBRANCH  17  19
ENDBRANCH   1  17
TORSDOF 10
ENDMDL
MODEL 5
REMARK VINA RESULT:      -7.0      3.947      7.305
REMARK  10 active torsions:
REMARK  status: ('A' for Active; 'I' for Inactive)
REMARK    1  A    between atoms: O_2  and  C_3 
REMARK    2  A    between atoms: C_4  and  O_5 
REMARK    3  A    between atoms: O_5  and  C_6 
REMARK    4  A    between atoms: C_6  and  C_7 
REMARK       I    between atoms: C_7  and  N_8 
REMARK    5  A    between atoms: N_8  and  C_9 
REMARK    6  A    between atoms: C_9  and  N_10 
REMARK    7  A    between atoms: N_10  and  N_11 
REMARK    8  A    between atoms: N_11  and  C_12 
REMARK    9  A    between atoms: C_12  and  N_13 
REMARK   10  A    between atoms: N_13  and  C_14 
ROOT
HETATM    1  C   UNL     1      40.530 -14.565   5.774  1.00  0.00     0.193 C 
HETATM    2  S   UNL     1      40.316 -16.069   6.478  1.00  0.00    -0.039 SA
ENDROOT
BRANCH   1   3
HETATM    3  N   UNL     1      41.291 -13.510   6.284  1.00  0.00    -0.301 N 
HETATM    4  C   UNL     1      42.443 -12.891   5.783  1.00  0.00     0.248 C 
HETATM    5  O   UNL     1      43.046 -13.206   4.762  1.00  0.00    -0.271 OA
HETATM    6  H   UNL     1      40.979 -13.163   7.179  1.00  0.00     0.171 HD
BRANCH   4   7
HETATM    7  C   UNL     1      42.931 -11.743   6.679  1.00  0.00     0.278 C 
BRANCH   7   8
HETATM    8  O   UNL     1      43.862 -12.107   7.693  1.00  0.00    -0.339 OA
BRANCH   8   9
HETATM    9  C   UNL     1      44.624 -11.061   8.136  1.00  0.00     0.102 A 
HETATM   10  C   UNL     1      44.353 -10.354   9.312  1.00  0.00     0.101 A 
HETATM   11  C   UNL     1      45.204  -9.330   9.729  1.00  0.00     0.039 A 
HETATM   12  C   UNL     1      46.296  -8.972   8.937  1.00  0.00     0.003 A 
HETATM   13  C   UNL     1      46.539  -9.641   7.737  1.00  0.00     0.003 A 
HETATM   14  C   UNL     1      45.700 -10.682   7.334  1.00  0.00     0.039 A 
BRANCH  10  15
HETATM   15  O   UNL     1      43.305 -10.684  10.129  1.00  0.00    -0.353 OA
HETATM   16  C   UNL     1      43.772 -10.851  11.471  1.00  0.00     0.210 C 
ENDBRANCH  10  15
ENDBRANCH   8   9
ENDBRANCH   7   8
ENDBRANCH   4   7
ENDBRANCH   1   3
BRANCH   1  17
HETATM   17  N   UNL     1      39.989 -14.222   4.533  1.00  0.00    -0.274 N 
HETATM   18  H   UNL     1      39.293 -13.484   4.447  1.00  0.00     0.189 HD
BRANCH  17  19
HETATM   19  N   UNL     1      39.969 -15.156   3.477  1.00  0.00    -0.274 N 
HETATM   20  H   UNL     1      39.489 -16.031   3.689  1.00  0.00     0.189 HD
BRANCH  19  21
HETATM   21  C   UNL     1      40.943 -15.156   2.516  1.00  0.00     0.191 C 
HETATM   22  S   UNL     1      40.664 -14.828   0.893  1.00  0.00    -0.039 SA
BRANCH  21  23
HETATM   23  N   UNL     1      42.226 -15.410   2.904  1.00  0.00    -0.332 N 
HETATM   24  H   UNL     1      42.809 -14.578   2.903  1.00  0.00     0.168 HD
BRANCH  23  25
HETATM   25  C   UNL     1      42.893 -16.613   3.219  1.00  0.00     0.034 A 
HETATM   26  C   UNL     1      42.989 -17.708   2.359  1.00  0.00     0.029 A 
HETATM   27  C   UNL     1      43.691 -18.855   2.747  1.00  0.00     0.002 A 
HETATM   28  C   UNL     1      44.317 -18.909   3.989  1.00  0.00     0.000 A 
HETATM   29  C   UNL     1      44.253 -17.811   4.842  1.00  0.00     0.002 A 
HETATM   30  C   UNL     1      43.549 -16.667   4.455  1.00  0.00     0.029 A 
ENDBRANCH  23  25
ENDBRANCH  21  23
ENDBRANCH  19  21
ENDBRANCH  17  19
ENDBRANCH   1  17
TORSDOF 10
ENDMDL
MODEL 6
REMARK VINA RESULT:      -7.0      1.508      2.326
REMARK  10 active torsions:
REMARK  status: ('A' for Active; 'I' for Inactive)
REMARK    1  A    between atoms: O_2  and  C_3 
REMARK    2  A    between atoms: C_4  and  O_5 
REMARK    3  A    between atoms: O_5  and  C_6 
REMARK    4  A    between atoms: C_6  and  C_7 
REMARK       I    between atoms: C_7  and  N_8 
REMARK    5  A    between atoms: N_8  and  C_9 
REMARK    6  A    between atoms: C_9  and  N_10 
REMARK    7  A    between atoms: N_10  and  N_11 
REMARK    8  A    between atoms: N_11  and  C_12 
REMARK    9  A    between atoms: C_12  and  N_13 
REMARK   10  A    between atoms: N_13  and  C_14 
ROOT
HETATM    1  C   UNL     1      43.185 -12.955   6.573  1.00  0.00     0.193 C 
HETATM    2  S   UNL     1      43.944 -11.473   6.742  1.00  0.00    -0.039 SA
ENDROOT
BRANCH   1   3
HETATM    3  N   UNL     1      43.809 -14.195   6.414  1.00  0.00    -0.301 N 
HETATM    4  C   UNL     1      43.584 -15.418   7.056  1.00  0.00     0.248 C 
HETATM    5  O   UNL     1      42.771 -15.625   7.951  1.00  0.00    -0.271 OA
HETATM    6  H   UNL     1      44.572 -14.198   5.753  1.00  0.00     0.171 HD
BRANCH   4   7
HETATM    7  C   UNL     1      44.505 -16.533   6.540  1.00  0.00     0.278 C 
BRANCH   7   8
HETATM    8  O   UNL     1      43.867 -17.772   6.246  1.00  0.00    -0.339 OA
BRANCH   8   9
HETATM    9  C   UNL     1      43.706 -18.001   4.907  1.00  0.00     0.102 A 
HETATM   10  C   UNL     1      44.137 -19.166   4.267  1.00  0.00     0.101 A 
HETATM   11  C   UNL     1      43.893 -19.353   2.906  1.00  0.00     0.039 A 
HETATM   12  C   UNL     1      43.268 -18.345   2.170  1.00  0.00     0.003 A 
HETATM   13  C   UNL     1      42.884 -17.159   2.796  1.00  0.00     0.003 A 
HETATM   14  C   UNL     1      43.108 -16.984   4.163  1.00  0.00     0.039 A 
BRANCH  10  15
HETATM   15  O   UNL     1      44.735 -20.190   4.953  1.00  0.00    -0.353 OA
HETATM   16  C   UNL     1      43.770 -21.202   5.250  1.00  0.00     0.210 C 
ENDBRANCH  10  15
ENDBRANCH   8   9
ENDBRANCH   7   8
ENDBRANCH   4   7
ENDBRANCH   1   3
BRANCH   1  17
HETATM   17  N   UNL     1      41.797 -13.110   6.627  1.00  0.00    -0.274 N 
HETATM   18  H   UNL     1      41.368 -14.033   6.594  1.00  0.00     0.189 HD
BRANCH  17  19
HETATM   19  N   UNL     1      40.943 -12.064   6.223  1.00  0.00    -0.274 N 
HETATM   20  H   UNL     1      40.692 -11.406   6.961  1.00  0.00     0.189 HD
BRANCH  19  21
HETATM   21  C   UNL     1      40.093 -12.218   5.162  1.00  0.00     0.191 C 
HETATM   22  S   UNL     1      39.149 -10.983   4.524  1.00  0.00    -0.039 SA
BRANCH  21  23
HETATM   23  N   UNL     1      40.028 -13.444   4.565  1.00  0.00    -0.332 N 
HETATM   24  H   UNL     1      39.718 -14.173   5.200  1.00  0.00     0.168 HD
BRANCH  23  25
HETATM   25  C   UNL     1      40.390 -13.882   3.274  1.00  0.00     0.034 A 
HETATM   26  C   UNL     1      41.456 -13.364   2.536  1.00  0.00     0.029 A 
HETATM   27  C   UNL     1      41.757 -13.876   1.269  1.00  0.00     0.002 A 
HETATM   28  C   UNL     1      41.007 -14.921   0.738  1.00  0.00     0.000 A 
HETATM   29  C   UNL     1      39.961 -15.466   1.478  1.00  0.00     0.002 A 
HETATM   30  C   UNL     1      39.659 -14.952   2.741  1.00  0.00     0.029 A 
ENDBRANCH  23  25
ENDBRANCH  21  23
ENDBRANCH  19  21
ENDBRANCH  17  19
ENDBRANCH   1  17
TORSDOF 10
ENDMDL
MODEL 7
REMARK VINA RESULT:      -7.0      4.490      6.530
REMARK  10 active torsions:
REMARK  status: ('A' for Active; 'I' for Inactive)
REMARK    1  A    between atoms: O_2  and  C_3 
REMARK    2  A    between atoms: C_4  and  O_5 
REMARK    3  A    between atoms: O_5  and  C_6 
REMARK    4  A    between atoms: C_6  and  C_7 
REMARK       I    between atoms: C_7  and  N_8 
REMARK    5  A    between atoms: N_8  and  C_9 
REMARK    6  A    between atoms: C_9  and  N_10 
REMARK    7  A    between atoms: N_10  and  N_11 
REMARK    8  A    between atoms: N_11  and  C_12 
REMARK    9  A    between atoms: C_12  and  N_13 
REMARK   10  A    between atoms: N_13  and  C_14 
ROOT
HETATM    1  C   UNL     1      42.533 -13.248   6.355  1.00  0.00     0.193 C 
HETATM    2  S   UNL     1      41.265 -12.477   5.580  1.00  0.00    -0.039 SA
ENDROOT
BRANCH   1   3
HETATM    3  N   UNL     1      42.859 -14.604   6.268  1.00  0.00    -0.301 N 
HETATM    4  C   UNL     1      43.143 -15.539   7.270  1.00  0.00     0.248 C 
HETATM    5  O   UNL     1      43.193 -15.314   8.475  1.00  0.00    -0.271 OA
HETATM    6  H   UNL     1      42.938 -14.956   5.325  1.00  0.00     0.171 HD
BRANCH   4   7
HETATM    7  C   UNL     1      43.429 -16.938   6.705  1.00  0.00     0.278 C 
BRANCH   7   8
HETATM    8  O   UNL     1      44.413 -16.997   5.677  1.00  0.00    -0.339 OA
BRANCH   8   9
HETATM    9  C   UNL     1      43.982 -17.632   4.545  1.00  0.00     0.102 A 
HETATM   10  C   UNL     1      43.218 -17.008   3.555  1.00  0.00     0.101 A 
HETATM   11  C   UNL     1      42.857 -17.704   2.400  1.00  0.00     0.039 A 
HETATM   12  C   UNL     1      43.212 -19.046   2.263  1.00  0.00     0.003 A 
HETATM   13  C   UNL     1      43.930 -19.687   3.273  1.00  0.00     0.003 A 
HETATM   14  C   UNL     1      44.310 -18.982   4.417  1.00  0.00     0.039 A 
BRANCH  10  15
HETATM   15  O   UNL     1      42.864 -15.687   3.638  1.00  0.00    -0.353 OA
HETATM   16  C   UNL     1      43.271 -15.002   2.451  1.00  0.00     0.210 C 
ENDBRANCH  10  15
ENDBRANCH   8   9
ENDBRANCH   7   8
ENDBRANCH   4   7
ENDBRANCH   1   3
BRANCH   1  17
HETATM   17  N   UNL     1      43.458 -12.573   7.156  1.00  0.00    -0.274 N 
HETATM   18  H   UNL     1      44.167 -13.079   7.683  1.00  0.00     0.189 HD
BRANCH  17  19
HETATM   19  N   UNL     1      43.162 -11.295   7.671  1.00  0.00    -0.274 N 
HETATM   20  H   UNL     1      42.722 -10.657   7.007  1.00  0.00     0.189 HD
BRANCH  19  21
HETATM   21  C   UNL     1      43.878 -10.770   8.712  1.00  0.00     0.191 C 
HETATM   22  S   UNL     1      45.486 -10.297   8.605  1.00  0.00    -0.039 SA
BRANCH  21  23
HETATM   23  N   UNL     1      43.238 -10.593   9.905  1.00  0.00    -0.332 N 
HETATM   24  H   UNL     1      42.794 -11.441  10.241  1.00  0.00     0.168 HD
BRANCH  23  25
HETATM   25  C   UNL     1      43.018  -9.443  10.692  1.00  0.00     0.034 A 
HETATM   26  C   UNL     1      43.462  -9.292  12.007  1.00  0.00     0.029 A 
HETATM   27  C   UNL     1      43.218  -8.105  12.707  1.00  0.00     0.002 A 
HETATM   28  C   UNL     1      42.545  -7.053  12.092  1.00  0.00     0.000 A 
HETATM   29  C   UNL     1      42.126  -7.181  10.771  1.00  0.00     0.002 A 
HETATM   30  C   UNL     1      42.367  -8.368  10.074  1.00  0.00     0.029 A 
ENDBRANCH  23  25
ENDBRANCH  21  23
ENDBRANCH  19  21
ENDBRANCH  17  19
ENDBRANCH   1  17
TORSDOF 10
ENDMDL
MODEL 8
REMARK VINA RESULT:      -6.9      6.098      9.343
REMARK  10 active torsions:
REMARK  status: ('A' for Active; 'I' for Inactive)
REMARK    1  A    between atoms: O_2  and  C_3 
REMARK    2  A    between atoms: C_4  and  O_5 
REMARK    3  A    between atoms: O_5  and  C_6 
REMARK    4  A    between atoms: C_6  and  C_7 
REMARK       I    between atoms: C_7  and  N_8 
REMARK    5  A    between atoms: N_8  and  C_9 
REMARK    6  A    between atoms: C_9  and  N_10 
REMARK    7  A    between atoms: N_10  and  N_11 
REMARK    8  A    between atoms: N_11  and  C_12 
REMARK    9  A    between atoms: C_12  and  N_13 
REMARK   10  A    between atoms: N_13  and  C_14 
ROOT
HETATM    1  C   UNL     1      44.026 -11.942   7.364  1.00  0.00     0.193 C 
HETATM    2  S   UNL     1      45.223 -11.653   6.231  1.00  0.00    -0.039 SA
ENDROOT
BRANCH   1   3
HETATM    3  N   UNL     1      43.525 -11.029   8.295  1.00  0.00    -0.301 N 
HETATM    4  C   UNL     1      44.124 -10.455   9.423  1.00  0.00     0.248 C 
HETATM    5  O   UNL     1      45.252 -10.692   9.841  1.00  0.00    -0.271 OA
HETATM    6  H   UNL     1      42.560 -10.768   8.149  1.00  0.00     0.171 HD
BRANCH   4   7
HETATM    7  C   UNL     1      43.193  -9.473  10.148  1.00  0.00     0.278 C 
BRANCH   7   8
HETATM    8  O   UNL     1      42.444 -10.020  11.231  1.00  0.00    -0.339 OA
BRANCH   8   9
HETATM    9  C   UNL     1      42.196  -9.121  12.231  1.00  0.00     0.102 A 
HETATM   10  C   UNL     1      40.919  -8.872  12.744  1.00  0.00     0.101 A 
HETATM   11  C   UNL     1      40.747  -7.978  13.801  1.00  0.00     0.039 A 
HETATM   12  C   UNL     1      41.847  -7.287  14.309  1.00  0.00     0.003 A 
HETATM   13  C   UNL     1      43.115  -7.495  13.764  1.00  0.00     0.003 A 
HETATM   14  C   UNL     1      43.289  -8.407  12.722  1.00  0.00     0.039 A 
BRANCH  10  15
HETATM   15  O   UNL     1      39.814  -9.542  12.290  1.00  0.00    -0.353 OA
HETATM   16  C   UNL     1      39.588 -10.703  13.094  1.00  0.00     0.210 C 
ENDBRANCH  10  15
ENDBRANCH   8   9
ENDBRANCH   7   8
ENDBRANCH   4   7
ENDBRANCH   1   3
BRANCH   1  17
HETATM   17  N   UNL     1      43.347 -13.160   7.460  1.00  0.00    -0.274 N 
HETATM   18  H   UNL     1      43.809 -13.993   7.820  1.00  0.00     0.189 HD
BRANCH  17  19
HETATM   19  N   UNL     1      42.238 -13.429   6.634  1.00  0.00    -0.274 N 
HETATM   20  H   UNL     1      41.397 -12.896   6.858  1.00  0.00     0.189 HD
BRANCH  19  21
HETATM   21  C   UNL     1      42.102 -14.637   6.005  1.00  0.00     0.191 C 
HETATM   22  S   UNL     1      40.899 -15.753   6.360  1.00  0.00    -0.039 SA
BRANCH  21  23
HETATM   23  N   UNL     1      42.983 -14.943   5.008  1.00  0.00    -0.332 N 
HETATM   24  H   UNL     1      43.405 -14.119   4.592  1.00  0.00     0.168 HD
BRANCH  23  25
HETATM   25  C   UNL     1      43.338 -16.171   4.411  1.00  0.00     0.034 A 
HETATM   26  C   UNL     1      44.069 -17.174   5.048  1.00  0.00     0.029 A 
HETATM   27  C   UNL     1      44.357 -18.372   4.385  1.00  0.00     0.002 A 
HETATM   28  C   UNL     1      43.901 -18.584   3.087  1.00  0.00     0.000 A 
HETATM   29  C   UNL     1      43.145 -17.602   2.453  1.00  0.00     0.002 A 
HETATM   30  C   UNL     1      42.860 -16.405   3.115  1.00  0.00     0.029 A 
ENDBRANCH  23  25
ENDBRANCH  21  23
ENDBRANCH  19  21
ENDBRANCH  17  19
ENDBRANCH   1  17
TORSDOF 10
ENDMDL
MODEL 9
REMARK VINA RESULT:      -6.9      2.431      7.006
REMARK  10 active torsions:
REMARK  status: ('A' for Active; 'I' for Inactive)
REMARK    1  A    between atoms: O_2  and  C_3 
REMARK    2  A    between atoms: C_4  and  O_5 
REMARK    3  A    between atoms: O_5  and  C_6 
REMARK    4  A    between atoms: C_6  and  C_7 
REMARK       I    between atoms: C_7  and  N_8 
REMARK    5  A    between atoms: N_8  and  C_9 
REMARK    6  A    between atoms: C_9  and  N_10 
REMARK    7  A    between atoms: N_10  and  N_11 
REMARK    8  A    between atoms: N_11  and  C_12 
REMARK    9  A    between atoms: C_12  and  N_13 
REMARK   10  A    between atoms: N_13  and  C_14 
ROOT
HETATM    1  C   UNL     1      40.678 -14.272   4.560  1.00  0.00     0.193 C 
HETATM    2  S   UNL     1      41.534 -12.923   5.059  1.00  0.00    -0.039 SA
ENDROOT
BRANCH   1   3
HETATM    3  N   UNL     1      40.258 -14.555   3.258  1.00  0.00    -0.301 N 
HETATM    4  C   UNL     1      40.683 -15.538   2.357  1.00  0.00     0.248 C 
HETATM    5  O   UNL     1      41.576 -16.356   2.548  1.00  0.00    -0.271 OA
HETATM    6  H   UNL     1      39.560 -13.922   2.896  1.00  0.00     0.171 HD
BRANCH   4   7
HETATM    7  C   UNL     1      39.915 -15.489   1.028  1.00  0.00     0.278 C 
BRANCH   7   8
HETATM    8  O   UNL     1      40.500 -14.683   0.009  1.00  0.00    -0.339 OA
BRANCH   8   9
HETATM    9  C   UNL     1      39.581 -14.017  -0.755  1.00  0.00     0.102 A 
HETATM   10  C   UNL     1      39.114 -12.734  -0.456  1.00  0.00     0.101 A 
HETATM   11  C   UNL     1      38.214 -12.095  -1.309  1.00  0.00     0.039 A 
HETATM   12  C   UNL     1      37.734 -12.765  -2.435  1.00  0.00     0.003 A 
HETATM   13  C   UNL     1      38.157 -14.067  -2.708  1.00  0.00     0.003 A 
HETATM   14  C   UNL     1      39.076 -14.695  -1.865  1.00  0.00     0.039 A 
BRANCH  10  15
HETATM   15  O   UNL     1      39.574 -12.031   0.626  1.00  0.00    -0.353 OA
HETATM   16  C   UNL     1      38.475 -11.664   1.466  1.00  0.00     0.210 C 
ENDBRANCH  10  15
ENDBRANCH   8   9
ENDBRANCH   7   8
ENDBRANCH   4   7
ENDBRANCH   1   3
BRANCH   1  17
HETATM   17  N   UNL     1      40.329 -15.314   5.423  1.00  0.00    -0.274 N 
HETATM   18  H   UNL     1      39.768 -15.143   6.256  1.00  0.00     0.189 HD
BRANCH  17  19
HETATM   19  N   UNL     1      41.114 -16.483   5.488  1.00  0.00    -0.274 N 
HETATM   20  H   UNL     1      40.583 -17.351   5.564  1.00  0.00     0.189 HD
BRANCH  19  21
HETATM   21  C   UNL     1      42.393 -16.449   5.974  1.00  0.00     0.191 C 
HETATM   22  S   UNL     1      42.818 -15.797   7.463  1.00  0.00    -0.039 SA
BRANCH  21  23
HETATM   23  N   UNL     1      43.381 -17.005   5.215  1.00  0.00    -0.332 N 
HETATM   24  H   UNL     1      44.065 -16.323   4.902  1.00  0.00     0.168 HD
BRANCH  23  25
HETATM   25  C   UNL     1      43.569 -18.316   4.728  1.00  0.00     0.034 A 
HETATM   26  C   UNL     1      43.649 -18.650   3.375  1.00  0.00     0.029 A 
HETATM   27  C   UNL     1      43.860 -19.977   2.983  1.00  0.00     0.002 A 
HETATM   28  C   UNL     1      44.010 -20.976   3.941  1.00  0.00     0.000 A 
HETATM   29  C   UNL     1      43.962 -20.649   5.293  1.00  0.00     0.002 A 
HETATM   30  C   UNL     1      43.749 -19.325   5.683  1.00  0.00     0.029 A 
ENDBRANCH  23  25
ENDBRANCH  21  23
ENDBRANCH  19  21
ENDBRANCH  17  19
ENDBRANCH   1  17
TORSDOF 10
ENDMDL
MODEL 10
REMARK VINA RESULT:      -6.9      2.383      3.983
REMARK  10 active torsions:
REMARK  status: ('A' for Active; 'I' for Inactive)
REMARK    1  A    between atoms: O_2  and  C_3 
REMARK    2  A    between atoms: C_4  and  O_5 
REMARK    3  A    between atoms: O_5  and  C_6 
REMARK    4  A    between atoms: C_6  and  C_7 
REMARK       I    between atoms: C_7  and  N_8 
REMARK    5  A    between atoms: N_8  and  C_9 
REMARK    6  A    between atoms: C_9  and  N_10 
REMARK    7  A    between atoms: N_10  and  N_11 
REMARK    8  A    between atoms: N_11  and  C_12 
REMARK    9  A    between atoms: C_12  and  N_13 
REMARK   10  A    between atoms: N_13  and  C_14 
ROOT
HETATM    1  C   UNL     1      39.745 -13.046   3.650  1.00  0.00     0.193 C 
HETATM    2  S   UNL     1      39.528 -11.831   4.781  1.00  0.00    -0.039 SA
ENDROOT
BRANCH   1   3
HETATM    3  N   UNL     1      40.847 -13.898   3.547  1.00  0.00    -0.301 N 
HETATM    4  C   UNL     1      41.726 -14.127   2.481  1.00  0.00     0.248 C 
HETATM    5  O   UNL     1      41.661 -13.615   1.368  1.00  0.00    -0.271 OA
HETATM    6  H   UNL     1      41.014 -14.468   4.363  1.00  0.00     0.171 HD
BRANCH   4   7
HETATM    7  C   UNL     1      42.820 -15.147   2.829  1.00  0.00     0.278 C 
BRANCH   7   8
HETATM    8  O   UNL     1      42.609 -15.891   4.025  1.00  0.00    -0.339 OA
BRANCH   8   9
HETATM    9  C   UNL     1      43.108 -17.164   3.971  1.00  0.00     0.102 A 
HETATM   10  C   UNL     1      43.610 -17.843   5.085  1.00  0.00     0.101 A 
HETATM   11  C   UNL     1      44.056 -19.159   4.966  1.00  0.00     0.039 A 
HETATM   12  C   UNL     1      44.054 -19.779   3.715  1.00  0.00     0.003 A 
HETATM   13  C   UNL     1      43.601 -19.086   2.592  1.00  0.00     0.003 A 
HETATM   14  C   UNL     1      43.134 -17.777   2.718  1.00  0.00     0.039 A 
BRANCH  10  15
HETATM   15  O   UNL     1      43.613 -17.281   6.335  1.00  0.00    -0.353 OA
HETATM   16  C   UNL     1      44.777 -16.465   6.495  1.00  0.00     0.210 C 
ENDBRANCH  10  15
ENDBRANCH   8   9
ENDBRANCH   7   8
ENDBRANCH   4   7
ENDBRANCH   1   3
BRANCH   1  17
HETATM   17  N   UNL     1      38.782 -13.374   2.692  1.00  0.00    -0.274 N 
HETATM   18  H   UNL     1      38.791 -14.278   2.224  1.00  0.00     0.189 HD
BRANCH  17  19
HETATM   19  N   UNL     1      38.112 -12.362   1.975  1.00  0.00    -0.274 N 
HETATM   20  H   UNL     1      37.103 -12.490   1.895  1.00  0.00     0.189 HD
BRANCH  19  21
HETATM   21  C   UNL     1      38.760 -11.627   1.019  1.00  0.00     0.191 C 
HETATM   22  S   UNL     1      38.873  -9.952   1.035  1.00  0.00    -0.039 SA
BRANCH  21  23
HETATM   23  N   UNL     1      39.377 -12.299   0.004  1.00  0.00    -0.332 N 
HETATM   24  H   UNL     1      40.387 -12.207   0.029  1.00  0.00     0.168 HD
BRANCH  23  25
HETATM   25  C   UNL     1      38.864 -13.014  -1.100  1.00  0.00     0.034 A 
HETATM   26  C   UNL     1      37.720 -12.648  -1.812  1.00  0.00     0.029 A 
HETATM   27  C   UNL     1      37.296 -13.405  -2.910  1.00  0.00     0.002 A 
HETATM   28  C   UNL     1      38.022 -14.522  -3.316  1.00  0.00     0.000 A 
HETATM   29  C   UNL     1      39.181 -14.877  -2.632  1.00  0.00     0.002 A 
HETATM   30  C   UNL     1      39.602 -14.122  -1.534  1.00  0.00     0.029 A 
ENDBRANCH  23  25
ENDBRANCH  21  23
ENDBRANCH  19  21
ENDBRANCH  17  19
ENDBRANCH   1  17
TORSDOF 10
ENDMDL
