MODEL 1
REMARK VINA RESULT:      -9.7      0.000      0.000
REMARK  5 active torsions:
REMARK  status: ('A' for Active; 'I' for Inactive)
REMARK    1  A    between atoms: C_4  and  O_5 
REMARK    2  A    between atoms: O_5  and  C_6 
REMARK    3  A    between atoms: C_6  and  C_7 
REMARK       I    between atoms: C_7  and  N_8 
REMARK    4  A    between atoms: N_8  and  C_9 
REMARK    5  A    between atoms: C_11  and  C_12 
ROOT
HETATM    1  C   UNL     1      42.932 -11.610   6.499  1.00  0.00     0.035 A 
HETATM    2  C   UNL     1      43.113 -12.925   6.057  1.00  0.00     0.045 A 
HETATM    3  C   UNL     1      42.881 -13.280   4.717  1.00  0.00     0.019 A 
HETATM    4  C   UNL     1      42.466 -12.285   3.819  1.00  0.00     0.016 A 
HETATM    5  C   UNL     1      42.290 -10.971   4.246  1.00  0.00     0.003 A 
HETATM    6  C   UNL     1      42.523 -10.636   5.581  1.00  0.00     0.029 A 
ENDROOT
BRANCH   1   7
HETATM    7  N   UNL     1      43.147 -11.189   7.825  1.00  0.00    -0.325 N 
HETATM    8  C   UNL     1      44.354 -10.987   8.474  1.00  0.00     0.251 C 
HETATM    9  O   UNL     1      45.475 -11.161   8.005  1.00  0.00    -0.270 OA
HETATM   10  H   UNL     1      42.323 -11.068   8.409  1.00  0.00     0.169 HD
BRANCH   8  11
HETATM   11  C   UNL     1      44.176 -10.433   9.897  1.00  0.00     0.217 C 
HETATM   12  C   UNL     1      45.522  -9.921  10.396  1.00  0.00     0.050 C 
BRANCH  11  13
HETATM   13  O   UNL     1      43.269  -9.321   9.915  1.00  0.00    -0.337 OA
BRANCH  13  14
HETATM   14  C   UNL     1      42.708  -9.112  11.146  1.00  0.00     0.070 A 
HETATM   15  C   UNL     1      41.595  -9.885  11.472  1.00  0.00     0.043 A 
HETATM   16  C   UNL     1      40.971  -9.733  12.716  1.00  0.00    -0.059 A 
HETATM   17  C   UNL     1      39.768 -10.552  13.080  1.00  0.00     0.048 C 
HETATM   18  C   UNL     1      41.504  -8.822  13.638  1.00  0.00     0.013 A 
HETATM   19  C   UNL     1      42.640  -8.060  13.325  1.00  0.00    -0.059 A 
HETATM   20  C   UNL     1      43.246  -8.218  12.073  1.00  0.00     0.043 A 
HETATM   21  C   UNL     1      43.207  -7.114  14.343  1.00  0.00     0.048 C 
ENDBRANCH  13  14
ENDBRANCH  11  13
ENDBRANCH   8  11
ENDBRANCH   1   7
BRANCH   3  22
HETATM   22  C   UNL     1      43.054 -14.650   4.239  1.00  0.00     0.181 A 
HETATM   23  O   UNL     1      43.562 -15.557   5.138  1.00  0.00    -0.289 OA
HETATM   24  C   UNL     1      43.613 -16.724   4.438  1.00  0.00     0.106 A 
HETATM   25  C   UNL     1      43.138 -16.475   3.161  1.00  0.00     0.093 A 
HETATM   26  C   UNL     1      44.055 -17.960   4.893  1.00  0.00     0.040 A 
HETATM   27  N   UNL     1      42.791 -15.153   3.044  1.00  0.00    -0.221 NA
HETATM   28  C   UNL     1      43.083 -17.529   2.241  1.00  0.00     0.034 A 
HETATM   29  C   UNL     1      43.518 -18.796   2.661  1.00  0.00     0.002 A 
HETATM   30  C   UNL     1      43.996 -19.005   3.961  1.00  0.00     0.003 A 
ENDBRANCH   3  22
TORSDOF 5
ENDMDL
MODEL 2
REMARK VINA RESULT:      -9.6      0.676      1.957
REMARK  5 active torsions:
REMARK  status: ('A' for Active; 'I' for Inactive)
REMARK    1  A    between atoms: C_4  and  O_5 
REMARK    2  A    between atoms: O_5  and  C_6 
REMARK    3  A    between atoms: C_6  and  C_7 
REMARK       I    between atoms: C_7  and  N_8 
REMARK    4  A    between atoms: N_8  and  C_9 
REMARK    5  A    between atoms: C_11  and  C_12 
ROOT
HETATM    1  C   UNL     1      42.911 -11.754   6.760  1.00  0.00     0.035 A 
HETATM    2  C   UNL     1      43.177 -13.079   6.397  1.00  0.00     0.045 A 
HETATM    3  C   UNL     1      42.846 -13.562   5.119  1.00  0.00     0.019 A 
HETATM    4  C   UNL     1      42.244 -12.688   4.203  1.00  0.00     0.016 A 
HETATM    5  C   UNL     1      41.980 -11.365   4.552  1.00  0.00     0.003 A 
HETATM    6  C   UNL     1      42.313 -10.902   5.825  1.00  0.00     0.029 A 
ENDROOT
BRANCH   1   7
HETATM    7  N   UNL     1      43.216 -11.209   8.021  1.00  0.00    -0.325 N 
HETATM    8  C   UNL     1      44.465 -10.946   8.560  1.00  0.00     0.251 C 
HETATM    9  O   UNL     1      45.551 -11.166   8.031  1.00  0.00    -0.270 OA
HETATM   10  H   UNL     1      42.436 -11.031   8.648  1.00  0.00     0.169 HD
BRANCH   8  11
HETATM   11  C   UNL     1      44.386 -10.258   9.932  1.00  0.00     0.217 C 
HETATM   12  C   UNL     1      45.704  -9.539  10.198  1.00  0.00     0.050 C 
BRANCH  11  13
HETATM   13  O   UNL     1      43.351  -9.262   9.959  1.00  0.00    -0.337 OA
BRANCH  13  14
HETATM   14  C   UNL     1      42.733  -9.170  11.176  1.00  0.00     0.070 A 
HETATM   15  C   UNL     1      43.256  -8.247  12.081  1.00  0.00     0.043 A 
HETATM   16  C   UNL     1      42.673  -8.092  13.344  1.00  0.00    -0.059 A 
HETATM   17  C   UNL     1      43.227  -7.109  14.332  1.00  0.00     0.048 C 
HETATM   18  C   UNL     1      41.539  -8.848  13.668  1.00  0.00     0.013 A 
HETATM   19  C   UNL     1      40.993  -9.759  12.752  1.00  0.00    -0.059 A 
HETATM   20  C   UNL     1      41.593  -9.909  11.496  1.00  0.00     0.043 A 
HETATM   21  C   UNL     1      39.759 -10.533  13.114  1.00  0.00     0.048 C 
ENDBRANCH  13  14
ENDBRANCH  11  13
ENDBRANCH   8  11
ENDBRANCH   1   7
BRANCH   3  22
HETATM   22  C   UNL     1      43.107 -14.946   4.725  1.00  0.00     0.181 A 
HETATM   23  O   UNL     1      42.692 -15.318   3.469  1.00  0.00    -0.289 OA
HETATM   24  C   UNL     1      43.058 -16.627   3.374  1.00  0.00     0.106 A 
HETATM   25  C   UNL     1      43.672 -16.983   4.562  1.00  0.00     0.093 A 
HETATM   26  C   UNL     1      42.865 -17.478   2.293  1.00  0.00     0.040 A 
HETATM   27  N   UNL     1      43.693 -15.910   5.416  1.00  0.00    -0.221 NA
HETATM   28  C   UNL     1      44.148 -18.292   4.712  1.00  0.00     0.034 A 
HETATM   29  C   UNL     1      43.976 -19.184   3.642  1.00  0.00     0.002 A 
HETATM   30  C   UNL     1      43.345 -18.784   2.457  1.00  0.00     0.003 A 
ENDBRANCH   3  22
TORSDOF 5
ENDMDL
MODEL 3
REMARK VINA RESULT:      -9.5      1.735     10.089
REMARK  5 active torsions:
REMARK  status: ('A' for Active; 'I' for Inactive)
REMARK    1  A    between atoms: C_4  and  O_5 
REMARK    2  A    between atoms: O_5  and  C_6 
REMARK    3  A    between atoms: C_6  and  C_7 
REMARK       I    between atoms: C_7  and  N_8 
REMARK    4  A    between atoms: N_8  and  C_9 
REMARK    5  A    between atoms: C_11  and  C_12 
ROOT
HETATM    1  C   UNL     1      44.474 -11.053   7.378  1.00  0.00     0.035 A 
HETATM    2  C   UNL     1      43.771 -10.752   8.550  1.00  0.00     0.045 A 
HETATM    3  C   UNL     1      44.322  -9.912   9.533  1.00  0.00     0.019 A 
HETATM    4  C   UNL     1      45.598  -9.370   9.317  1.00  0.00     0.016 A 
HETATM    5  C   UNL     1      46.304  -9.657   8.151  1.00  0.00     0.003 A 
HETATM    6  C   UNL     1      45.743 -10.495   7.187  1.00  0.00     0.029 A 
ENDROOT
BRANCH   1   7
HETATM    7  N   UNL     1      43.980 -11.886   6.357  1.00  0.00    -0.325 N 
HETATM    8  C   UNL     1      42.862 -11.695   5.563  1.00  0.00     0.251 C 
HETATM    9  O   UNL     1      42.073 -10.755   5.623  1.00  0.00    -0.270 OA
HETATM   10  H   UNL     1      44.463 -12.769   6.209  1.00  0.00     0.169 HD
BRANCH   8  11
HETATM   11  C   UNL     1      42.703 -12.784   4.490  1.00  0.00     0.217 C 
HETATM   12  C   UNL     1      43.624 -12.458   3.319  1.00  0.00     0.050 C 
BRANCH  11  13
HETATM   13  O   UNL     1      43.097 -14.071   4.990  1.00  0.00    -0.337 OA
BRANCH  13  14
HETATM   14  C   UNL     1      42.717 -15.099   4.170  1.00  0.00     0.070 A 
HETATM   15  C   UNL     1      41.541 -14.925   3.443  1.00  0.00     0.043 A 
HETATM   16  C   UNL     1      41.091 -15.931   2.580  1.00  0.00    -0.059 A 
HETATM   17  C   UNL     1      39.823 -15.762   1.796  1.00  0.00     0.048 C 
HETATM   18  C   UNL     1      41.859 -17.093   2.429  1.00  0.00     0.013 A 
HETATM   19  C   UNL     1      43.058 -17.262   3.138  1.00  0.00    -0.059 A 
HETATM   20  C   UNL     1      43.488 -16.251   4.005  1.00  0.00     0.043 A 
HETATM   21  C   UNL     1      43.876 -18.503   2.934  1.00  0.00     0.048 C 
ENDBRANCH  13  14
ENDBRANCH  11  13
ENDBRANCH   8  11
ENDBRANCH   1   7
BRANCH   3  22
HETATM   22  C   UNL     1      43.607  -9.594  10.768  1.00  0.00     0.181 A 
HETATM   23  O   UNL     1      44.071  -8.523  11.491  1.00  0.00    -0.289 OA
HETATM   24  C   UNL     1      43.235  -8.460  12.564  1.00  0.00     0.106 A 
HETATM   25  C   UNL     1      42.311  -9.485  12.443  1.00  0.00     0.093 A 
HETATM   26  C   UNL     1      43.273  -7.546  13.610  1.00  0.00     0.040 A 
HETATM   27  N   UNL     1      42.560 -10.203  11.301  1.00  0.00    -0.221 NA
HETATM   28  C   UNL     1      41.328  -9.630  13.430  1.00  0.00     0.034 A 
HETATM   29  C   UNL     1      41.329  -8.725  14.503  1.00  0.00     0.002 A 
HETATM   30  C   UNL     1      42.285  -7.705  14.590  1.00  0.00     0.003 A 
ENDBRANCH   3  22
TORSDOF 5
ENDMDL
MODEL 4
REMARK VINA RESULT:      -9.5      1.721     10.148
REMARK  5 active torsions:
REMARK  status: ('A' for Active; 'I' for Inactive)
REMARK    1  A    between atoms: C_4  and  O_5 
REMARK    2  A    between atoms: O_5  and  C_6 
REMARK    3  A    between atoms: C_6  and  C_7 
REMARK       I    between atoms: C_7  and  N_8 
REMARK    4  A    between atoms: N_8  and  C_9 
REMARK    5  A    between atoms: C_11  and  C_12 
ROOT
HETATM    1  C   UNL     1      44.520 -10.976   7.382  1.00  0.00     0.035 A 
HETATM    2  C   UNL     1      43.797 -10.691   8.545  1.00  0.00     0.045 A 
HETATM    3  C   UNL     1      44.330  -9.860   9.546  1.00  0.00     0.019 A 
HETATM    4  C   UNL     1      45.607  -9.312   9.358  1.00  0.00     0.016 A 
HETATM    5  C   UNL     1      46.333  -9.584   8.201  1.00  0.00     0.003 A 
HETATM    6  C   UNL     1      45.791 -10.412   7.218  1.00  0.00     0.029 A 
ENDROOT
BRANCH   1   7
HETATM    7  N   UNL     1      44.046 -11.799   6.343  1.00  0.00    -0.325 N 
HETATM    8  C   UNL     1      42.761 -11.876   5.831  1.00  0.00     0.251 C 
HETATM    9  O   UNL     1      41.782 -11.241   6.214  1.00  0.00    -0.270 OA
HETATM   10  H   UNL     1      44.704 -12.465   5.946  1.00  0.00     0.169 HD
BRANCH   8  11
HETATM   11  C   UNL     1      42.657 -12.830   4.631  1.00  0.00     0.217 C 
HETATM   12  C   UNL     1      43.579 -12.330   3.525  1.00  0.00     0.050 C 
BRANCH  11  13
HETATM   13  O   UNL     1      43.093 -14.153   4.976  1.00  0.00    -0.337 OA
BRANCH  13  14
HETATM   14  C   UNL     1      42.687 -15.099   4.074  1.00  0.00     0.070 A 
HETATM   15  C   UNL     1      43.450 -16.263   3.992  1.00  0.00     0.043 A 
HETATM   16  C   UNL     1      43.094 -17.278   3.097  1.00  0.00    -0.059 A 
HETATM   17  C   UNL     1      43.908 -18.533   2.991  1.00  0.00     0.048 C 
HETATM   18  C   UNL     1      41.941 -17.123   2.316  1.00  0.00     0.013 A 
HETATM   19  C   UNL     1      41.154 -15.965   2.414  1.00  0.00    -0.059 A 
HETATM   20  C   UNL     1      41.530 -14.955   3.307  1.00  0.00     0.043 A 
HETATM   21  C   UNL     1      39.907 -15.839   1.588  1.00  0.00     0.048 C 
ENDBRANCH  13  14
ENDBRANCH  11  13
ENDBRANCH   8  11
ENDBRANCH   1   7
BRANCH   3  22
HETATM   22  C   UNL     1      43.593  -9.559  10.773  1.00  0.00     0.181 A 
HETATM   23  O   UNL     1      44.054  -8.506  11.525  1.00  0.00    -0.289 OA
HETATM   24  C   UNL     1      43.197  -8.455  12.583  1.00  0.00     0.106 A 
HETATM   25  C   UNL     1      42.266  -9.469  12.425  1.00  0.00     0.093 A 
HETATM   26  C   UNL     1      43.223  -7.562  13.646  1.00  0.00     0.040 A 
HETATM   27  N   UNL     1      42.531 -10.168  11.274  1.00  0.00    -0.221 NA
HETATM   28  C   UNL     1      41.263  -9.623  13.389  1.00  0.00     0.034 A 
HETATM   29  C   UNL     1      41.252  -8.738  14.479  1.00  0.00     0.002 A 
HETATM   30  C   UNL     1      42.215  -7.729  14.604  1.00  0.00     0.003 A 
ENDBRANCH   3  22
TORSDOF 5
ENDMDL
MODEL 5
REMARK VINA RESULT:      -9.3      1.697      9.871
REMARK  5 active torsions:
REMARK  status: ('A' for Active; 'I' for Inactive)
REMARK    1  A    between atoms: C_4  and  O_5 
REMARK    2  A    between atoms: O_5  and  C_6 
REMARK    3  A    between atoms: C_6  and  C_7 
REMARK       I    between atoms: C_7  and  N_8 
REMARK    4  A    between atoms: N_8  and  C_9 
REMARK    5  A    between atoms: C_11  and  C_12 
ROOT
HETATM    1  C   UNL     1      44.119 -11.674   7.289  1.00  0.00     0.035 A 
HETATM    2  C   UNL     1      43.584 -11.140   8.467  1.00  0.00     0.045 A 
HETATM    3  C   UNL     1      44.339 -10.279   9.282  1.00  0.00     0.019 A 
HETATM    4  C   UNL     1      45.647  -9.958   8.893  1.00  0.00     0.016 A 
HETATM    5  C   UNL     1      46.188 -10.478   7.719  1.00  0.00     0.003 A 
HETATM    6  C   UNL     1      45.425 -11.333   6.921  1.00  0.00     0.029 A 
ENDROOT
BRANCH   1   7
HETATM    7  N   UNL     1      43.417 -12.540   6.430  1.00  0.00    -0.325 N 
HETATM    8  C   UNL     1      42.456 -12.216   5.486  1.00  0.00     0.251 C 
HETATM    9  O   UNL     1      42.022 -11.094   5.240  1.00  0.00    -0.270 OA
HETATM   10  H   UNL     1      43.586 -13.537   6.541  1.00  0.00     0.169 HD
BRANCH   8  11
HETATM   11  C   UNL     1      41.988 -13.434   4.673  1.00  0.00     0.217 C 
HETATM   12  C   UNL     1      40.944 -12.977   3.661  1.00  0.00     0.050 C 
BRANCH  11  13
HETATM   13  O   UNL     1      43.071 -14.013   3.929  1.00  0.00    -0.337 OA
BRANCH  13  14
HETATM   14  C   UNL     1      43.168 -15.367   4.097  1.00  0.00     0.070 A 
HETATM   15  C   UNL     1      43.269 -15.835   5.406  1.00  0.00     0.043 A 
HETATM   16  C   UNL     1      43.366 -17.209   5.657  1.00  0.00    -0.059 A 
HETATM   17  C   UNL     1      43.483 -17.729   7.060  1.00  0.00     0.048 C 
HETATM   18  C   UNL     1      43.320 -18.103   4.580  1.00  0.00     0.013 A 
HETATM   19  C   UNL     1      43.191 -17.639   3.262  1.00  0.00    -0.059 A 
HETATM   20  C   UNL     1      43.106 -16.262   3.027  1.00  0.00     0.043 A 
HETATM   21  C   UNL     1      43.114 -18.621   2.129  1.00  0.00     0.048 C 
ENDBRANCH  13  14
ENDBRANCH  11  13
ENDBRANCH   8  11
ENDBRANCH   1   7
BRANCH   3  22
HETATM   22  C   UNL     1      43.801  -9.719  10.521  1.00  0.00     0.181 A 
HETATM   23  O   UNL     1      42.737 -10.380  11.085  1.00  0.00    -0.289 OA
HETATM   24  C   UNL     1      42.451  -9.654  12.202  1.00  0.00     0.106 A 
HETATM   25  C   UNL     1      43.346  -8.600  12.264  1.00  0.00     0.093 A 
HETATM   26  C   UNL     1      41.450  -9.901  13.133  1.00  0.00     0.040 A 
HETATM   27  N   UNL     1      44.196  -8.646  11.187  1.00  0.00    -0.221 NA
HETATM   28  C   UNL     1      43.262  -7.703  13.336  1.00  0.00     0.034 A 
HETATM   29  C   UNL     1      42.266  -7.918  14.301  1.00  0.00     0.002 A 
HETATM   30  C   UNL     1      41.377  -8.995  14.199  1.00  0.00     0.003 A 
ENDBRANCH   3  22
TORSDOF 5
ENDMDL
MODEL 6
REMARK VINA RESULT:      -9.2      1.956      9.972
REMARK  5 active torsions:
REMARK  status: ('A' for Active; 'I' for Inactive)
REMARK    1  A    between atoms: C_4  and  O_5 
REMARK    2  A    between atoms: O_5  and  C_6 
REMARK    3  A    between atoms: C_6  and  C_7 
REMARK       I    between atoms: C_7  and  N_8 
REMARK    4  A    between atoms: N_8  and  C_9 
REMARK    5  A    between atoms: C_11  and  C_12 
ROOT
HETATM    1  C   UNL     1      44.208 -11.449   6.715  1.00  0.00     0.035 A 
HETATM    2  C   UNL     1      43.704 -10.707   7.789  1.00  0.00     0.045 A 
HETATM    3  C   UNL     1      44.560  -9.971   8.628  1.00  0.00     0.019 A 
HETATM    4  C   UNL     1      45.938  -9.989   8.367  1.00  0.00     0.016 A 
HETATM    5  C   UNL     1      46.449 -10.719   7.296  1.00  0.00     0.003 A 
HETATM    6  C   UNL     1      45.586 -11.445   6.474  1.00  0.00     0.029 A 
ENDROOT
BRANCH   1   7
HETATM    7  N   UNL     1      43.407 -12.206   5.839  1.00  0.00    -0.325 N 
HETATM    8  C   UNL     1      43.343 -12.131   4.458  1.00  0.00     0.251 C 
HETATM    9  O   UNL     1      43.972 -11.361   3.737  1.00  0.00    -0.270 OA
HETATM   10  H   UNL     1      42.748 -12.855   6.262  1.00  0.00     0.169 HD
BRANCH   8  11
HETATM   11  C   UNL     1      42.414 -13.193   3.848  1.00  0.00     0.217 C 
HETATM   12  C   UNL     1      41.395 -12.498   2.952  1.00  0.00     0.050 C 
BRANCH  11  13
HETATM   13  O   UNL     1      43.143 -14.113   3.022  1.00  0.00    -0.337 OA
BRANCH  13  14
HETATM   14  C   UNL     1      43.199 -15.374   3.552  1.00  0.00     0.070 A 
HETATM   15  C   UNL     1      43.184 -16.439   2.653  1.00  0.00     0.043 A 
HETATM   16  C   UNL     1      43.244 -17.757   3.120  1.00  0.00    -0.059 A 
HETATM   17  C   UNL     1      43.221 -18.914   2.166  1.00  0.00     0.048 C 
HETATM   18  C   UNL     1      43.359 -17.986   4.498  1.00  0.00     0.013 A 
HETATM   19  C   UNL     1      43.401 -16.917   5.406  1.00  0.00    -0.059 A 
HETATM   20  C   UNL     1      43.330 -15.606   4.923  1.00  0.00     0.043 A 
HETATM   21  C   UNL     1      43.555 -17.191   6.874  1.00  0.00     0.048 C 
ENDBRANCH  13  14
ENDBRANCH  11  13
ENDBRANCH   8  11
ENDBRANCH   1   7
BRANCH   3  22
HETATM   22  C   UNL     1      44.054  -9.198   9.761  1.00  0.00     0.181 A 
HETATM   23  O   UNL     1      43.400  -8.027   9.465  1.00  0.00    -0.289 OA
HETATM   24  C   UNL     1      43.046  -7.528  10.682  1.00  0.00     0.106 A 
HETATM   25  C   UNL     1      43.495  -8.412  11.649  1.00  0.00     0.093 A 
HETATM   26  C   UNL     1      42.357  -6.351  10.942  1.00  0.00     0.040 A 
HETATM   27  N   UNL     1      44.140  -9.466  11.054  1.00  0.00    -0.221 NA
HETATM   28  C   UNL     1      43.246  -8.124  12.997  1.00  0.00     0.034 A 
HETATM   29  C   UNL     1      42.549  -6.944  13.303  1.00  0.00     0.002 A 
HETATM   30  C   UNL     1      42.116  -6.075  12.294  1.00  0.00     0.003 A 
ENDBRANCH   3  22
TORSDOF 5
ENDMDL
MODEL 7
REMARK VINA RESULT:      -8.9      7.079     10.992
REMARK  5 active torsions:
REMARK  status: ('A' for Active; 'I' for Inactive)
REMARK    1  A    between atoms: C_4  and  O_5 
REMARK    2  A    between atoms: O_5  and  C_6 
REMARK    3  A    between atoms: C_6  and  C_7 
REMARK       I    between atoms: C_7  and  N_8 
REMARK    4  A    between atoms: N_8  and  C_9 
REMARK    5  A    between atoms: C_11  and  C_12 
ROOT
HETATM    1  C   UNL     1      40.321 -13.404  -0.882  1.00  0.00     0.035 A 
HETATM    2  C   UNL     1      40.875 -12.161  -1.209  1.00  0.00     0.045 A 
HETATM    3  C   UNL     1      40.375 -11.403  -2.282  1.00  0.00     0.019 A 
HETATM    4  C   UNL     1      39.302 -11.914  -3.026  1.00  0.00     0.016 A 
HETATM    5  C   UNL     1      38.739 -13.147  -2.706  1.00  0.00     0.003 A 
HETATM    6  C   UNL     1      39.247 -13.888  -1.638  1.00  0.00     0.029 A 
ENDROOT
BRANCH   1   7
HETATM    7  N   UNL     1      40.773 -14.211   0.178  1.00  0.00    -0.325 N 
HETATM    8  C   UNL     1      40.823 -13.902   1.528  1.00  0.00     0.251 C 
HETATM    9  O   UNL     1      40.495 -12.840   2.047  1.00  0.00    -0.270 OA
HETATM   10  H   UNL     1      41.166 -15.117  -0.067  1.00  0.00     0.169 HD
BRANCH   8  11
HETATM   11  C   UNL     1      41.293 -15.085   2.389  1.00  0.00     0.217 C 
HETATM   12  C   UNL     1      40.111 -16.017   2.631  1.00  0.00     0.050 C 
BRANCH  11  13
HETATM   13  O   UNL     1      42.303 -15.853   1.717  1.00  0.00    -0.337 OA
BRANCH  13  14
HETATM   14  C   UNL     1      42.904 -16.772   2.534  1.00  0.00     0.070 A 
HETATM   15  C   UNL     1      43.370 -16.314   3.765  1.00  0.00     0.043 A 
HETATM   16  C   UNL     1      43.991 -17.197   4.656  1.00  0.00    -0.059 A 
HETATM   17  C   UNL     1      44.505 -16.719   5.981  1.00  0.00     0.048 C 
HETATM   18  C   UNL     1      44.099 -18.551   4.309  1.00  0.00     0.013 A 
HETATM   19  C   UNL     1      43.607 -19.022   3.082  1.00  0.00    -0.059 A 
HETATM   20  C   UNL     1      42.999 -18.124   2.198  1.00  0.00     0.043 A 
HETATM   21  C   UNL     1      43.710 -20.482   2.749  1.00  0.00     0.048 C 
ENDBRANCH  13  14
ENDBRANCH  11  13
ENDBRANCH   8  11
ENDBRANCH   1   7
BRANCH   3  22
HETATM   22  C   UNL     1      40.947 -10.107  -2.645  1.00  0.00     0.181 A 
HETATM   23  O   UNL     1      41.709  -9.481  -1.689  1.00  0.00    -0.289 OA
HETATM   24  C   UNL     1      42.104  -8.322  -2.287  1.00  0.00     0.106 A 
HETATM   25  C   UNL     1      41.569  -8.300  -3.564  1.00  0.00     0.093 A 
HETATM   26  C   UNL     1      42.900  -7.322  -1.743  1.00  0.00     0.040 A 
HETATM   27  N   UNL     1      40.830  -9.436  -3.779  1.00  0.00    -0.221 NA
HETATM   28  C   UNL     1      41.838  -7.203  -4.392  1.00  0.00     0.034 A 
HETATM   29  C   UNL     1      42.642  -6.171  -3.882  1.00  0.00     0.002 A 
HETATM   30  C   UNL     1      43.160  -6.231  -2.582  1.00  0.00     0.003 A 
ENDBRANCH   3  22
TORSDOF 5
ENDMDL
MODEL 8
REMARK VINA RESULT:      -8.9      7.232     10.957
REMARK  5 active torsions:
REMARK  status: ('A' for Active; 'I' for Inactive)
REMARK    1  A    between atoms: C_4  and  O_5 
REMARK    2  A    between atoms: O_5  and  C_6 
REMARK    3  A    between atoms: C_6  and  C_7 
REMARK       I    between atoms: C_7  and  N_8 
REMARK    4  A    between atoms: N_8  and  C_9 
REMARK    5  A    between atoms: C_11  and  C_12 
ROOT
HETATM    1  C   UNL     1      40.428 -13.425  -0.832  1.00  0.00     0.035 A 
HETATM    2  C   UNL     1      40.938 -12.170  -1.183  1.00  0.00     0.045 A 
HETATM    3  C   UNL     1      40.461 -11.483  -2.313  1.00  0.00     0.019 A 
HETATM    4  C   UNL     1      39.455 -12.077  -3.088  1.00  0.00     0.016 A 
HETATM    5  C   UNL     1      38.936 -13.324  -2.744  1.00  0.00     0.003 A 
HETATM    6  C   UNL     1      39.421 -13.993  -1.621  1.00  0.00     0.029 A 
ENDROOT
BRANCH   1   7
HETATM    7  N   UNL     1      40.861 -14.165   0.284  1.00  0.00    -0.325 N 
HETATM    8  C   UNL     1      40.453 -14.043   1.602  1.00  0.00     0.251 C 
HETATM    9  O   UNL     1      39.639 -13.237   2.044  1.00  0.00    -0.270 OA
HETATM   10  H   UNL     1      41.606 -14.840   0.129  1.00  0.00     0.169 HD
BRANCH   8  11
HETATM   11  C   UNL     1      41.089 -15.100   2.520  1.00  0.00     0.217 C 
HETATM   12  C   UNL     1      39.980 -15.936   3.149  1.00  0.00     0.050 C 
BRANCH  11  13
HETATM   13  O   UNL     1      41.926 -16.000   1.779  1.00  0.00    -0.337 OA
BRANCH  13  14
HETATM   14  C   UNL     1      42.657 -16.831   2.584  1.00  0.00     0.070 A 
HETATM   15  C   UNL     1      42.900 -18.118   2.109  1.00  0.00     0.043 A 
HETATM   16  C   UNL     1      43.645 -19.023   2.874  1.00  0.00    -0.059 A 
HETATM   17  C   UNL     1      43.909 -20.415   2.380  1.00  0.00     0.048 C 
HETATM   18  C   UNL     1      44.173 -18.603   4.101  1.00  0.00     0.013 A 
HETATM   19  C   UNL     1      43.954 -17.300   4.573  1.00  0.00    -0.059 A 
HETATM   20  C   UNL     1      43.199 -16.411   3.800  1.00  0.00     0.043 A 
HETATM   21  C   UNL     1      44.557 -16.867   5.878  1.00  0.00     0.048 C 
ENDBRANCH  13  14
ENDBRANCH  11  13
ENDBRANCH   8  11
ENDBRANCH   1   7
BRANCH   3  22
HETATM   22  C   UNL     1      40.988 -10.175  -2.700  1.00  0.00     0.181 A 
HETATM   23  O   UNL     1      41.776  -9.531  -1.779  1.00  0.00    -0.289 OA
HETATM   24  C   UNL     1      42.119  -8.365  -2.395  1.00  0.00     0.106 A 
HETATM   25  C   UNL     1      41.530  -8.357  -3.648  1.00  0.00     0.093 A 
HETATM   26  C   UNL     1      42.916  -7.346  -1.886  1.00  0.00     0.040 A 
HETATM   27  N   UNL     1      40.808  -9.509  -3.829  1.00  0.00    -0.221 NA
HETATM   28  C   UNL     1      41.739  -7.256  -4.487  1.00  0.00     0.034 A 
HETATM   29  C   UNL     1      42.541  -6.206  -4.013  1.00  0.00     0.002 A 
HETATM   30  C   UNL     1      43.115  -6.251  -2.736  1.00  0.00     0.003 A 
ENDBRANCH   3  22
TORSDOF 5
ENDMDL
MODEL 9
REMARK VINA RESULT:      -8.8      7.058     11.003
REMARK  5 active torsions:
REMARK  status: ('A' for Active; 'I' for Inactive)
REMARK    1  A    between atoms: C_4  and  O_5 
REMARK    2  A    between atoms: O_5  and  C_6 
REMARK    3  A    between atoms: C_6  and  C_7 
REMARK       I    between atoms: C_7  and  N_8 
REMARK    4  A    between atoms: N_8  and  C_9 
REMARK    5  A    between atoms: C_11  and  C_12 
ROOT
HETATM    1  C   UNL     1      40.923 -12.748  -0.811  1.00  0.00     0.035 A 
HETATM    2  C   UNL     1      41.429 -11.443  -0.779  1.00  0.00     0.045 A 
HETATM    3  C   UNL     1      41.189 -10.546  -1.834  1.00  0.00     0.019 A 
HETATM    4  C   UNL     1      40.426 -10.980  -2.928  1.00  0.00     0.016 A 
HETATM    5  C   UNL     1      39.912 -12.274  -2.967  1.00  0.00     0.003 A 
HETATM    6  C   UNL     1      40.161 -13.153  -1.911  1.00  0.00     0.029 A 
ENDROOT
BRANCH   1   7
HETATM    7  N   UNL     1      41.126 -13.694   0.211  1.00  0.00    -0.325 N 
HETATM    8  C   UNL     1      40.727 -13.623   1.536  1.00  0.00     0.251 C 
HETATM    9  O   UNL     1      40.130 -12.692   2.070  1.00  0.00    -0.270 OA
HETATM   10  H   UNL     1      41.681 -14.513  -0.023  1.00  0.00     0.169 HD
BRANCH   8  11
HETATM   11  C   UNL     1      41.052 -14.902   2.323  1.00  0.00     0.217 C 
HETATM   12  C   UNL     1      39.803 -15.775   2.380  1.00  0.00     0.050 C 
BRANCH  11  13
HETATM   13  O   UNL     1      42.074 -15.671   1.671  1.00  0.00    -0.337 OA
BRANCH  13  14
HETATM   14  C   UNL     1      42.704 -16.543   2.517  1.00  0.00     0.070 A 
HETATM   15  C   UNL     1      42.901 -17.843   2.053  1.00  0.00     0.043 A 
HETATM   16  C   UNL     1      43.543 -18.789   2.859  1.00  0.00    -0.059 A 
HETATM   17  C   UNL     1      43.756 -20.194   2.378  1.00  0.00     0.048 C 
HETATM   18  C   UNL     1      44.017 -18.401   4.119  1.00  0.00     0.013 A 
HETATM   19  C   UNL     1      43.846 -17.087   4.581  1.00  0.00    -0.059 A 
HETATM   20  C   UNL     1      43.192 -16.155   3.766  1.00  0.00     0.043 A 
HETATM   21  C   UNL     1      44.391 -16.690   5.922  1.00  0.00     0.048 C 
ENDBRANCH  13  14
ENDBRANCH  11  13
ENDBRANCH   8  11
ENDBRANCH   1   7
BRANCH   3  22
HETATM   22  C   UNL     1      41.717  -9.183  -1.824  1.00  0.00     0.181 A 
HETATM   23  O   UNL     1      41.087  -8.271  -2.635  1.00  0.00    -0.289 OA
HETATM   24  C   UNL     1      41.773  -7.113  -2.427  1.00  0.00     0.106 A 
HETATM   25  C   UNL     1      42.776  -7.372  -1.509  1.00  0.00     0.093 A 
HETATM   26  C   UNL     1      41.534  -5.876  -3.014  1.00  0.00     0.040 A 
HETATM   27  N   UNL     1      42.736  -8.692  -1.137  1.00  0.00    -0.221 NA
HETATM   28  C   UNL     1      43.625  -6.329  -1.121  1.00  0.00     0.034 A 
HETATM   29  C   UNL     1      43.417  -5.061  -1.688  1.00  0.00     0.002 A 
HETATM   30  C   UNL     1      42.392  -4.842  -2.617  1.00  0.00     0.003 A 
ENDBRANCH   3  22
TORSDOF 5
ENDMDL
MODEL 10
REMARK VINA RESULT:      -8.8      1.955      9.780
REMARK  5 active torsions:
REMARK  status: ('A' for Active; 'I' for Inactive)
REMARK    1  A    between atoms: C_4  and  O_5 
REMARK    2  A    between atoms: O_5  and  C_6 
REMARK    3  A    between atoms: C_6  and  C_7 
REMARK       I    between atoms: C_7  and  N_8 
REMARK    4  A    between atoms: N_8  and  C_9 
REMARK    5  A    between atoms: C_11  and  C_12 
ROOT
HETATM    1  C   UNL     1      41.623 -11.968   4.089  1.00  0.00     0.035 A 
HETATM    2  C   UNL     1      42.062 -11.675   5.384  1.00  0.00     0.045 A 
HETATM    3  C   UNL     1      42.114 -10.349   5.851  1.00  0.00     0.019 A 
HETATM    4  C   UNL     1      41.712  -9.317   4.991  1.00  0.00     0.016 A 
HETATM    5  C   UNL     1      41.266  -9.598   3.702  1.00  0.00     0.003 A 
HETATM    6  C   UNL     1      41.222 -10.919   3.254  1.00  0.00     0.029 A 
ENDROOT
BRANCH   1   7
HETATM    7  N   UNL     1      41.547 -13.271   3.561  1.00  0.00    -0.325 N 
HETATM    8  C   UNL     1      40.441 -13.918   3.036  1.00  0.00     0.251 C 
HETATM    9  O   UNL     1      39.301 -13.469   2.954  1.00  0.00    -0.270 OA
HETATM   10  H   UNL     1      42.388 -13.840   3.616  1.00  0.00     0.169 HD
BRANCH   8  11
HETATM   11  C   UNL     1      40.779 -15.307   2.470  1.00  0.00     0.217 C 
HETATM   12  C   UNL     1      39.973 -15.528   1.196  1.00  0.00     0.050 C 
BRANCH  11  13
HETATM   13  O   UNL     1      42.166 -15.401   2.112  1.00  0.00    -0.337 OA
BRANCH  13  14
HETATM   14  C   UNL     1      42.807 -16.437   2.737  1.00  0.00     0.070 A 
HETATM   15  C   UNL     1      43.295 -16.197   4.020  1.00  0.00     0.043 A 
HETATM   16  C   UNL     1      43.956 -17.210   4.723  1.00  0.00    -0.059 A 
HETATM   17  C   UNL     1      44.493 -16.966   6.103  1.00  0.00     0.048 C 
HETATM   18  C   UNL     1      44.086 -18.475   4.135  1.00  0.00     0.013 A 
HETATM   19  C   UNL     1      43.574 -18.730   2.854  1.00  0.00    -0.059 A 
HETATM   20  C   UNL     1      42.924 -17.703   2.160  1.00  0.00     0.043 A 
HETATM   21  C   UNL     1      43.700 -20.103   2.259  1.00  0.00     0.048 C 
ENDBRANCH  13  14
ENDBRANCH  11  13
ENDBRANCH   8  11
ENDBRANCH   1   7
BRANCH   3  22
HETATM   22  C   UNL     1      42.580 -10.022   7.197  1.00  0.00     0.181 A 
HETATM   23  O   UNL     1      41.651  -9.492   8.059  1.00  0.00    -0.289 OA
HETATM   24  C   UNL     1      42.346  -9.290   9.212  1.00  0.00     0.106 A 
HETATM   25  C   UNL     1      43.651  -9.703   9.000  1.00  0.00     0.093 A 
HETATM   26  C   UNL     1      41.864  -8.766  10.405  1.00  0.00     0.040 A 
HETATM   27  N   UNL     1      43.790 -10.160   7.714  1.00  0.00    -0.221 NA
HETATM   28  C   UNL     1      44.572  -9.602  10.049  1.00  0.00     0.034 A 
HETATM   29  C   UNL     1      44.126  -9.081  11.274  1.00  0.00     0.002 A 
HETATM   30  C   UNL     1      42.798  -8.670  11.446  1.00  0.00     0.003 A 
ENDBRANCH   3  22
TORSDOF 5
ENDMDL
