MODEL 1
REMARK VINA RESULT:      -8.7      0.000      0.000
REMARK  6 active torsions:
REMARK  status: ('A' for Active; 'I' for Inactive)
REMARK    1  A    between atoms: C_2  and  C_3 
REMARK    2  A    between atoms: C_2  and  C_9 
REMARK    3  A    between atoms: C_9  and  C_10 
REMARK    4  A    between atoms: C_10  and  C_11 
REMARK       I    between atoms: C_11  and  N_12 
REMARK    5  A    between atoms: N_12  and  C_13 
REMARK    6  A    between atoms: C_20  and  C_21 
REMARK       I    between atoms: C_21  and  N_22 
ROOT
HETATM    1  C   UNL     1      44.109 -11.845   6.456  1.00  0.00     0.035 A 
HETATM    2  C   UNL     1      43.385 -11.301   7.530  1.00  0.00     0.046 A 
HETATM    3  C   UNL     1      44.044 -10.505   8.491  1.00  0.00     0.030 A 
HETATM    4  C   UNL     1      45.406 -10.278   8.350  1.00  0.00     0.063 A 
HETATM    5  N   UNL     1      45.754  -9.486   9.408  1.00  0.00    -0.277 N 
HETATM    6  H   UNL     1      46.675  -9.121   9.622  1.00  0.00     0.189 HD
HETATM    7  N   UNL     1      44.737  -9.177  10.229  1.00  0.00    -0.168 NA
HETATM    8  C   UNL     1      43.673  -9.802   9.676  1.00  0.00     0.156 A 
HETATM    9  C   UNL     1      46.158 -10.803   7.298  1.00  0.00     0.034 A 
HETATM   10  C   UNL     1      45.481 -11.591   6.356  1.00  0.00     0.032 A 
ENDROOT
BRANCH   1  11
HETATM   11  N   UNL     1      43.384 -12.619   5.523  1.00  0.00    -0.327 N 
HETATM   12  C   UNL     1      43.196 -13.988   5.535  1.00  0.00     0.222 C 
HETATM   13  O   UNL     1      43.594 -14.774   6.388  1.00  0.00    -0.273 OA
HETATM   14  H   UNL     1      42.940 -12.101   4.774  1.00  0.00     0.169 HD
BRANCH  12  15
HETATM   15  C   UNL     1      42.413 -14.491   4.333  1.00  0.00     0.103 C 
BRANCH  15  16
HETATM   16  C   UNL     1      42.411 -16.020   4.264  1.00  0.00     0.018 C 
BRANCH  16  17
HETATM   17  C   UNL     1      43.425 -16.595   3.250  1.00  0.00     0.015 C 
HETATM   18  C   UNL     1      43.036 -16.197   1.821  1.00  0.00     0.015 C 
BRANCH  17  19
HETATM   19  C   UNL     1      43.574 -18.104   3.360  1.00  0.00    -0.054 A 
HETATM   20  C   UNL     1      44.009 -18.716   4.546  1.00  0.00     0.007 A 
HETATM   21  C   UNL     1      44.147 -20.102   4.624  1.00  0.00     0.001 A 
HETATM   22  C   UNL     1      43.847 -20.897   3.521  1.00  0.00     0.000 A 
HETATM   23  C   UNL     1      43.407 -20.305   2.338  1.00  0.00     0.001 A 
HETATM   24  C   UNL     1      43.270 -18.918   2.258  1.00  0.00     0.007 A 
ENDBRANCH  17  19
ENDBRANCH  16  17
ENDBRANCH  15  16
ENDBRANCH  12  15
ENDBRANCH   1  11
BRANCH   8  25
HETATM   25  C   UNL     1      42.336  -9.718  10.277  1.00  0.00     0.270 C 
HETATM   26  N   UNL     1      42.206 -10.412  11.449  1.00  0.00    -0.365 N 
HETATM   27  H   UNL     1      43.010 -10.915  11.806  1.00  0.00     0.159 HD
HETATM   28  H   UNL     1      41.325 -10.413  11.938  1.00  0.00     0.159 HD
HETATM   29  O   UNL     1      41.398  -9.090   9.797  1.00  0.00    -0.266 OA
ENDBRANCH   8  25
TORSDOF 6
ENDMDL
MODEL 2
REMARK VINA RESULT:      -8.7      5.055      8.255
REMARK  6 active torsions:
REMARK  status: ('A' for Active; 'I' for Inactive)
REMARK    1  A    between atoms: C_2  and  C_3 
REMARK    2  A    between atoms: C_2  and  C_9 
REMARK    3  A    between atoms: C_9  and  C_10 
REMARK    4  A    between atoms: C_10  and  C_11 
REMARK       I    between atoms: C_11  and  N_12 
REMARK    5  A    between atoms: N_12  and  C_13 
REMARK    6  A    between atoms: C_20  and  C_21 
REMARK       I    between atoms: C_21  and  N_22 
ROOT
HETATM    1  C   UNL     1      39.843 -13.210   2.039  1.00  0.00     0.035 A 
HETATM    2  C   UNL     1      39.848 -13.688   0.717  1.00  0.00     0.046 A 
HETATM    3  C   UNL     1      39.056 -13.052  -0.262  1.00  0.00     0.030 A 
HETATM    4  C   UNL     1      38.282 -11.961   0.109  1.00  0.00     0.063 A 
HETATM    5  N   UNL     1      37.642 -11.565  -1.032  1.00  0.00    -0.277 N 
HETATM    6  H   UNL     1      36.994 -10.791  -1.134  1.00  0.00     0.189 HD
HETATM    7  N   UNL     1      37.929 -12.304  -2.116  1.00  0.00    -0.168 NA
HETATM    8  C   UNL     1      38.801 -13.230  -1.655  1.00  0.00     0.156 A 
HETATM    9  C   UNL     1      38.250 -11.461   1.411  1.00  0.00     0.034 A 
HETATM   10  C   UNL     1      39.047 -12.109   2.367  1.00  0.00     0.032 A 
ENDROOT
BRANCH   1  11
HETATM   11  N   UNL     1      40.671 -13.884   2.964  1.00  0.00    -0.327 N 
HETATM   12  C   UNL     1      41.938 -13.520   3.378  1.00  0.00     0.222 C 
HETATM   13  O   UNL     1      42.557 -12.515   3.042  1.00  0.00    -0.273 OA
HETATM   14  H   UNL     1      40.274 -14.718   3.380  1.00  0.00     0.169 HD
BRANCH  12  15
HETATM   15  C   UNL     1      42.560 -14.520   4.338  1.00  0.00     0.103 C 
BRANCH  15  16
HETATM   16  C   UNL     1      42.294 -15.962   3.898  1.00  0.00     0.018 C 
BRANCH  16  17
HETATM   17  C   UNL     1      43.421 -16.561   3.028  1.00  0.00     0.015 C 
HETATM   18  C   UNL     1      43.200 -16.210   1.552  1.00  0.00     0.015 C 
BRANCH  17  19
HETATM   19  C   UNL     1      43.559 -18.066   3.202  1.00  0.00    -0.054 A 
HETATM   20  C   UNL     1      44.032 -18.628   4.399  1.00  0.00     0.007 A 
HETATM   21  C   UNL     1      44.159 -20.011   4.535  1.00  0.00     0.001 A 
HETATM   22  C   UNL     1      43.812 -20.851   3.481  1.00  0.00     0.000 A 
HETATM   23  C   UNL     1      43.335 -20.309   2.289  1.00  0.00     0.001 A 
HETATM   24  C   UNL     1      43.208 -18.926   2.150  1.00  0.00     0.007 A 
ENDBRANCH  17  19
ENDBRANCH  16  17
ENDBRANCH  15  16
ENDBRANCH  12  15
ENDBRANCH   1  11
BRANCH   8  25
HETATM   25  C   UNL     1      39.371 -14.254  -2.539  1.00  0.00     0.270 C 
HETATM   26  N   UNL     1      38.630 -15.402  -2.615  1.00  0.00    -0.365 N 
HETATM   27  H   UNL     1      37.774 -15.462  -2.078  1.00  0.00     0.159 HD
HETATM   28  H   UNL     1      38.940 -16.163  -3.199  1.00  0.00     0.159 HD
HETATM   29  O   UNL     1      40.416 -14.123  -3.168  1.00  0.00    -0.266 OA
ENDBRANCH   8  25
TORSDOF 6
ENDMDL
MODEL 3
REMARK VINA RESULT:      -8.5      2.176      4.003
REMARK  6 active torsions:
REMARK  status: ('A' for Active; 'I' for Inactive)
REMARK    1  A    between atoms: C_2  and  C_3 
REMARK    2  A    between atoms: C_2  and  C_9 
REMARK    3  A    between atoms: C_9  and  C_10 
REMARK    4  A    between atoms: C_10  and  C_11 
REMARK       I    between atoms: C_11  and  N_12 
REMARK    5  A    between atoms: N_12  and  C_13 
REMARK    6  A    between atoms: C_20  and  C_21 
REMARK       I    between atoms: C_21  and  N_22 
ROOT
HETATM    1  C   UNL     1      43.111 -14.297   5.735  1.00  0.00     0.035 A 
HETATM    2  C   UNL     1      43.958 -13.426   6.441  1.00  0.00     0.046 A 
HETATM    3  C   UNL     1      43.561 -12.091   6.668  1.00  0.00     0.030 A 
HETATM    4  C   UNL     1      42.332 -11.667   6.181  1.00  0.00     0.063 A 
HETATM    5  N   UNL     1      42.227 -10.356   6.553  1.00  0.00    -0.277 N 
HETATM    6  H   UNL     1      41.453  -9.727   6.367  1.00  0.00     0.189 HD
HETATM    7  N   UNL     1      43.282  -9.886   7.239  1.00  0.00    -0.168 NA
HETATM    8  C   UNL     1      44.116 -10.948   7.316  1.00  0.00     0.156 A 
HETATM    9  C   UNL     1      41.467 -12.503   5.474  1.00  0.00     0.034 A 
HETATM   10  C   UNL     1      41.883 -13.825   5.261  1.00  0.00     0.032 A 
ENDROOT
BRANCH   1  11
HETATM   11  N   UNL     1      43.564 -15.623   5.556  1.00  0.00    -0.327 N 
HETATM   12  C   UNL     1      43.059 -16.769   6.142  1.00  0.00     0.222 C 
HETATM   13  O   UNL     1      42.092 -16.842   6.894  1.00  0.00    -0.273 OA
HETATM   14  H   UNL     1      44.336 -15.740   4.910  1.00  0.00     0.169 HD
BRANCH  12  15
HETATM   15  C   UNL     1      43.839 -18.020   5.770  1.00  0.00     0.103 C 
BRANCH  15  16
HETATM   16  C   UNL     1      44.242 -18.012   4.293  1.00  0.00     0.018 C 
BRANCH  16  17
HETATM   17  C   UNL     1      43.063 -18.275   3.330  1.00  0.00     0.015 C 
HETATM   18  C   UNL     1      43.463 -19.303   2.264  1.00  0.00     0.015 C 
BRANCH  17  19
HETATM   19  C   UNL     1      42.547 -17.003   2.674  1.00  0.00    -0.054 A 
HETATM   20  C   UNL     1      41.185 -16.661   2.705  1.00  0.00     0.007 A 
HETATM   21  C   UNL     1      40.730 -15.493   2.091  1.00  0.00     0.001 A 
HETATM   22  C   UNL     1      41.628 -14.651   1.441  1.00  0.00     0.000 A 
HETATM   23  C   UNL     1      42.983 -14.973   1.408  1.00  0.00     0.001 A 
HETATM   24  C   UNL     1      43.441 -16.141   2.021  1.00  0.00     0.007 A 
ENDBRANCH  17  19
ENDBRANCH  16  17
ENDBRANCH  15  16
ENDBRANCH  12  15
ENDBRANCH   1  11
BRANCH   8  25
HETATM   25  C   UNL     1      45.412 -10.856   8.000  1.00  0.00     0.270 C 
HETATM   26  N   UNL     1      46.482 -10.732   7.156  1.00  0.00    -0.365 N 
HETATM   27  H   UNL     1      46.312 -10.712   6.158  1.00  0.00     0.159 HD
HETATM   28  H   UNL     1      47.414 -10.660   7.533  1.00  0.00     0.159 HD
HETATM   29  O   UNL     1      45.557 -10.885   9.218  1.00  0.00    -0.266 OA
ENDBRANCH   8  25
TORSDOF 6
ENDMDL
MODEL 4
REMARK VINA RESULT:      -8.4      1.813      2.169
REMARK  6 active torsions:
REMARK  status: ('A' for Active; 'I' for Inactive)
REMARK    1  A    between atoms: C_2  and  C_3 
REMARK    2  A    between atoms: C_2  and  C_9 
REMARK    3  A    between atoms: C_9  and  C_10 
REMARK    4  A    between atoms: C_10  and  C_11 
REMARK       I    between atoms: C_11  and  N_12 
REMARK    5  A    between atoms: N_12  and  C_13 
REMARK    6  A    between atoms: C_20  and  C_21 
REMARK       I    between atoms: C_21  and  N_22 
ROOT
HETATM    1  C   UNL     1      43.526 -12.006   6.855  1.00  0.00     0.035 A 
HETATM    2  C   UNL     1      43.297 -10.760   7.463  1.00  0.00     0.046 A 
HETATM    3  C   UNL     1      44.381  -9.895   7.722  1.00  0.00     0.030 A 
HETATM    4  C   UNL     1      45.660 -10.302   7.366  1.00  0.00     0.063 A 
HETATM    5  N   UNL     1      46.483  -9.274   7.729  1.00  0.00    -0.277 N 
HETATM    6  H   UNL     1      47.490  -9.225   7.615  1.00  0.00     0.189 HD
HETATM    7  N   UNL     1      45.853  -8.230   8.294  1.00  0.00    -0.168 NA
HETATM    8  C   UNL     1      44.553  -8.601   8.298  1.00  0.00     0.156 A 
HETATM    9  C   UNL     1      45.925 -11.532   6.763  1.00  0.00     0.034 A 
HETATM   10  C   UNL     1      44.831 -12.375   6.516  1.00  0.00     0.032 A 
ENDROOT
BRANCH   1  11
HETATM   11  N   UNL     1      42.393 -12.815   6.613  1.00  0.00    -0.327 N 
HETATM   12  C   UNL     1      41.546 -12.769   5.522  1.00  0.00     0.222 C 
HETATM   13  O   UNL     1      41.654 -12.038   4.542  1.00  0.00    -0.273 OA
HETATM   14  H   UNL     1      42.198 -13.519   7.316  1.00  0.00     0.169 HD
BRANCH  12  15
HETATM   15  C   UNL     1      40.388 -13.748   5.627  1.00  0.00     0.103 C 
BRANCH  15  16
HETATM   16  C   UNL     1      40.844 -15.187   5.366  1.00  0.00     0.018 C 
BRANCH  16  17
HETATM   17  C   UNL     1      41.340 -15.426   3.923  1.00  0.00     0.015 C 
HETATM   18  C   UNL     1      40.154 -15.688   2.987  1.00  0.00     0.015 C 
BRANCH  17  19
HETATM   19  C   UNL     1      42.350 -16.560   3.831  1.00  0.00    -0.054 A 
HETATM   20  C   UNL     1      43.188 -16.887   4.909  1.00  0.00     0.007 A 
HETATM   21  C   UNL     1      44.114 -17.926   4.801  1.00  0.00     0.001 A 
HETATM   22  C   UNL     1      44.214 -18.652   3.618  1.00  0.00     0.000 A 
HETATM   23  C   UNL     1      43.385 -18.343   2.541  1.00  0.00     0.001 A 
HETATM   24  C   UNL     1      42.458 -17.304   2.646  1.00  0.00     0.007 A 
ENDBRANCH  17  19
ENDBRANCH  16  17
ENDBRANCH  15  16
ENDBRANCH  12  15
ENDBRANCH   1  11
BRANCH   8  25
HETATM   25  C   UNL     1      43.507  -7.726   8.842  1.00  0.00     0.270 C 
HETATM   26  N   UNL     1      43.166  -8.002  10.138  1.00  0.00    -0.365 N 
HETATM   27  H   UNL     1      43.640  -8.760  10.613  1.00  0.00     0.159 HD
HETATM   28  H   UNL     1      42.458  -7.453  10.599  1.00  0.00     0.159 HD
HETATM   29  O   UNL     1      42.967  -6.819   8.217  1.00  0.00    -0.266 OA
ENDBRANCH   8  25
TORSDOF 6
ENDMDL
MODEL 5
REMARK VINA RESULT:      -8.4      1.321      1.812
REMARK  6 active torsions:
REMARK  status: ('A' for Active; 'I' for Inactive)
REMARK    1  A    between atoms: C_2  and  C_3 
REMARK    2  A    between atoms: C_2  and  C_9 
REMARK    3  A    between atoms: C_9  and  C_10 
REMARK    4  A    between atoms: C_10  and  C_11 
REMARK       I    between atoms: C_11  and  N_12 
REMARK    5  A    between atoms: N_12  and  C_13 
REMARK    6  A    between atoms: C_20  and  C_21 
REMARK       I    between atoms: C_21  and  N_22 
ROOT
HETATM    1  C   UNL     1      44.226 -11.652   6.427  1.00  0.00     0.035 A 
HETATM    2  C   UNL     1      43.414 -11.077   7.420  1.00  0.00     0.046 A 
HETATM    3  C   UNL     1      44.003 -10.342   8.470  1.00  0.00     0.030 A 
HETATM    4  C   UNL     1      45.384 -10.206   8.498  1.00  0.00     0.063 A 
HETATM    5  N   UNL     1      45.653  -9.455   9.608  1.00  0.00    -0.277 N 
HETATM    6  H   UNL     1      46.563  -9.156   9.939  1.00  0.00     0.189 HD
HETATM    7  N   UNL     1      44.566  -9.090  10.309  1.00  0.00    -0.168 NA
HETATM    8  C   UNL     1      43.538  -9.634   9.618  1.00  0.00     0.156 A 
HETATM    9  C   UNL     1      46.222 -10.765   7.532  1.00  0.00     0.034 A 
HETATM   10  C   UNL     1      45.613 -11.490   6.497  1.00  0.00     0.032 A 
ENDROOT
BRANCH   1  11
HETATM   11  N   UNL     1      43.569 -12.362   5.397  1.00  0.00    -0.327 N 
HETATM   12  C   UNL     1      43.622 -12.111   4.039  1.00  0.00     0.222 C 
HETATM   13  O   UNL     1      44.288 -11.245   3.480  1.00  0.00    -0.273 OA
HETATM   14  H   UNL     1      43.013 -13.154   5.696  1.00  0.00     0.169 HD
BRANCH  12  15
HETATM   15  C   UNL     1      42.733 -13.040   3.228  1.00  0.00     0.103 C 
BRANCH  15  16
HETATM   16  C   UNL     1      42.543 -14.388   3.928  1.00  0.00     0.018 C 
BRANCH  16  17
HETATM   17  C   UNL     1      42.162 -15.536   2.967  1.00  0.00     0.015 C 
HETATM   18  C   UNL     1      40.646 -15.768   2.986  1.00  0.00     0.015 C 
BRANCH  17  19
HETATM   19  C   UNL     1      42.902 -16.828   3.274  1.00  0.00    -0.054 A 
HETATM   20  C   UNL     1      42.943 -17.889   2.355  1.00  0.00     0.007 A 
HETATM   21  C   UNL     1      43.621 -19.070   2.660  1.00  0.00     0.001 A 
HETATM   22  C   UNL     1      44.270 -19.206   3.884  1.00  0.00     0.000 A 
HETATM   23  C   UNL     1      44.244 -18.160   4.804  1.00  0.00     0.001 A 
HETATM   24  C   UNL     1      43.566 -16.978   4.502  1.00  0.00     0.007 A 
ENDBRANCH  17  19
ENDBRANCH  16  17
ENDBRANCH  15  16
ENDBRANCH  12  15
ENDBRANCH   1  11
BRANCH   8  25
HETATM   25  C   UNL     1      42.147  -9.469  10.058  1.00  0.00     0.270 C 
HETATM   26  N   UNL     1      41.832 -10.169  11.190  1.00  0.00    -0.365 N 
HETATM   27  H   UNL     1      42.552 -10.730  11.629  1.00  0.00     0.159 HD
HETATM   28  H   UNL     1      40.900 -10.117  11.570  1.00  0.00     0.159 HD
HETATM   29  O   UNL     1      41.317  -8.772   9.483  1.00  0.00    -0.266 OA
ENDBRANCH   8  25
TORSDOF 6
ENDMDL
MODEL 6
REMARK VINA RESULT:      -8.1      4.009      7.313
REMARK  6 active torsions:
REMARK  status: ('A' for Active; 'I' for Inactive)
REMARK    1  A    between atoms: C_2  and  C_3 
REMARK    2  A    between atoms: C_2  and  C_9 
REMARK    3  A    between atoms: C_9  and  C_10 
REMARK    4  A    between atoms: C_10  and  C_11 
REMARK       I    between atoms: C_11  and  N_12 
REMARK    5  A    between atoms: N_12  and  C_13 
REMARK    6  A    between atoms: C_20  and  C_21 
REMARK       I    between atoms: C_21  and  N_22 
ROOT
HETATM    1  C   UNL     1      42.476 -16.248   2.470  1.00  0.00     0.035 A 
HETATM    2  C   UNL     1      42.248 -16.058   3.844  1.00  0.00     0.046 A 
HETATM    3  C   UNL     1      42.797 -16.962   4.778  1.00  0.00     0.030 A 
HETATM    4  C   UNL     1      43.554 -18.028   4.311  1.00  0.00     0.063 A 
HETATM    5  N   UNL     1      43.945 -18.712   5.428  1.00  0.00    -0.277 N 
HETATM    6  H   UNL     1      44.517 -19.549   5.464  1.00  0.00     0.189 HD
HETATM    7  N   UNL     1      43.507 -18.187   6.584  1.00  0.00    -0.168 NA
HETATM    8  C   UNL     1      42.793 -17.105   6.197  1.00  0.00     0.156 A 
HETATM    9  C   UNL     1      43.799 -18.249   2.955  1.00  0.00     0.034 A 
HETATM   10  C   UNL     1      43.244 -17.337   2.046  1.00  0.00     0.032 A 
ENDROOT
BRANCH   1  11
HETATM   11  N   UNL     1      41.910 -15.297   1.592  1.00  0.00    -0.327 N 
HETATM   12  C   UNL     1      40.606 -15.246   1.136  1.00  0.00     0.222 C 
HETATM   13  O   UNL     1      39.691 -16.001   1.451  1.00  0.00    -0.273 OA
HETATM   14  H   UNL     1      42.534 -14.563   1.279  1.00  0.00     0.169 HD
BRANCH  12  15
HETATM   15  C   UNL     1      40.365 -14.118   0.146  1.00  0.00     0.103 C 
BRANCH  15  16
HETATM   16  C   UNL     1      40.824 -12.770   0.709  1.00  0.00     0.018 C 
BRANCH  16  17
HETATM   17  C   UNL     1      39.905 -12.221   1.823  1.00  0.00     0.015 C 
HETATM   18  C   UNL     1      39.581 -10.744   1.568  1.00  0.00     0.015 C 
BRANCH  17  19
HETATM   19  C   UNL     1      40.496 -12.403   3.213  1.00  0.00    -0.054 A 
HETATM   20  C   UNL     1      41.865 -12.214   3.461  1.00  0.00     0.007 A 
HETATM   21  C   UNL     1      42.388 -12.395   4.742  1.00  0.00     0.001 A 
HETATM   22  C   UNL     1      41.552 -12.762   5.793  1.00  0.00     0.000 A 
HETATM   23  C   UNL     1      40.189 -12.946   5.564  1.00  0.00     0.001 A 
HETATM   24  C   UNL     1      39.664 -12.767   4.283  1.00  0.00     0.007 A 
ENDBRANCH  17  19
ENDBRANCH  16  17
ENDBRANCH  15  16
ENDBRANCH  12  15
ENDBRANCH   1  11
BRANCH   8  25
HETATM   25  C   UNL     1      42.130 -16.234   7.176  1.00  0.00     0.270 C 
HETATM   26  N   UNL     1      42.962 -15.752   8.149  1.00  0.00    -0.365 N 
HETATM   27  H   UNL     1      43.939 -16.018   8.127  1.00  0.00     0.159 HD
HETATM   28  H   UNL     1      42.599 -15.143   8.866  1.00  0.00     0.159 HD
HETATM   29  O   UNL     1      40.938 -15.946   7.152  1.00  0.00    -0.266 OA
ENDBRANCH   8  25
TORSDOF 6
ENDMDL
MODEL 7
REMARK VINA RESULT:      -7.9      6.255      9.305
REMARK  6 active torsions:
REMARK  status: ('A' for Active; 'I' for Inactive)
REMARK    1  A    between atoms: C_2  and  C_3 
REMARK    2  A    between atoms: C_2  and  C_9 
REMARK    3  A    between atoms: C_9  and  C_10 
REMARK    4  A    between atoms: C_10  and  C_11 
REMARK       I    between atoms: C_11  and  N_12 
REMARK    5  A    between atoms: N_12  and  C_13 
REMARK    6  A    between atoms: C_20  and  C_21 
REMARK       I    between atoms: C_21  and  N_22 
ROOT
HETATM    1  C   UNL     1      39.705 -14.001  -1.093  1.00  0.00     0.035 A 
HETATM    2  C   UNL     1      39.141 -12.740  -0.837  1.00  0.00     0.046 A 
HETATM    3  C   UNL     1      38.093 -12.260  -1.650  1.00  0.00     0.030 A 
HETATM    4  C   UNL     1      37.640 -13.055  -2.694  1.00  0.00     0.063 A 
HETATM    5  N   UNL     1      36.638 -12.340  -3.287  1.00  0.00    -0.277 N 
HETATM    6  H   UNL     1      36.077 -12.617  -4.085  1.00  0.00     0.189 HD
HETATM    7  N   UNL     1      36.397 -11.145  -2.721  1.00  0.00    -0.168 NA
HETATM    8  C   UNL     1      37.291 -11.082  -1.708  1.00  0.00     0.156 A 
HETATM    9  C   UNL     1      38.177 -14.311  -2.980  1.00  0.00     0.034 A 
HETATM   10  C   UNL     1      39.218 -14.766  -2.158  1.00  0.00     0.032 A 
ENDROOT
BRANCH   1  11
HETATM   11  N   UNL     1      40.741 -14.425  -0.231  1.00  0.00    -0.327 N 
HETATM   12  C   UNL     1      40.640 -15.293   0.840  1.00  0.00     0.222 C 
HETATM   13  O   UNL     1      39.631 -15.887   1.208  1.00  0.00    -0.273 OA
HETATM   14  H   UNL     1      41.662 -14.060  -0.441  1.00  0.00     0.169 HD
BRANCH  12  15
HETATM   15  C   UNL     1      41.952 -15.471   1.586  1.00  0.00     0.103 C 
BRANCH  15  16
HETATM   16  C   UNL     1      41.912 -16.694   2.507  1.00  0.00     0.018 C 
BRANCH  16  17
HETATM   17  C   UNL     1      43.265 -17.000   3.187  1.00  0.00     0.015 C 
HETATM   18  C   UNL     1      43.697 -18.441   2.892  1.00  0.00     0.015 C 
BRANCH  17  19
HETATM   19  C   UNL     1      43.238 -16.749   4.687  1.00  0.00    -0.054 A 
HETATM   20  C   UNL     1      44.398 -16.854   5.471  1.00  0.00     0.007 A 
HETATM   21  C   UNL     1      44.350 -16.628   6.847  1.00  0.00     0.001 A 
HETATM   22  C   UNL     1      43.145 -16.291   7.458  1.00  0.00     0.000 A 
HETATM   23  C   UNL     1      41.987 -16.177   6.692  1.00  0.00     0.001 A 
HETATM   24  C   UNL     1      42.032 -16.403   5.315  1.00  0.00     0.007 A 
ENDBRANCH  17  19
ENDBRANCH  16  17
ENDBRANCH  15  16
ENDBRANCH  12  15
ENDBRANCH   1  11
BRANCH   8  25
HETATM   25  C   UNL     1      37.363  -9.913  -0.822  1.00  0.00     0.270 C 
HETATM   26  N   UNL     1      36.178  -9.596  -0.217  1.00  0.00    -0.365 N 
HETATM   27  H   UNL     1      35.365 -10.168  -0.415  1.00  0.00     0.159 HD
HETATM   28  H   UNL     1      36.128  -8.810   0.411  1.00  0.00     0.159 HD
HETATM   29  O   UNL     1      38.381  -9.258  -0.620  1.00  0.00    -0.266 OA
ENDBRANCH   8  25
TORSDOF 6
ENDMDL
MODEL 8
REMARK VINA RESULT:      -7.9      5.983      9.005
REMARK  6 active torsions:
REMARK  status: ('A' for Active; 'I' for Inactive)
REMARK    1  A    between atoms: C_2  and  C_3 
REMARK    2  A    between atoms: C_2  and  C_9 
REMARK    3  A    between atoms: C_9  and  C_10 
REMARK    4  A    between atoms: C_10  and  C_11 
REMARK       I    between atoms: C_11  and  N_12 
REMARK    5  A    between atoms: N_12  and  C_13 
REMARK    6  A    between atoms: C_20  and  C_21 
REMARK       I    between atoms: C_21  and  N_22 
ROOT
HETATM    1  C   UNL     1      40.651 -13.218  -0.561  1.00  0.00     0.035 A 
HETATM    2  C   UNL     1      40.936 -12.026  -1.250  1.00  0.00     0.046 A 
HETATM    3  C   UNL     1      39.991 -11.491  -2.150  1.00  0.00     0.030 A 
HETATM    4  C   UNL     1      38.790 -12.163  -2.336  1.00  0.00     0.063 A 
HETATM    5  N   UNL     1      38.092 -11.417  -3.244  1.00  0.00    -0.277 N 
HETATM    6  H   UNL     1      37.167 -11.608  -3.612  1.00  0.00     0.189 HD
HETATM    7  N   UNL     1      38.735 -10.316  -3.669  1.00  0.00    -0.168 NA
HETATM    8  C   UNL     1      39.911 -10.350  -3.003  1.00  0.00     0.156 A 
HETATM    9  C   UNL     1      38.473 -13.348  -1.671  1.00  0.00     0.034 A 
HETATM   10  C   UNL     1      39.429 -13.860  -0.781  1.00  0.00     0.032 A 
ENDROOT
BRANCH   1  11
HETATM   11  N   UNL     1      41.635 -13.689   0.335  1.00  0.00    -0.327 N 
HETATM   12  C   UNL     1      41.792 -13.349   1.665  1.00  0.00     0.222 C 
HETATM   13  O   UNL     1      41.070 -12.603   2.320  1.00  0.00    -0.273 OA
HETATM   14  H   UNL     1      42.287 -14.366  -0.045  1.00  0.00     0.169 HD
BRANCH  12  15
HETATM   15  C   UNL     1      43.005 -14.002   2.307  1.00  0.00     0.103 C 
BRANCH  15  16
HETATM   16  C   UNL     1      42.677 -14.549   3.700  1.00  0.00     0.018 C 
BRANCH  16  17
HETATM   17  C   UNL     1      41.803 -15.822   3.673  1.00  0.00     0.015 C 
HETATM   18  C   UNL     1      40.978 -15.930   4.960  1.00  0.00     0.015 C 
BRANCH  17  19
HETATM   19  C   UNL     1      42.618 -17.088   3.455  1.00  0.00    -0.054 A 
HETATM   20  C   UNL     1      42.429 -17.899   2.325  1.00  0.00     0.007 A 
HETATM   21  C   UNL     1      43.181 -19.061   2.148  1.00  0.00     0.001 A 
HETATM   22  C   UNL     1      44.134 -19.427   3.095  1.00  0.00     0.000 A 
HETATM   23  C   UNL     1      44.337 -18.629   4.219  1.00  0.00     0.001 A 
HETATM   24  C   UNL     1      43.585 -17.467   4.399  1.00  0.00     0.007 A 
ENDBRANCH  17  19
ENDBRANCH  16  17
ENDBRANCH  15  16
ENDBRANCH  12  15
ENDBRANCH   1  11
BRANCH   8  25
HETATM   25  C   UNL     1      40.927  -9.306  -3.187  1.00  0.00     0.270 C 
HETATM   26  N   UNL     1      41.256  -9.071  -4.493  1.00  0.00    -0.365 N 
HETATM   27  H   UNL     1      40.795  -9.612  -5.215  1.00  0.00     0.159 HD
HETATM   28  H   UNL     1      41.944  -8.369  -4.720  1.00  0.00     0.159 HD
HETATM   29  O   UNL     1      41.452  -8.681  -2.271  1.00  0.00    -0.266 OA
ENDBRANCH   8  25
TORSDOF 6
ENDMDL
MODEL 9
REMARK VINA RESULT:      -7.9      2.166      2.805
REMARK  6 active torsions:
REMARK  status: ('A' for Active; 'I' for Inactive)
REMARK    1  A    between atoms: C_2  and  C_3 
REMARK    2  A    between atoms: C_2  and  C_9 
REMARK    3  A    between atoms: C_9  and  C_10 
REMARK    4  A    between atoms: C_10  and  C_11 
REMARK       I    between atoms: C_11  and  N_12 
REMARK    5  A    between atoms: N_12  and  C_13 
REMARK    6  A    between atoms: C_20  and  C_21 
REMARK       I    between atoms: C_21  and  N_22 
ROOT
HETATM    1  C   UNL     1      42.274 -13.511   5.098  1.00  0.00     0.035 A 
HETATM    2  C   UNL     1      41.867 -12.211   5.441  1.00  0.00     0.046 A 
HETATM    3  C   UNL     1      42.585 -11.484   6.414  1.00  0.00     0.030 A 
HETATM    4  C   UNL     1      43.685 -12.080   7.016  1.00  0.00     0.063 A 
HETATM    5  N   UNL     1      44.167 -11.150   7.894  1.00  0.00    -0.277 N 
HETATM    6  H   UNL     1      44.971 -11.243   8.505  1.00  0.00     0.189 HD
HETATM    7  N   UNL     1      43.475  -9.998   7.920  1.00  0.00    -0.168 NA
HETATM    8  C   UNL     1      42.492 -10.192   7.011  1.00  0.00     0.156 A 
HETATM    9  C   UNL     1      44.117 -13.369   6.702  1.00  0.00     0.034 A 
HETATM   10  C   UNL     1      43.388 -14.071   5.731  1.00  0.00     0.032 A 
ENDROOT
BRANCH   1  11
HETATM   11  N   UNL     1      41.519 -14.176   4.106  1.00  0.00    -0.327 N 
HETATM   12  C   UNL     1      40.811 -15.355   4.238  1.00  0.00     0.222 C 
HETATM   13  O   UNL     1      40.677 -16.017   5.262  1.00  0.00    -0.273 OA
HETATM   14  H   UNL     1      41.484 -13.719   3.202  1.00  0.00     0.169 HD
BRANCH  12  15
HETATM   15  C   UNL     1      40.168 -15.812   2.939  1.00  0.00     0.103 C 
BRANCH  15  16
HETATM   16  C   UNL     1      41.159 -16.585   2.064  1.00  0.00     0.018 C 
BRANCH  16  17
HETATM   17  C   UNL     1      42.608 -16.559   2.600  1.00  0.00     0.015 C 
HETATM   18  C   UNL     1      43.544 -15.904   1.577  1.00  0.00     0.015 C 
BRANCH  17  19
HETATM   19  C   UNL     1      43.118 -17.940   2.979  1.00  0.00    -0.054 A 
HETATM   20  C   UNL     1      43.006 -19.031   2.102  1.00  0.00     0.007 A 
HETATM   21  C   UNL     1      43.473 -20.293   2.473  1.00  0.00     0.001 A 
HETATM   22  C   UNL     1      44.061 -20.482   3.721  1.00  0.00     0.000 A 
HETATM   23  C   UNL     1      44.186 -19.407   4.599  1.00  0.00     0.001 A 
HETATM   24  C   UNL     1      43.718 -18.144   4.231  1.00  0.00     0.007 A 
ENDBRANCH  17  19
ENDBRANCH  16  17
ENDBRANCH  15  16
ENDBRANCH  12  15
ENDBRANCH   1  11
BRANCH   8  25
HETATM   25  C   UNL     1      41.493  -9.153   6.729  1.00  0.00     0.270 C 
HETATM   26  N   UNL     1      40.289  -9.353   7.346  1.00  0.00    -0.365 N 
HETATM   27  H   UNL     1      40.174 -10.172   7.931  1.00  0.00     0.159 HD
HETATM   28  H   UNL     1      39.540  -8.692   7.214  1.00  0.00     0.159 HD
HETATM   29  O   UNL     1      41.690  -8.179   6.009  1.00  0.00    -0.266 OA
ENDBRANCH   8  25
TORSDOF 6
ENDMDL
MODEL 10
REMARK VINA RESULT:      -7.8      3.314      9.530
REMARK  6 active torsions:
REMARK  status: ('A' for Active; 'I' for Inactive)
REMARK    1  A    between atoms: C_2  and  C_3 
REMARK    2  A    between atoms: C_2  and  C_9 
REMARK    3  A    between atoms: C_9  and  C_10 
REMARK    4  A    between atoms: C_10  and  C_11 
REMARK       I    between atoms: C_11  and  N_12 
REMARK    5  A    between atoms: N_12  and  C_13 
REMARK    6  A    between atoms: C_20  and  C_21 
REMARK       I    between atoms: C_21  and  N_22 
ROOT
HETATM    1  C   UNL     1      42.050 -12.803   5.308  1.00  0.00     0.035 A 
HETATM    2  C   UNL     1      42.266 -13.857   4.404  1.00  0.00     0.046 A 
HETATM    3  C   UNL     1      41.230 -14.262   3.536  1.00  0.00     0.030 A 
HETATM    4  C   UNL     1      40.010 -13.603   3.600  1.00  0.00     0.063 A 
HETATM    5  N   UNL     1      39.224 -14.202   2.656  1.00  0.00    -0.277 N 
HETATM    6  H   UNL     1      38.264 -13.974   2.423  1.00  0.00     0.189 HD
HETATM    7  N   UNL     1      39.824 -15.198   1.983  1.00  0.00    -0.168 NA
HETATM    8  C   UNL     1      41.065 -15.247   2.518  1.00  0.00     0.156 A 
HETATM    9  C   UNL     1      39.758 -12.555   4.486  1.00  0.00     0.034 A 
HETATM   10  C   UNL     1      40.803 -12.170   5.338  1.00  0.00     0.032 A 
ENDROOT
BRANCH   1  11
HETATM   11  N   UNL     1      43.135 -12.440   6.137  1.00  0.00    -0.327 N 
HETATM   12  C   UNL     1      44.266 -11.733   5.777  1.00  0.00     0.222 C 
HETATM   13  O   UNL     1      44.511 -11.256   4.674  1.00  0.00    -0.273 OA
HETATM   14  H   UNL     1      43.057 -12.718   7.108  1.00  0.00     0.169 HD
BRANCH  12  15
HETATM   15  C   UNL     1      45.260 -11.581   6.917  1.00  0.00     0.103 C 
BRANCH  15  16
HETATM   16  C   UNL     1      44.612 -10.934   8.145  1.00  0.00     0.018 C 
BRANCH  16  17
HETATM   17  C   UNL     1      44.822  -9.405   8.221  1.00  0.00     0.015 C 
HETATM   18  C   UNL     1      46.317  -9.069   8.173  1.00  0.00     0.015 C 
BRANCH  17  19
HETATM   19  C   UNL     1      44.176  -8.786   9.451  1.00  0.00    -0.054 A 
HETATM   20  C   UNL     1      44.310  -9.365  10.722  1.00  0.00     0.007 A 
HETATM   21  C   UNL     1      43.702  -8.785  11.837  1.00  0.00     0.001 A 
HETATM   22  C   UNL     1      42.956  -7.618  11.697  1.00  0.00     0.000 A 
HETATM   23  C   UNL     1      42.820  -7.027  10.442  1.00  0.00     0.001 A 
HETATM   24  C   UNL     1      43.426  -7.606   9.326  1.00  0.00     0.007 A 
ENDBRANCH  17  19
ENDBRANCH  16  17
ENDBRANCH  15  16
ENDBRANCH  12  15
ENDBRANCH   1  11
BRANCH   8  25
HETATM   25  C   UNL     1      42.062 -16.220   2.054  1.00  0.00     0.270 C 
HETATM   26  N   UNL     1      42.956 -15.715   1.148  1.00  0.00    -0.365 N 
HETATM   27  H   UNL     1      42.871 -14.744   0.873  1.00  0.00     0.159 HD
HETATM   28  H   UNL     1      43.680 -16.307   0.773  1.00  0.00     0.159 HD
HETATM   29  O   UNL     1      42.117 -17.388   2.425  1.00  0.00    -0.266 OA
ENDBRANCH   8  25
TORSDOF 6
ENDMDL
