MODEL 1
REMARK VINA RESULT:      -7.9      0.000      0.000
REMARK  7 active torsions:
REMARK  status: ('A' for Active; 'I' for Inactive)
REMARK    1  A    between atoms: C_2  and  C_3 
REMARK    2  A    between atoms: C_3  and  N_4 
REMARK    3  A    between atoms: C_7  and  C_8 
REMARK       I    between atoms: C_8  and  N_9 
REMARK    4  A    between atoms: N_9  and  C_10 
REMARK    5  A    between atoms: C_11  and  O_12 
REMARK    6  A    between atoms: C_16  and  C_17 
REMARK       I    between atoms: C_17  and  N_18 
REMARK    7  A    between atoms: C_23  and  C_24 
ROOT
HETATM    1  C   UNL     1      40.705 -15.518   1.741  1.00  0.00     0.259 C 
HETATM    2  N   UNL     1      42.025 -15.886   1.591  1.00  0.00    -0.320 N 
HETATM    3  O   UNL     1      39.896 -16.050   2.493  1.00  0.00    -0.267 OA
HETATM    4  H   UNL     1      42.534 -15.553   0.777  1.00  0.00     0.169 HD
ENDROOT
BRANCH   2   5
HETATM    5  C   UNL     1      42.754 -16.734   2.457  1.00  0.00     0.069 A 
HETATM    6  C   UNL     1      43.286 -16.182   3.638  1.00  0.00     0.095 A 
HETATM    7  C   UNL     1      43.985 -17.007   4.526  1.00  0.00     0.040 A 
HETATM    8  C   UNL     1      44.154 -18.367   4.241  1.00  0.00     0.020 A 
HETATM    9  C   UNL     1      43.625 -18.916   3.069  1.00  0.00     0.034 A 
HETATM   10  C   UNL     1      42.901 -18.101   2.198  1.00  0.00     0.049 A 
BRANCH   6  11
HETATM   11  O   UNL     1      43.057 -14.840   3.824  1.00  0.00    -0.354 OA
HETATM   12  C   UNL     1      42.726 -14.421   5.143  1.00  0.00     0.210 C 
ENDBRANCH   6  11
BRANCH   9  13
HETATM   13  C   UNL     1      43.758 -20.375   2.842  1.00  0.00     0.251 C 
HETATM   14  N   UNL     1      43.968 -21.243   3.885  1.00  0.00    -0.361 N 
HETATM   15  C   UNL     1      43.861 -21.008   5.309  1.00  0.00     0.149 C 
HETATM   16  H   UNL     1      44.084 -22.202   3.579  1.00  0.00     0.162 HD
HETATM   17  O   UNL     1      43.676 -20.814   1.697  1.00  0.00    -0.268 OA
ENDBRANCH   9  13
ENDBRANCH   2   5
BRANCH   1  18
HETATM   18  C   UNL     1      40.314 -14.421   0.888  1.00  0.00     0.076 C 
HETATM   19  C   UNL     1      39.868 -14.508  -0.447  1.00  0.00     0.158 C 
HETATM   20  N   UNL     1      39.513 -13.326  -0.950  1.00  0.00    -0.183 NA
HETATM   21  N   UNL     1      39.648 -12.480   0.096  1.00  0.00    -0.268 N 
HETATM   22  C   UNL     1      40.239 -13.069   1.194  1.00  0.00     0.052 C 
BRANCH  21  23
HETATM   23  C   UNL     1      39.129 -11.119  -0.018  1.00  0.00     0.106 C 
HETATM   24  C   UNL     1      39.872 -10.350  -1.111  1.00  0.00     0.034 C 
BRANCH  23  25
HETATM   25  C   UNL     1      37.604 -11.072  -0.245  1.00  0.00     0.022 C 
HETATM   26  C   UNL     1      36.808 -11.150   1.053  1.00  0.00     0.007 C 
ENDBRANCH  23  25
ENDBRANCH  21  23
BRANCH  22  27
HETATM   27  C   UNL     1      40.683 -12.326   2.456  1.00  0.00     0.038 A 
HETATM   28  C   UNL     1      39.876 -11.181   3.018  1.00  0.00     0.011 A 
HETATM   29  C   UNL     1      39.886 -12.488   3.733  1.00  0.00     0.011 A 
ENDBRANCH  22  27
ENDBRANCH   1  18
TORSDOF 7
ENDMDL
MODEL 2
REMARK VINA RESULT:      -7.6      2.475      7.954
REMARK  7 active torsions:
REMARK  status: ('A' for Active; 'I' for Inactive)
REMARK    1  A    between atoms: C_2  and  C_3 
REMARK    2  A    between atoms: C_3  and  N_4 
REMARK    3  A    between atoms: C_7  and  C_8 
REMARK       I    between atoms: C_8  and  N_9 
REMARK    4  A    between atoms: N_9  and  C_10 
REMARK    5  A    between atoms: C_11  and  O_12 
REMARK    6  A    between atoms: C_16  and  C_17 
REMARK       I    between atoms: C_17  and  N_18 
REMARK    7  A    between atoms: C_23  and  C_24 
ROOT
HETATM    1  C   UNL     1      42.114 -14.939   4.729  1.00  0.00     0.259 C 
HETATM    2  N   UNL     1      42.888 -13.815   4.534  1.00  0.00    -0.320 N 
HETATM    3  O   UNL     1      40.895 -14.954   4.860  1.00  0.00    -0.267 OA
HETATM    4  H   UNL     1      43.890 -13.881   4.686  1.00  0.00     0.169 HD
ENDROOT
BRANCH   2   5
HETATM    5  C   UNL     1      42.412 -12.534   4.172  1.00  0.00     0.069 A 
HETATM    6  C   UNL     1      42.342 -11.542   5.169  1.00  0.00     0.095 A 
HETATM    7  C   UNL     1      41.902 -10.258   4.830  1.00  0.00     0.040 A 
HETATM    8  C   UNL     1      41.536  -9.963   3.512  1.00  0.00     0.020 A 
HETATM    9  C   UNL     1      41.607 -10.946   2.521  1.00  0.00     0.034 A 
HETATM   10  C   UNL     1      42.074 -12.218   2.852  1.00  0.00     0.049 A 
BRANCH   6  11
HETATM   11  O   UNL     1      42.730 -11.935   6.428  1.00  0.00    -0.354 OA
HETATM   12  C   UNL     1      43.667 -11.101   7.101  1.00  0.00     0.210 C 
ENDBRANCH   6  11
BRANCH   9  13
HETATM   13  C   UNL     1      41.286 -10.573   1.122  1.00  0.00     0.251 C 
HETATM   14  N   UNL     1      40.063 -10.865   0.569  1.00  0.00    -0.361 N 
HETATM   15  C   UNL     1      38.848 -11.315   1.214  1.00  0.00     0.149 C 
HETATM   16  H   UNL     1      40.000 -10.593  -0.405  1.00  0.00     0.162 HD
HETATM   17  O   UNL     1      42.131  -9.989   0.447  1.00  0.00    -0.268 OA
ENDBRANCH   9  13
ENDBRANCH   2   5
BRANCH   1  18
HETATM   18  C   UNL     1      42.882 -16.160   4.797  1.00  0.00     0.076 C 
HETATM   19  C   UNL     1      43.418 -16.756   5.958  1.00  0.00     0.158 C 
HETATM   20  N   UNL     1      44.020 -17.919   5.708  1.00  0.00    -0.183 NA
HETATM   21  N   UNL     1      43.796 -18.118   4.390  1.00  0.00    -0.268 N 
HETATM   22  C   UNL     1      43.217 -17.032   3.770  1.00  0.00     0.052 C 
BRANCH  21  23
HETATM   23  C   UNL     1      44.122 -19.416   3.802  1.00  0.00     0.106 C 
HETATM   24  C   UNL     1      44.281 -20.476   4.892  1.00  0.00     0.034 C 
BRANCH  23  25
HETATM   25  C   UNL     1      43.106 -19.866   2.733  1.00  0.00     0.022 C 
HETATM   26  C   UNL     1      43.761 -20.563   1.546  1.00  0.00     0.007 C 
ENDBRANCH  23  25
ENDBRANCH  21  23
BRANCH  22  27
HETATM   27  C   UNL     1      43.007 -16.891   2.261  1.00  0.00     0.038 A 
HETATM   28  C   UNL     1      42.098 -15.829   1.690  1.00  0.00     0.011 A 
HETATM   29  C   UNL     1      43.573 -15.685   1.541  1.00  0.00     0.011 A 
ENDBRANCH  22  27
ENDBRANCH   1  18
TORSDOF 7
ENDMDL
MODEL 3
REMARK VINA RESULT:      -7.6      2.504      7.664
REMARK  7 active torsions:
REMARK  status: ('A' for Active; 'I' for Inactive)
REMARK    1  A    between atoms: C_2  and  C_3 
REMARK    2  A    between atoms: C_3  and  N_4 
REMARK    3  A    between atoms: C_7  and  C_8 
REMARK       I    between atoms: C_8  and  N_9 
REMARK    4  A    between atoms: N_9  and  C_10 
REMARK    5  A    between atoms: C_11  and  O_12 
REMARK    6  A    between atoms: C_16  and  C_17 
REMARK       I    between atoms: C_17  and  N_18 
REMARK    7  A    between atoms: C_23  and  C_24 
ROOT
HETATM    1  C   UNL     1      40.227 -15.018   2.932  1.00  0.00     0.259 C 
HETATM    2  N   UNL     1      40.319 -13.681   2.611  1.00  0.00    -0.320 N 
HETATM    3  O   UNL     1      39.499 -15.837   2.382  1.00  0.00    -0.267 OA
HETATM    4  H   UNL     1      40.755 -13.049   3.276  1.00  0.00     0.169 HD
ENDROOT
BRANCH   2   5
HETATM    5  C   UNL     1      39.821 -13.074   1.435  1.00  0.00     0.069 A 
HETATM    6  C   UNL     1      38.857 -12.055   1.568  1.00  0.00     0.095 A 
HETATM    7  C   UNL     1      38.370 -11.419   0.421  1.00  0.00     0.040 A 
HETATM    8  C   UNL     1      38.835 -11.791  -0.845  1.00  0.00     0.020 A 
HETATM    9  C   UNL     1      39.793 -12.802  -0.978  1.00  0.00     0.034 A 
HETATM   10  C   UNL     1      40.302 -13.416   0.167  1.00  0.00     0.049 A 
BRANCH   6  11
HETATM   11  O   UNL     1      38.474 -11.762   2.854  1.00  0.00    -0.354 OA
HETATM   12  C   UNL     1      38.717 -10.437   3.311  1.00  0.00     0.210 C 
ENDBRANCH   6  11
BRANCH   9  13
HETATM   13  C   UNL     1      40.318 -13.114  -2.329  1.00  0.00     0.251 C 
HETATM   14  N   UNL     1      39.851 -14.188  -3.045  1.00  0.00    -0.361 N 
HETATM   15  C   UNL     1      38.692 -15.020  -2.800  1.00  0.00     0.149 C 
HETATM   16  H   UNL     1      40.330 -14.306  -3.930  1.00  0.00     0.162 HD
HETATM   17  O   UNL     1      41.186 -12.393  -2.816  1.00  0.00    -0.268 OA
ENDBRANCH   9  13
ENDBRANCH   2   5
BRANCH   1  18
HETATM   18  C   UNL     1      41.074 -15.403   4.036  1.00  0.00     0.076 C 
HETATM   19  C   UNL     1      40.720 -15.435   5.400  1.00  0.00     0.158 C 
HETATM   20  N   UNL     1      41.698 -15.902   6.176  1.00  0.00    -0.183 NA
HETATM   21  N   UNL     1      42.661 -16.257   5.297  1.00  0.00    -0.268 N 
HETATM   22  C   UNL     1      42.381 -15.869   4.003  1.00  0.00     0.052 C 
BRANCH  21  23
HETATM   23  C   UNL     1      43.810 -17.025   5.772  1.00  0.00     0.106 C 
HETATM   24  C   UNL     1      44.122 -16.679   7.229  1.00  0.00     0.034 C 
BRANCH  23  25
HETATM   25  C   UNL     1      43.638 -18.546   5.587  1.00  0.00     0.022 C 
HETATM   26  C   UNL     1      44.420 -19.092   4.397  1.00  0.00     0.007 C 
ENDBRANCH  23  25
ENDBRANCH  21  23
BRANCH  22  27
HETATM   27  C   UNL     1      43.354 -15.971   2.826  1.00  0.00     0.038 A 
HETATM   28  C   UNL     1      42.861 -16.006   1.400  1.00  0.00     0.011 A 
HETATM   29  C   UNL     1      43.538 -14.781   1.908  1.00  0.00     0.011 A 
ENDBRANCH  22  27
ENDBRANCH   1  18
TORSDOF 7
ENDMDL
MODEL 4
REMARK VINA RESULT:      -7.5      4.638      6.813
REMARK  7 active torsions:
REMARK  status: ('A' for Active; 'I' for Inactive)
REMARK    1  A    between atoms: C_2  and  C_3 
REMARK    2  A    between atoms: C_3  and  N_4 
REMARK    3  A    between atoms: C_7  and  C_8 
REMARK       I    between atoms: C_8  and  N_9 
REMARK    4  A    between atoms: N_9  and  C_10 
REMARK    5  A    between atoms: C_11  and  O_12 
REMARK    6  A    between atoms: C_16  and  C_17 
REMARK       I    between atoms: C_17  and  N_18 
REMARK    7  A    between atoms: C_23  and  C_24 
ROOT
HETATM    1  C   UNL     1      42.832 -11.852   5.133  1.00  0.00     0.259 C 
HETATM    2  N   UNL     1      42.261 -13.003   5.631  1.00  0.00    -0.320 N 
HETATM    3  O   UNL     1      43.363 -11.735   4.034  1.00  0.00    -0.267 OA
HETATM    4  H   UNL     1      42.076 -13.063   6.628  1.00  0.00     0.169 HD
ENDROOT
BRANCH   2   5
HETATM    5  C   UNL     1      41.933 -14.157   4.883  1.00  0.00     0.069 A 
HETATM    6  C   UNL     1      40.680 -14.202   4.240  1.00  0.00     0.095 A 
HETATM    7  C   UNL     1      40.344 -15.320   3.470  1.00  0.00     0.040 A 
HETATM    8  C   UNL     1      41.244 -16.383   3.340  1.00  0.00     0.020 A 
HETATM    9  C   UNL     1      42.488 -16.340   3.976  1.00  0.00     0.034 A 
HETATM   10  C   UNL     1      42.837 -15.212   4.719  1.00  0.00     0.049 A 
BRANCH   6  11
HETATM   11  O   UNL     1      39.876 -13.103   4.428  1.00  0.00    -0.354 OA
HETATM   12  C   UNL     1      39.462 -12.403   3.261  1.00  0.00     0.210 C 
ENDBRANCH   6  11
BRANCH   9  13
HETATM   13  C   UNL     1      43.444 -17.451   3.750  1.00  0.00     0.251 C 
HETATM   14  N   UNL     1      43.905 -18.219   4.791  1.00  0.00    -0.361 N 
HETATM   15  C   UNL     1      43.429 -18.294   6.156  1.00  0.00     0.149 C 
HETATM   16  H   UNL     1      44.584 -18.910   4.496  1.00  0.00     0.162 HD
HETATM   17  O   UNL     1      43.827 -17.689   2.607  1.00  0.00    -0.268 OA
ENDBRANCH   9  13
ENDBRANCH   2   5
BRANCH   1  18
HETATM   18  C   UNL     1      42.780 -10.740   6.053  1.00  0.00     0.076 C 
HETATM   19  C   UNL     1      41.808  -9.720   6.089  1.00  0.00     0.158 C 
HETATM   20  N   UNL     1      41.991  -8.870   7.100  1.00  0.00    -0.183 NA
HETATM   21  N   UNL     1      43.038  -9.395   7.773  1.00  0.00    -0.268 N 
HETATM   22  C   UNL     1      43.624 -10.457   7.117  1.00  0.00     0.052 C 
BRANCH  21  23
HETATM   23  C   UNL     1      43.387  -8.849   9.083  1.00  0.00     0.106 C 
HETATM   24  C   UNL     1      42.984  -7.377   9.177  1.00  0.00     0.034 C 
BRANCH  23  25
HETATM   25  C   UNL     1      42.797  -9.663  10.253  1.00  0.00     0.022 C 
HETATM   26  C   UNL     1      43.866 -10.262  11.159  1.00  0.00     0.007 C 
ENDBRANCH  23  25
ENDBRANCH  21  23
BRANCH  22  27
HETATM   27  C   UNL     1      44.928 -11.139   7.540  1.00  0.00     0.038 A 
HETATM   28  C   UNL     1      46.051 -11.364   6.557  1.00  0.00     0.011 A 
HETATM   29  C   UNL     1      46.203 -10.325   7.613  1.00  0.00     0.011 A 
ENDBRANCH  22  27
ENDBRANCH   1  18
TORSDOF 7
ENDMDL
MODEL 5
REMARK VINA RESULT:      -7.4      2.343      7.624
REMARK  7 active torsions:
REMARK  status: ('A' for Active; 'I' for Inactive)
REMARK    1  A    between atoms: C_2  and  C_3 
REMARK    2  A    between atoms: C_3  and  N_4 
REMARK    3  A    between atoms: C_7  and  C_8 
REMARK       I    between atoms: C_8  and  N_9 
REMARK    4  A    between atoms: N_9  and  C_10 
REMARK    5  A    between atoms: C_11  and  O_12 
REMARK    6  A    between atoms: C_16  and  C_17 
REMARK       I    between atoms: C_17  and  N_18 
REMARK    7  A    between atoms: C_23  and  C_24 
ROOT
HETATM    1  C   UNL     1      40.849 -15.556   2.180  1.00  0.00     0.259 C 
HETATM    2  N   UNL     1      41.461 -14.400   1.744  1.00  0.00    -0.320 N 
HETATM    3  O   UNL     1      39.648 -15.797   2.115  1.00  0.00    -0.267 OA
HETATM    4  H   UNL     1      42.402 -14.197   2.066  1.00  0.00     0.169 HD
ENDROOT
BRANCH   2   5
HETATM    5  C   UNL     1      40.882 -13.421   0.904  1.00  0.00     0.069 A 
HETATM    6  C   UNL     1      40.563 -12.168   1.461  1.00  0.00     0.095 A 
HETATM    7  C   UNL     1      40.017 -11.173   0.643  1.00  0.00     0.040 A 
HETATM    8  C   UNL     1      39.790 -11.421  -0.715  1.00  0.00     0.020 A 
HETATM    9  C   UNL     1      40.108 -12.665  -1.269  1.00  0.00     0.034 A 
HETATM   10  C   UNL     1      40.681 -13.647  -0.462  1.00  0.00     0.049 A 
BRANCH   6  11
HETATM   11  O   UNL     1      40.832 -12.026   2.801  1.00  0.00    -0.354 OA
HETATM   12  C   UNL     1      39.723 -11.769   3.655  1.00  0.00     0.210 C 
ENDBRANCH   6  11
BRANCH   9  13
HETATM   13  C   UNL     1      39.925 -12.863  -2.728  1.00  0.00     0.251 C 
HETATM   14  N   UNL     1      38.724 -13.279  -3.247  1.00  0.00    -0.361 N 
HETATM   15  C   UNL     1      37.429 -13.362  -2.607  1.00  0.00     0.149 C 
HETATM   16  H   UNL     1      38.758 -13.415  -4.250  1.00  0.00     0.162 HD
HETATM   17  O   UNL     1      40.869 -12.647  -3.485  1.00  0.00    -0.268 OA
ENDBRANCH   9  13
ENDBRANCH   2   5
BRANCH   1  18
HETATM   18  C   UNL     1      41.764 -16.502   2.773  1.00  0.00     0.076 C 
HETATM   19  C   UNL     1      42.468 -17.526   2.107  1.00  0.00     0.158 C 
HETATM   20  N   UNL     1      43.292 -18.193   2.915  1.00  0.00    -0.183 NA
HETATM   21  N   UNL     1      43.185 -17.539   4.093  1.00  0.00    -0.268 N 
HETATM   22  C   UNL     1      42.189 -16.586   4.092  1.00  0.00     0.052 C 
BRANCH  21  23
HETATM   23  C   UNL     1      44.122 -17.854   5.169  1.00  0.00     0.106 C 
HETATM   24  C   UNL     1      44.601 -16.576   5.856  1.00  0.00     0.034 C 
BRANCH  23  25
HETATM   25  C   UNL     1      43.549 -18.855   6.194  1.00  0.00     0.022 C 
HETATM   26  C   UNL     1      43.724 -20.308   5.768  1.00  0.00     0.007 C 
ENDBRANCH  23  25
ENDBRANCH  21  23
BRANCH  22  27
HETATM   27  C   UNL     1      41.712 -15.813   5.324  1.00  0.00     0.038 A 
HETATM   28  C   UNL     1      40.494 -14.923   5.271  1.00  0.00     0.011 A 
HETATM   29  C   UNL     1      40.421 -16.218   6.003  1.00  0.00     0.011 A 
ENDBRANCH  22  27
ENDBRANCH   1  18
TORSDOF 7
ENDMDL
MODEL 6
REMARK VINA RESULT:      -7.2      5.148      7.789
REMARK  7 active torsions:
REMARK  status: ('A' for Active; 'I' for Inactive)
REMARK    1  A    between atoms: C_2  and  C_3 
REMARK    2  A    between atoms: C_3  and  N_4 
REMARK    3  A    between atoms: C_7  and  C_8 
REMARK       I    between atoms: C_8  and  N_9 
REMARK    4  A    between atoms: N_9  and  C_10 
REMARK    5  A    between atoms: C_11  and  O_12 
REMARK    6  A    between atoms: C_16  and  C_17 
REMARK       I    between atoms: C_17  and  N_18 
REMARK    7  A    between atoms: C_23  and  C_24 
ROOT
HETATM    1  C   UNL     1      42.880 -11.828   6.025  1.00  0.00     0.259 C 
HETATM    2  N   UNL     1      41.972 -12.779   6.439  1.00  0.00    -0.320 N 
HETATM    3  O   UNL     1      43.696 -11.965   5.120  1.00  0.00    -0.267 OA
HETATM    4  H   UNL     1      41.521 -12.662   7.342  1.00  0.00     0.169 HD
ENDROOT
BRANCH   2   5
HETATM    5  C   UNL     1      41.622 -13.954   5.735  1.00  0.00     0.069 A 
HETATM    6  C   UNL     1      41.884 -15.198   6.342  1.00  0.00     0.095 A 
HETATM    7  C   UNL     1      41.521 -16.375   5.678  1.00  0.00     0.040 A 
HETATM    8  C   UNL     1      40.903 -16.315   4.424  1.00  0.00     0.020 A 
HETATM    9  C   UNL     1      40.641 -15.081   3.822  1.00  0.00     0.034 A 
HETATM   10  C   UNL     1      40.975 -13.907   4.496  1.00  0.00     0.049 A 
BRANCH   6  11
HETATM   11  O   UNL     1      42.488 -15.143   7.575  1.00  0.00    -0.354 OA
HETATM   12  C   UNL     1      43.433 -16.164   7.874  1.00  0.00     0.210 C 
ENDBRANCH   6  11
BRANCH   9  13
HETATM   13  C   UNL     1      39.915 -15.059   2.529  1.00  0.00     0.251 C 
HETATM   14  N   UNL     1      39.060 -14.033   2.209  1.00  0.00    -0.361 N 
HETATM   15  C   UNL     1      38.882 -12.751   2.857  1.00  0.00     0.149 C 
HETATM   16  H   UNL     1      38.600 -14.171   1.317  1.00  0.00     0.162 HD
HETATM   17  O   UNL     1      40.085 -15.977   1.729  1.00  0.00    -0.268 OA
ENDBRANCH   9  13
ENDBRANCH   2   5
BRANCH   1  18
HETATM   18  C   UNL     1      42.818 -10.604   6.788  1.00  0.00     0.076 C 
HETATM   19  C   UNL     1      41.782  -9.646   6.764  1.00  0.00     0.158 C 
HETATM   20  N   UNL     1      41.978  -8.655   7.632  1.00  0.00    -0.183 NA
HETATM   21  N   UNL     1      43.104  -9.018   8.284  1.00  0.00    -0.268 N 
HETATM   22  C   UNL     1      43.714 -10.125   7.733  1.00  0.00     0.052 C 
BRANCH  21  23
HETATM   23  C   UNL     1      43.507  -8.274   9.476  1.00  0.00     0.106 C 
HETATM   24  C   UNL     1      43.335  -6.772   9.256  1.00  0.00     0.034 C 
BRANCH  23  25
HETATM   25  C   UNL     1      42.774  -8.737  10.753  1.00  0.00     0.022 C 
HETATM   26  C   UNL     1      43.620  -8.583  12.012  1.00  0.00     0.007 C 
ENDBRANCH  23  25
ENDBRANCH  21  23
BRANCH  22  27
HETATM   27  C   UNL     1      45.088 -10.664   8.139  1.00  0.00     0.038 A 
HETATM   28  C   UNL     1      46.150 -10.963   7.108  1.00  0.00     0.011 A 
HETATM   29  C   UNL     1      46.306  -9.777   7.995  1.00  0.00     0.011 A 
ENDBRANCH  22  27
ENDBRANCH   1  18
TORSDOF 7
ENDMDL
MODEL 7
REMARK VINA RESULT:      -7.2      3.411      5.234
REMARK  7 active torsions:
REMARK  status: ('A' for Active; 'I' for Inactive)
REMARK    1  A    between atoms: C_2  and  C_3 
REMARK    2  A    between atoms: C_3  and  N_4 
REMARK    3  A    between atoms: C_7  and  C_8 
REMARK       I    between atoms: C_8  and  N_9 
REMARK    4  A    between atoms: N_9  and  C_10 
REMARK    5  A    between atoms: C_11  and  O_12 
REMARK    6  A    between atoms: C_16  and  C_17 
REMARK       I    between atoms: C_17  and  N_18 
REMARK    7  A    between atoms: C_23  and  C_24 
ROOT
HETATM    1  C   UNL     1      40.559 -13.702   2.954  1.00  0.00     0.259 C 
HETATM    2  N   UNL     1      41.797 -14.170   3.337  1.00  0.00    -0.320 N 
HETATM    3  O   UNL     1      39.707 -13.237   3.704  1.00  0.00    -0.267 OA
HETATM    4  H   UNL     1      42.319 -14.753   2.689  1.00  0.00     0.169 HD
ENDROOT
BRANCH   2   5
HETATM    5  C   UNL     1      42.418 -13.947   4.587  1.00  0.00     0.069 A 
HETATM    6  C   UNL     1      42.345 -14.964   5.559  1.00  0.00     0.095 A 
HETATM    7  C   UNL     1      42.976 -14.779   6.794  1.00  0.00     0.040 A 
HETATM    8  C   UNL     1      43.672 -13.596   7.060  1.00  0.00     0.020 A 
HETATM    9  C   UNL     1      43.747 -12.586   6.096  1.00  0.00     0.034 A 
HETATM   10  C   UNL     1      43.144 -12.781   4.854  1.00  0.00     0.049 A 
BRANCH   6  11
HETATM   11  O   UNL     1      41.642 -16.087   5.193  1.00  0.00    -0.354 OA
HETATM   12  C   UNL     1      40.392 -16.301   5.837  1.00  0.00     0.210 C 
ENDBRANCH   6  11
BRANCH   9  13
HETATM   13  C   UNL     1      44.560 -11.380   6.388  1.00  0.00     0.251 C 
HETATM   14  N   UNL     1      43.993 -10.250   6.923  1.00  0.00    -0.361 N 
HETATM   15  C   UNL     1      42.681 -10.070   7.506  1.00  0.00     0.149 C 
HETATM   16  H   UNL     1      44.657  -9.491   7.027  1.00  0.00     0.162 HD
HETATM   17  O   UNL     1      45.765 -11.397   6.147  1.00  0.00    -0.268 OA
ENDBRANCH   9  13
ENDBRANCH   2   5
BRANCH   1  18
HETATM   18  C   UNL     1      40.310 -13.826   1.537  1.00  0.00     0.076 C 
HETATM   19  C   UNL     1      40.136 -15.024   0.813  1.00  0.00     0.158 C 
HETATM   20  N   UNL     1      39.852 -14.812  -0.472  1.00  0.00    -0.183 NA
HETATM   21  N   UNL     1      39.756 -13.467  -0.561  1.00  0.00    -0.268 N 
HETATM   22  C   UNL     1      40.139 -12.821   0.596  1.00  0.00     0.052 C 
BRANCH  21  23
HETATM   23  C   UNL     1      39.231 -12.871  -1.787  1.00  0.00     0.106 C 
HETATM   24  C   UNL     1      40.306 -12.842  -2.874  1.00  0.00     0.034 C 
BRANCH  23  25
HETATM   25  C   UNL     1      37.948 -13.563  -2.293  1.00  0.00     0.022 C 
HETATM   26  C   UNL     1      38.198 -14.479  -3.486  1.00  0.00     0.007 C 
ENDBRANCH  23  25
ENDBRANCH  21  23
BRANCH  22  27
HETATM   27  C   UNL     1      40.307 -11.307   0.741  1.00  0.00     0.038 A 
HETATM   28  C   UNL     1      41.503 -10.713   1.444  1.00  0.00     0.011 A 
HETATM   29  C   UNL     1      41.398 -10.602  -0.038  1.00  0.00     0.011 A 
ENDBRANCH  22  27
ENDBRANCH   1  18
TORSDOF 7
ENDMDL
MODEL 8
REMARK VINA RESULT:      -7.1      1.957      3.761
REMARK  7 active torsions:
REMARK  status: ('A' for Active; 'I' for Inactive)
REMARK    1  A    between atoms: C_2  and  C_3 
REMARK    2  A    between atoms: C_3  and  N_4 
REMARK    3  A    between atoms: C_7  and  C_8 
REMARK       I    between atoms: C_8  and  N_9 
REMARK    4  A    between atoms: N_9  and  C_10 
REMARK    5  A    between atoms: C_11  and  O_12 
REMARK    6  A    between atoms: C_16  and  C_17 
REMARK       I    between atoms: C_17  and  N_18 
REMARK    7  A    between atoms: C_23  and  C_24 
ROOT
HETATM    1  C   UNL     1      40.602 -15.244   2.146  1.00  0.00     0.259 C 
HETATM    2  N   UNL     1      41.959 -15.360   2.358  1.00  0.00    -0.320 N 
HETATM    3  O   UNL     1      39.724 -15.761   2.829  1.00  0.00    -0.267 OA
HETATM    4  H   UNL     1      42.593 -15.108   1.606  1.00  0.00     0.169 HD
ENDROOT
BRANCH   2   5
HETATM    5  C   UNL     1      42.576 -15.845   3.534  1.00  0.00     0.069 A 
HETATM    6  C   UNL     1      43.303 -17.048   3.458  1.00  0.00     0.095 A 
HETATM    7  C   UNL     1      43.947 -17.533   4.602  1.00  0.00     0.040 A 
HETATM    8  C   UNL     1      43.869 -16.829   5.808  1.00  0.00     0.020 A 
HETATM    9  C   UNL     1      43.148 -15.634   5.885  1.00  0.00     0.034 A 
HETATM   10  C   UNL     1      42.531 -15.133   4.738  1.00  0.00     0.049 A 
BRANCH   6  11
HETATM   11  O   UNL     1      43.323 -17.656   2.226  1.00  0.00    -0.354 OA
HETATM   12  C   UNL     1      43.203 -19.074   2.206  1.00  0.00     0.210 C 
ENDBRANCH   6  11
BRANCH   9  13
HETATM   13  C   UNL     1      43.154 -14.878   7.161  1.00  0.00     0.251 C 
HETATM   14  N   UNL     1      43.447 -13.537   7.193  1.00  0.00    -0.361 N 
HETATM   15  C   UNL     1      43.550 -12.593   6.101  1.00  0.00     0.149 C 
HETATM   16  H   UNL     1      43.458 -13.162   8.135  1.00  0.00     0.162 HD
HETATM   17  O   UNL     1      42.888 -15.465   8.207  1.00  0.00    -0.268 OA
ENDBRANCH   9  13
ENDBRANCH   2   5
BRANCH   1  18
HETATM   18  C   UNL     1      40.268 -14.450   0.987  1.00  0.00     0.076 C 
HETATM   19  C   UNL     1      39.884 -14.930  -0.283  1.00  0.00     0.158 C 
HETATM   20  N   UNL     1      39.571 -13.951  -1.130  1.00  0.00    -0.183 NA
HETATM   21  N   UNL     1      39.669 -12.833  -0.378  1.00  0.00    -0.268 N 
HETATM   22  C   UNL     1      40.199 -13.069   0.873  1.00  0.00     0.052 C 
BRANCH  21  23
HETATM   23  C   UNL     1      39.177 -11.567  -0.917  1.00  0.00     0.106 C 
HETATM   24  C   UNL     1      39.910 -11.212  -2.211  1.00  0.00     0.034 C 
BRANCH  23  25
HETATM   25  C   UNL     1      37.648 -11.553  -1.124  1.00  0.00     0.022 C 
HETATM   26  C   UNL     1      37.244 -11.173  -2.544  1.00  0.00     0.007 C 
ENDBRANCH  23  25
ENDBRANCH  21  23
BRANCH  22  27
HETATM   27  C   UNL     1      40.594 -11.984   1.878  1.00  0.00     0.038 A 
HETATM   28  C   UNL     1      41.960 -11.970   2.522  1.00  0.00     0.011 A 
HETATM   29  C   UNL     1      41.630 -10.950   1.487  1.00  0.00     0.011 A 
ENDBRANCH  22  27
ENDBRANCH   1  18
TORSDOF 7
ENDMDL
MODEL 9
REMARK VINA RESULT:      -7.1      6.122      9.059
REMARK  7 active torsions:
REMARK  status: ('A' for Active; 'I' for Inactive)
REMARK    1  A    between atoms: C_2  and  C_3 
REMARK    2  A    between atoms: C_3  and  N_4 
REMARK    3  A    between atoms: C_7  and  C_8 
REMARK       I    between atoms: C_8  and  N_9 
REMARK    4  A    between atoms: N_9  and  C_10 
REMARK    5  A    between atoms: C_11  and  O_12 
REMARK    6  A    between atoms: C_16  and  C_17 
REMARK       I    between atoms: C_17  and  N_18 
REMARK    7  A    between atoms: C_23  and  C_24 
ROOT
HETATM    1  C   UNL     1      42.690 -10.434   6.379  1.00  0.00     0.259 C 
HETATM    2  N   UNL     1      43.052 -11.018   7.574  1.00  0.00    -0.320 N 
HETATM    3  O   UNL     1      42.353  -9.264   6.228  1.00  0.00    -0.267 OA
HETATM    4  H   UNL     1      43.070 -12.032   7.634  1.00  0.00     0.169 HD
ENDROOT
BRANCH   2   5
HETATM    5  C   UNL     1      43.372 -10.333   8.769  1.00  0.00     0.069 A 
HETATM    6  C   UNL     1      44.706 -10.362   9.217  1.00  0.00     0.095 A 
HETATM    7  C   UNL     1      45.054  -9.668  10.381  1.00  0.00     0.040 A 
HETATM    8  C   UNL     1      44.085  -8.952  11.091  1.00  0.00     0.020 A 
HETATM    9  C   UNL     1      42.760  -8.921  10.646  1.00  0.00     0.034 A 
HETATM   10  C   UNL     1      42.418  -9.588   9.469  1.00  0.00     0.049 A 
BRANCH   6  11
HETATM   11  O   UNL     1      45.579 -11.089   8.443  1.00  0.00    -0.354 OA
HETATM   12  C   UNL     1      46.478 -10.352   7.623  1.00  0.00     0.210 C 
ENDBRANCH   6  11
BRANCH   9  13
HETATM   13  C   UNL     1      41.779  -8.087  11.383  1.00  0.00     0.251 C 
HETATM   14  N   UNL     1      40.915  -8.641  12.295  1.00  0.00    -0.361 N 
HETATM   15  C   UNL     1      40.924  -9.963  12.882  1.00  0.00     0.149 C 
HETATM   16  H   UNL     1      40.273  -7.962  12.687  1.00  0.00     0.162 HD
HETATM   17  O   UNL     1      41.743  -6.877  11.173  1.00  0.00    -0.268 OA
ENDBRANCH   9  13
ENDBRANCH   2   5
BRANCH   1  18
HETATM   18  C   UNL     1      42.711 -11.349   5.262  1.00  0.00     0.076 C 
HETATM   19  C   UNL     1      43.678 -11.407   4.237  1.00  0.00     0.158 C 
HETATM   20  N   UNL     1      43.464 -12.407   3.383  1.00  0.00    -0.183 NA
HETATM   21  N   UNL     1      42.400 -13.055   3.909  1.00  0.00    -0.268 N 
HETATM   22  C   UNL     1      41.837 -12.389   4.977  1.00  0.00     0.052 C 
BRANCH  21  23
HETATM   23  C   UNL     1      42.013 -14.351   3.358  1.00  0.00     0.106 C 
HETATM   24  C   UNL     1      41.188 -14.169   2.084  1.00  0.00     0.034 C 
BRANCH  23  25
HETATM   25  C   UNL     1      43.216 -15.286   3.112  1.00  0.00     0.022 C 
HETATM   26  C   UNL     1      43.295 -15.787   1.674  1.00  0.00     0.007 C 
ENDBRANCH  23  25
ENDBRANCH  21  23
BRANCH  22  27
HETATM   27  C   UNL     1      40.526 -12.779   5.662  1.00  0.00     0.038 A 
HETATM   28  C   UNL     1      39.609 -11.737   6.257  1.00  0.00     0.011 A 
HETATM   29  C   UNL     1      39.209 -12.431   5.001  1.00  0.00     0.011 A 
ENDBRANCH  22  27
ENDBRANCH   1  18
TORSDOF 7
ENDMDL
MODEL 10
REMARK VINA RESULT:      -7.1      3.015      8.524
REMARK  7 active torsions:
REMARK  status: ('A' for Active; 'I' for Inactive)
REMARK    1  A    between atoms: C_2  and  C_3 
REMARK    2  A    between atoms: C_3  and  N_4 
REMARK    3  A    between atoms: C_7  and  C_8 
REMARK       I    between atoms: C_8  and  N_9 
REMARK    4  A    between atoms: N_9  and  C_10 
REMARK    5  A    between atoms: C_11  and  O_12 
REMARK    6  A    between atoms: C_16  and  C_17 
REMARK       I    between atoms: C_17  and  N_18 
REMARK    7  A    between atoms: C_23  and  C_24 
ROOT
HETATM    1  C   UNL     1      40.443 -13.268   0.852  1.00  0.00     0.259 C 
HETATM    2  N   UNL     1      41.271 -12.886  -0.181  1.00  0.00    -0.320 N 
HETATM    3  O   UNL     1      39.438 -12.669   1.221  1.00  0.00    -0.267 OA
HETATM    4  H   UNL     1      42.196 -13.301  -0.243  1.00  0.00     0.169 HD
ENDROOT
BRANCH   2   5
HETATM    5  C   UNL     1      40.973 -11.919  -1.169  1.00  0.00     0.069 A 
HETATM    6  C   UNL     1      40.578 -12.369  -2.444  1.00  0.00     0.095 A 
HETATM    7  C   UNL     1      40.249 -11.433  -3.430  1.00  0.00     0.040 A 
HETATM    8  C   UNL     1      40.313 -10.063  -3.152  1.00  0.00     0.020 A 
HETATM    9  C   UNL     1      40.704  -9.615  -1.886  1.00  0.00     0.034 A 
HETATM   10  C   UNL     1      41.002 -10.548  -0.893  1.00  0.00     0.049 A 
BRANCH   6  11
HETATM   11  O   UNL     1      40.543 -13.733  -2.610  1.00  0.00    -0.354 OA
HETATM   12  C   UNL     1      39.263 -14.324  -2.806  1.00  0.00     0.210 C 
ENDBRANCH   6  11
BRANCH   9  13
HETATM   13  C   UNL     1      40.683  -8.159  -1.607  1.00  0.00     0.251 C 
HETATM   14  N   UNL     1      41.845  -7.452  -1.420  1.00  0.00    -0.361 N 
HETATM   15  C   UNL     1      43.212  -7.850  -1.678  1.00  0.00     0.149 C 
HETATM   16  H   UNL     1      41.678  -6.479  -1.194  1.00  0.00     0.162 HD
HETATM   17  O   UNL     1      39.603  -7.576  -1.545  1.00  0.00    -0.268 OA
ENDBRANCH   9  13
ENDBRANCH   2   5
BRANCH   1  18
HETATM   18  C   UNL     1      40.878 -14.470   1.522  1.00  0.00     0.076 C 
HETATM   19  C   UNL     1      40.220 -15.718   1.528  1.00  0.00     0.158 C 
HETATM   20  N   UNL     1      40.904 -16.658   2.179  1.00  0.00    -0.183 NA
HETATM   21  N   UNL     1      42.054 -16.036   2.522  1.00  0.00    -0.268 N 
HETATM   22  C   UNL     1      42.038 -14.684   2.252  1.00  0.00     0.052 C 
BRANCH  21  23
HETATM   23  C   UNL     1      43.157 -16.829   3.062  1.00  0.00     0.106 C 
HETATM   24  C   UNL     1      43.041 -16.947   4.582  1.00  0.00     0.034 C 
BRANCH  23  25
HETATM   25  C   UNL     1      43.280 -18.219   2.404  1.00  0.00     0.022 C 
HETATM   26  C   UNL     1      43.925 -19.254   3.319  1.00  0.00     0.007 C 
ENDBRANCH  23  25
ENDBRANCH  21  23
BRANCH  22  27
HETATM   27  C   UNL     1      43.117 -13.690   2.687  1.00  0.00     0.038 A 
HETATM   28  C   UNL     1      42.779 -12.253   3.005  1.00  0.00     0.011 A 
HETATM   29  C   UNL     1      43.129 -13.183   4.114  1.00  0.00     0.011 A 
ENDBRANCH  22  27
ENDBRANCH   1  18
TORSDOF 7
ENDMDL
