MODEL 1
REMARK VINA RESULT:      -9.0      0.000      0.000
REMARK  8 active torsions:
REMARK  status: ('A' for Active; 'I' for Inactive)
REMARK    1  A    between atoms: C_5  and  S_6 
REMARK    2  A    between atoms: S_6  and  C_7 
REMARK    3  A    between atoms: C_7  and  C_8 
REMARK       I    between atoms: C_8  and  N_9 
REMARK    4  A    between atoms: N_9  and  C_10 
REMARK    5  A    between atoms: C_10  and  C_11 
REMARK    6  A    between atoms: C_11  and  C_12 
REMARK    7  A    between atoms: C_14  and  O_15 
REMARK    8  A    between atoms: C_17  and  O_18 
ROOT
HETATM    1  C   UNL     1      44.367 -12.409   6.881  1.00  0.00     0.185 C 
ENDROOT
BRANCH   1   2
HETATM    2  S   UNL     1      42.764 -12.956   6.224  1.00  0.00    -0.080 SA
BRANCH   2   3
HETATM    3  C   UNL     1      42.871 -14.665   6.487  1.00  0.00     0.197 A 
HETATM    4  N   UNL     1      43.035 -15.653   5.530  1.00  0.00    -0.271 N 
HETATM    5  C   UNL     1      43.154 -16.820   6.283  1.00  0.00     0.165 A 
HETATM    6  C   UNL     1      43.091 -15.654   4.106  1.00  0.00     0.053 A 
HETATM    7  C   UNL     1      43.398 -18.079   5.656  1.00  0.00    -0.013 A 
HETATM    8  N   UNL     1      43.007 -16.546   7.564  1.00  0.00    -0.128 NA
HETATM    9  C   UNL     1      43.566 -19.352   6.448  1.00  0.00     0.052 C 
HETATM   10  C   UNL     1      43.485 -18.112   4.311  1.00  0.00     0.024 A 
HETATM   11  C   UNL     1      43.323 -16.903   3.497  1.00  0.00    -0.008 A 
HETATM   12  C   UNL     1      43.397 -16.998   2.101  1.00  0.00     0.014 A 
HETATM   13  C   UNL     1      43.230 -15.862   1.311  1.00  0.00     0.001 A 
HETATM   14  C   UNL     1      42.989 -14.630   1.913  1.00  0.00     0.002 A 
HETATM   15  C   UNL     1      42.917 -14.522   3.306  1.00  0.00     0.031 A 
HETATM   16  N   UNL     1      42.829 -15.199   7.688  1.00  0.00    -0.122 NA
ENDBRANCH   2   3
ENDBRANCH   1   2
BRANCH   1  17
HETATM   17  C   UNL     1      45.022 -11.453   5.902  1.00  0.00     0.227 C 
HETATM   18  N   UNL     1      46.139 -10.753   6.282  1.00  0.00    -0.360 N 
HETATM   19  H   UNL     1      46.423 -10.093   5.567  1.00  0.00     0.162 HD
HETATM   20  O   UNL     1      44.594 -11.295   4.758  1.00  0.00    -0.273 OA
BRANCH  18  21
HETATM   21  C   UNL     1      46.592 -10.515   7.642  1.00  0.00     0.127 C 
BRANCH  21  22
HETATM   22  C   UNL     1      46.081  -9.184   8.195  1.00  0.00     0.058 C 
BRANCH  22  23
HETATM   23  C   UNL     1      44.874  -9.387   9.079  1.00  0.00    -0.054 A 
HETATM   24  C   UNL     1      43.582  -9.188   8.567  1.00  0.00     0.046 A 
HETATM   25  C   UNL     1      42.456  -9.322   9.388  1.00  0.00     0.102 A 
HETATM   26  C   UNL     1      42.617  -9.688  10.738  1.00  0.00     0.101 A 
HETATM   27  C   UNL     1      43.905  -9.896  11.244  1.00  0.00     0.040 A 
HETATM   28  C   UNL     1      45.025  -9.741  10.421  1.00  0.00     0.010 A 
BRANCH  25  29
HETATM   29  O   UNL     1      41.165  -9.131   8.960  1.00  0.00    -0.353 OA
HETATM   30  C   UNL     1      40.791  -7.812   8.585  1.00  0.00     0.210 C 
ENDBRANCH  25  29
BRANCH  26  31
HETATM   31  O   UNL     1      41.465  -9.806  11.474  1.00  0.00    -0.353 OA
HETATM   32  C   UNL     1      41.585  -9.822  12.889  1.00  0.00     0.210 C 
ENDBRANCH  26  31
ENDBRANCH  22  23
ENDBRANCH  21  22
ENDBRANCH  18  21
ENDBRANCH   1  17
TORSDOF 8
ENDMDL
MODEL 2
REMARK VINA RESULT:      -8.8      1.275      1.539
REMARK  8 active torsions:
REMARK  status: ('A' for Active; 'I' for Inactive)
REMARK    1  A    between atoms: C_5  and  S_6 
REMARK    2  A    between atoms: S_6  and  C_7 
REMARK    3  A    between atoms: C_7  and  C_8 
REMARK       I    between atoms: C_8  and  N_9 
REMARK    4  A    between atoms: N_9  and  C_10 
REMARK    5  A    between atoms: C_10  and  C_11 
REMARK    6  A    between atoms: C_11  and  C_12 
REMARK    7  A    between atoms: C_14  and  O_15 
REMARK    8  A    between atoms: C_17  and  O_18 
ROOT
HETATM    1  C   UNL     1      44.279 -12.471   6.873  1.00  0.00     0.185 C 
ENDROOT
BRANCH   1   2
HETATM    2  S   UNL     1      42.740 -13.109   6.149  1.00  0.00    -0.080 SA
BRANCH   2   3
HETATM    3  C   UNL     1      43.230 -14.707   5.697  1.00  0.00     0.197 A 
HETATM    4  N   UNL     1      42.783 -15.449   4.616  1.00  0.00    -0.271 N 
HETATM    5  C   UNL     1      43.565 -16.602   4.666  1.00  0.00     0.165 A 
HETATM    6  C   UNL     1      41.794 -15.240   3.612  1.00  0.00     0.053 A 
HETATM    7  C   UNL     1      43.446 -17.615   3.667  1.00  0.00    -0.013 A 
HETATM    8  N   UNL     1      44.352 -16.566   5.722  1.00  0.00    -0.128 NA
HETATM    9  C   UNL     1      44.302 -18.857   3.677  1.00  0.00     0.052 C 
HETATM   10  C   UNL     1      42.539 -17.437   2.687  1.00  0.00     0.024 A 
HETATM   11  C   UNL     1      41.679 -16.250   2.636  1.00  0.00    -0.008 A 
HETATM   12  C   UNL     1      40.733 -16.127   1.610  1.00  0.00     0.014 A 
HETATM   13  C   UNL     1      39.898 -15.013   1.555  1.00  0.00     0.001 A 
HETATM   14  C   UNL     1      40.003 -14.021   2.526  1.00  0.00     0.002 A 
HETATM   15  C   UNL     1      40.946 -14.130   3.554  1.00  0.00     0.031 A 
HETATM   16  N   UNL     1      44.141 -15.382   6.365  1.00  0.00    -0.122 NA
ENDBRANCH   2   3
ENDBRANCH   1   2
BRANCH   1  17
HETATM   17  C   UNL     1      44.937 -11.503   5.906  1.00  0.00     0.227 C 
HETATM   18  N   UNL     1      46.051 -10.807   6.298  1.00  0.00    -0.360 N 
HETATM   19  H   UNL     1      46.338 -10.139   5.591  1.00  0.00     0.162 HD
HETATM   20  O   UNL     1      44.513 -11.335   4.762  1.00  0.00    -0.273 OA
BRANCH  18  21
HETATM   21  C   UNL     1      46.499 -10.583   7.662  1.00  0.00     0.127 C 
BRANCH  21  22
HETATM   22  C   UNL     1      46.030  -9.233   8.207  1.00  0.00     0.058 C 
BRANCH  22  23
HETATM   23  C   UNL     1      44.813  -9.391   9.085  1.00  0.00    -0.054 A 
HETATM   24  C   UNL     1      43.526  -9.254   8.542  1.00  0.00     0.046 A 
HETATM   25  C   UNL     1      42.390  -9.347   9.354  1.00  0.00     0.102 A 
HETATM   26  C   UNL     1      42.536  -9.609  10.729  1.00  0.00     0.101 A 
HETATM   27  C   UNL     1      43.818  -9.757  11.268  1.00  0.00     0.040 A 
HETATM   28  C   UNL     1      44.949  -9.643  10.453  1.00  0.00     0.010 A 
BRANCH  25  29
HETATM   29  O   UNL     1      41.102  -9.211   8.894  1.00  0.00    -0.353 OA
HETATM   30  C   UNL     1      40.886  -9.388   7.500  1.00  0.00     0.210 C 
ENDBRANCH  25  29
BRANCH  26  31
HETATM   31  O   UNL     1      41.374  -9.693  11.455  1.00  0.00    -0.353 OA
HETATM   32  C   UNL     1      41.484  -9.933  12.850  1.00  0.00     0.210 C 
ENDBRANCH  26  31
ENDBRANCH  22  23
ENDBRANCH  21  22
ENDBRANCH  18  21
ENDBRANCH   1  17
TORSDOF 8
ENDMDL
MODEL 3
REMARK VINA RESULT:      -8.8      1.752      2.867
REMARK  8 active torsions:
REMARK  status: ('A' for Active; 'I' for Inactive)
REMARK    1  A    between atoms: C_5  and  S_6 
REMARK    2  A    between atoms: S_6  and  C_7 
REMARK    3  A    between atoms: C_7  and  C_8 
REMARK       I    between atoms: C_8  and  N_9 
REMARK    4  A    between atoms: N_9  and  C_10 
REMARK    5  A    between atoms: C_10  and  C_11 
REMARK    6  A    between atoms: C_11  and  C_12 
REMARK    7  A    between atoms: C_14  and  O_15 
REMARK    8  A    between atoms: C_17  and  O_18 
ROOT
HETATM    1  C   UNL     1      43.544 -11.715   6.390  1.00  0.00     0.185 C 
ENDROOT
BRANCH   1   2
HETATM    2  S   UNL     1      43.318 -13.518   6.403  1.00  0.00    -0.080 SA
BRANCH   2   3
HETATM    3  C   UNL     1      42.442 -13.747   4.926  1.00  0.00     0.197 A 
HETATM    4  N   UNL     1      42.414 -14.883   4.134  1.00  0.00    -0.271 N 
HETATM    5  C   UNL     1      41.491 -14.563   3.138  1.00  0.00     0.165 A 
HETATM    6  C   UNL     1      43.085 -16.139   4.178  1.00  0.00     0.053 A 
HETATM    7  C   UNL     1      41.130 -15.515   2.137  1.00  0.00    -0.013 A 
HETATM    8  N   UNL     1      41.067 -13.326   3.298  1.00  0.00    -0.128 NA
HETATM    9  C   UNL     1      40.110 -15.209   1.069  1.00  0.00     0.052 C 
HETATM   10  C   UNL     1      41.726 -16.723   2.165  1.00  0.00     0.024 A 
HETATM   11  C   UNL     1      42.728 -17.067   3.180  1.00  0.00    -0.008 A 
HETATM   12  C   UNL     1      43.337 -18.329   3.148  1.00  0.00     0.014 A 
HETATM   13  C   UNL     1      44.302 -18.666   4.094  1.00  0.00     0.001 A 
HETATM   14  C   UNL     1      44.663 -17.745   5.073  1.00  0.00     0.002 A 
HETATM   15  C   UNL     1      44.060 -16.483   5.118  1.00  0.00     0.031 A 
HETATM   16  N   UNL     1      41.664 -12.817   4.415  1.00  0.00    -0.122 NA
ENDBRANCH   2   3
ENDBRANCH   1   2
BRANCH   1  17
HETATM   17  C   UNL     1      44.779 -11.360   5.582  1.00  0.00     0.227 C 
HETATM   18  N   UNL     1      45.974 -11.165   6.224  1.00  0.00    -0.360 N 
HETATM   19  H   UNL     1      46.693 -10.853   5.581  1.00  0.00     0.162 HD
HETATM   20  O   UNL     1      44.749 -11.260   4.355  1.00  0.00    -0.273 OA
BRANCH  18  21
HETATM   21  C   UNL     1      46.166 -10.888   7.638  1.00  0.00     0.127 C 
BRANCH  21  22
HETATM   22  C   UNL     1      46.225  -9.387   7.927  1.00  0.00     0.058 C 
BRANCH  22  23
HETATM   23  C   UNL     1      45.205  -8.991   8.968  1.00  0.00    -0.054 A 
HETATM   24  C   UNL     1      44.352  -7.899   8.740  1.00  0.00     0.046 A 
HETATM   25  C   UNL     1      43.437  -7.488   9.717  1.00  0.00     0.102 A 
HETATM   26  C   UNL     1      43.350  -8.193  10.932  1.00  0.00     0.101 A 
HETATM   27  C   UNL     1      44.194  -9.287  11.153  1.00  0.00     0.040 A 
HETATM   28  C   UNL     1      45.119  -9.679  10.180  1.00  0.00     0.010 A 
BRANCH  25  29
HETATM   29  O   UNL     1      42.581  -6.424   9.569  1.00  0.00    -0.353 OA
HETATM   30  C   UNL     1      42.021  -6.211   8.280  1.00  0.00     0.210 C 
ENDBRANCH  25  29
BRANCH  26  31
HETATM   31  O   UNL     1      42.424  -7.732  11.833  1.00  0.00    -0.353 OA
HETATM   32  C   UNL     1      42.689  -7.934  13.214  1.00  0.00     0.210 C 
ENDBRANCH  26  31
ENDBRANCH  22  23
ENDBRANCH  21  22
ENDBRANCH  18  21
ENDBRANCH   1  17
TORSDOF 8
ENDMDL
MODEL 4
REMARK VINA RESULT:      -8.7      1.241      2.021
REMARK  8 active torsions:
REMARK  status: ('A' for Active; 'I' for Inactive)
REMARK    1  A    between atoms: C_5  and  S_6 
REMARK    2  A    between atoms: S_6  and  C_7 
REMARK    3  A    between atoms: C_7  and  C_8 
REMARK       I    between atoms: C_8  and  N_9 
REMARK    4  A    between atoms: N_9  and  C_10 
REMARK    5  A    between atoms: C_10  and  C_11 
REMARK    6  A    between atoms: C_11  and  C_12 
REMARK    7  A    between atoms: C_14  and  O_15 
REMARK    8  A    between atoms: C_17  and  O_18 
ROOT
HETATM    1  C   UNL     1      43.913 -11.961   7.393  1.00  0.00     0.185 C 
ENDROOT
BRANCH   1   2
HETATM    2  S   UNL     1      43.051 -12.660   5.954  1.00  0.00    -0.080 SA
BRANCH   2   3
HETATM    3  C   UNL     1      43.058 -14.344   6.357  1.00  0.00     0.197 A 
HETATM    4  N   UNL     1      43.132 -15.416   5.482  1.00  0.00    -0.271 N 
HETATM    5  C   UNL     1      43.200 -16.522   6.328  1.00  0.00     0.165 A 
HETATM    6  C   UNL     1      43.146 -15.538   4.063  1.00  0.00     0.053 A 
HETATM    7  C   UNL     1      43.347 -17.842   5.802  1.00  0.00    -0.013 A 
HETATM    8  N   UNL     1      43.108 -16.135   7.584  1.00  0.00    -0.128 NA
HETATM    9  C   UNL     1      43.458 -19.054   6.694  1.00  0.00     0.052 C 
HETATM   10  C   UNL     1      43.392 -17.991   4.464  1.00  0.00     0.024 A 
HETATM   11  C   UNL     1      43.282 -16.845   3.555  1.00  0.00    -0.008 A 
HETATM   12  C   UNL     1      43.308 -17.059   2.170  1.00  0.00     0.014 A 
HETATM   13  C   UNL     1      43.190 -15.984   1.292  1.00  0.00     0.001 A 
HETATM   14  C   UNL     1      43.044 -14.693   1.794  1.00  0.00     0.002 A 
HETATM   15  C   UNL     1      43.020 -14.466   3.174  1.00  0.00     0.031 A 
HETATM   16  N   UNL     1      43.018 -14.774   7.600  1.00  0.00    -0.122 NA
ENDBRANCH   2   3
ENDBRANCH   1   2
BRANCH   1  17
HETATM   17  C   UNL     1      45.124 -11.173   6.932  1.00  0.00     0.227 C 
HETATM   18  N   UNL     1      45.906 -10.530   7.856  1.00  0.00    -0.360 N 
HETATM   19  H   UNL     1      46.628  -9.976   7.409  1.00  0.00     0.162 HD
HETATM   20  O   UNL     1      45.445 -11.105   5.744  1.00  0.00    -0.273 OA
BRANCH  18  21
HETATM   21  C   UNL     1      45.534 -10.184   9.218  1.00  0.00     0.127 C 
BRANCH  21  22
HETATM   22  C   UNL     1      44.785  -8.853   9.289  1.00  0.00     0.058 C 
BRANCH  22  23
HETATM   23  C   UNL     1      43.608  -8.938  10.231  1.00  0.00    -0.054 A 
HETATM   24  C   UNL     1      43.767  -8.628  11.591  1.00  0.00     0.046 A 
HETATM   25  C   UNL     1      42.698  -8.751  12.486  1.00  0.00     0.102 A 
HETATM   26  C   UNL     1      41.438  -9.166  12.013  1.00  0.00     0.101 A 
HETATM   27  C   UNL     1      41.278  -9.465  10.656  1.00  0.00     0.040 A 
HETATM   28  C   UNL     1      42.357  -9.357   9.772  1.00  0.00     0.010 A 
BRANCH  25  29
HETATM   29  O   UNL     1      42.783  -8.478  13.829  1.00  0.00    -0.353 OA
HETATM   30  C   UNL     1      43.078  -7.138  14.204  1.00  0.00     0.210 C 
ENDBRANCH  25  29
BRANCH  26  31
HETATM   31  O   UNL     1      40.441  -9.255  12.951  1.00  0.00    -0.353 OA
HETATM   32  C   UNL     1      39.728 -10.480  13.041  1.00  0.00     0.210 C 
ENDBRANCH  26  31
ENDBRANCH  22  23
ENDBRANCH  21  22
ENDBRANCH  18  21
ENDBRANCH   1  17
TORSDOF 8
ENDMDL
MODEL 5
REMARK VINA RESULT:      -8.4      4.128      7.998
REMARK  8 active torsions:
REMARK  status: ('A' for Active; 'I' for Inactive)
REMARK    1  A    between atoms: C_5  and  S_6 
REMARK    2  A    between atoms: S_6  and  C_7 
REMARK    3  A    between atoms: C_7  and  C_8 
REMARK       I    between atoms: C_8  and  N_9 
REMARK    4  A    between atoms: N_9  and  C_10 
REMARK    5  A    between atoms: C_10  and  C_11 
REMARK    6  A    between atoms: C_11  and  C_12 
REMARK    7  A    between atoms: C_14  and  O_15 
REMARK    8  A    between atoms: C_17  and  O_18 
ROOT
HETATM    1  C   UNL     1      41.146 -12.383   5.756  1.00  0.00     0.185 C 
ENDROOT
BRANCH   1   2
HETATM    2  S   UNL     1      42.870 -12.842   5.411  1.00  0.00    -0.080 SA
BRANCH   2   3
HETATM    3  C   UNL     1      42.937 -14.416   6.130  1.00  0.00     0.197 A 
HETATM    4  N   UNL     1      43.105 -15.630   5.482  1.00  0.00    -0.271 N 
HETATM    5  C   UNL     1      43.183 -16.549   6.527  1.00  0.00     0.165 A 
HETATM    6  C   UNL     1      43.196 -16.018   4.114  1.00  0.00     0.053 A 
HETATM    7  C   UNL     1      43.418 -17.934   6.271  1.00  0.00    -0.013 A 
HETATM    8  N   UNL     1      43.010 -15.936   7.680  1.00  0.00    -0.128 NA
HETATM    9  C   UNL     1      43.542 -18.947   7.383  1.00  0.00     0.052 C 
HETATM   10  C   UNL     1      43.537 -18.332   4.989  1.00  0.00     0.024 A 
HETATM   11  C   UNL     1      43.419 -17.388   3.873  1.00  0.00    -0.008 A 
HETATM   12  C   UNL     1      43.525 -17.859   2.557  1.00  0.00     0.014 A 
HETATM   13  C   UNL     1      43.400 -16.979   1.485  1.00  0.00     0.001 A 
HETATM   14  C   UNL     1      43.167 -15.627   1.723  1.00  0.00     0.002 A 
HETATM   15  C   UNL     1      43.064 -15.143   3.032  1.00  0.00     0.031 A 
HETATM   16  N   UNL     1      42.855 -14.604   7.429  1.00  0.00    -0.122 NA
ENDBRANCH   2   3
ENDBRANCH   1   2
BRANCH   1  17
HETATM   17  C   UNL     1      40.258 -13.608   5.647  1.00  0.00     0.227 C 
HETATM   18  N   UNL     1      39.943 -14.109   4.410  1.00  0.00    -0.360 N 
HETATM   19  H   UNL     1      39.279 -14.872   4.477  1.00  0.00     0.162 HD
HETATM   20  O   UNL     1      39.821 -14.188   6.642  1.00  0.00    -0.273 OA
BRANCH  18  21
HETATM   21  C   UNL     1      40.042 -13.410   3.139  1.00  0.00     0.127 C 
BRANCH  21  22
HETATM   22  C   UNL     1      39.738 -14.326   1.953  1.00  0.00     0.058 C 
BRANCH  22  23
HETATM   23  C   UNL     1      40.081 -13.656   0.644  1.00  0.00    -0.054 A 
HETATM   24  C   UNL     1      39.748 -14.273  -0.572  1.00  0.00     0.046 A 
HETATM   25  C   UNL     1      40.104 -13.689  -1.794  1.00  0.00     0.102 A 
HETATM   26  C   UNL     1      40.781 -12.454  -1.806  1.00  0.00     0.101 A 
HETATM   27  C   UNL     1      41.103 -11.836  -0.593  1.00  0.00     0.040 A 
HETATM   28  C   UNL     1      40.760 -12.436   0.623  1.00  0.00     0.010 A 
BRANCH  25  29
HETATM   29  O   UNL     1      39.823 -14.240  -3.021  1.00  0.00    -0.353 OA
HETATM   30  C   UNL     1      38.453 -14.373  -3.377  1.00  0.00     0.210 C 
ENDBRANCH  25  29
BRANCH  26  31
HETATM   31  O   UNL     1      41.088 -11.945  -3.042  1.00  0.00    -0.353 OA
HETATM   32  C   UNL     1      40.683 -10.615  -3.327  1.00  0.00     0.210 C 
ENDBRANCH  26  31
ENDBRANCH  22  23
ENDBRANCH  21  22
ENDBRANCH  18  21
ENDBRANCH   1  17
TORSDOF 8
ENDMDL
MODEL 6
REMARK VINA RESULT:      -8.3      1.982      3.574
REMARK  8 active torsions:
REMARK  status: ('A' for Active; 'I' for Inactive)
REMARK    1  A    between atoms: C_5  and  S_6 
REMARK    2  A    between atoms: S_6  and  C_7 
REMARK    3  A    between atoms: C_7  and  C_8 
REMARK       I    between atoms: C_8  and  N_9 
REMARK    4  A    between atoms: N_9  and  C_10 
REMARK    5  A    between atoms: C_10  and  C_11 
REMARK    6  A    between atoms: C_11  and  C_12 
REMARK    7  A    between atoms: C_14  and  O_15 
REMARK    8  A    between atoms: C_17  and  O_18 
ROOT
HETATM    1  C   UNL     1      43.343 -12.219   7.060  1.00  0.00     0.185 C 
ENDROOT
BRANCH   1   2
HETATM    2  S   UNL     1      43.581 -13.919   6.465  1.00  0.00    -0.080 SA
BRANCH   2   3
HETATM    3  C   UNL     1      42.889 -13.809   4.881  1.00  0.00     0.197 A 
HETATM    4  N   UNL     1      42.779 -14.821   3.941  1.00  0.00    -0.271 N 
HETATM    5  C   UNL     1      42.067 -14.223   2.901  1.00  0.00     0.165 A 
HETATM    6  C   UNL     1      43.218 -16.175   3.886  1.00  0.00     0.053 A 
HETATM    7  C   UNL     1      41.692 -14.969   1.743  1.00  0.00    -0.013 A 
HETATM    8  N   UNL     1      41.839 -12.956   3.182  1.00  0.00    -0.128 NA
HETATM    9  C   UNL     1      40.892 -14.359   0.618  1.00  0.00     0.052 C 
HETATM   10  C   UNL     1      42.067 -16.261   1.671  1.00  0.00     0.024 A 
HETATM   11  C   UNL     1      42.850 -16.899   2.735  1.00  0.00    -0.008 A 
HETATM   12  C   UNL     1      43.237 -18.239   2.597  1.00  0.00     0.014 A 
HETATM   13  C   UNL     1      43.993 -18.856   3.591  1.00  0.00     0.001 A 
HETATM   14  C   UNL     1      44.367 -18.137   4.723  1.00  0.00     0.002 A 
HETATM   15  C   UNL     1      43.984 -16.800   4.874  1.00  0.00     0.031 A 
HETATM   16  N   UNL     1      42.355 -12.700   4.418  1.00  0.00    -0.122 NA
ENDBRANCH   2   3
ENDBRANCH   1   2
BRANCH   1  17
HETATM   17  C   UNL     1      44.692 -11.562   7.285  1.00  0.00     0.227 C 
HETATM   18  N   UNL     1      44.903 -10.819   8.418  1.00  0.00    -0.360 N 
HETATM   19  H   UNL     1      45.812 -10.370   8.402  1.00  0.00     0.162 HD
HETATM   20  O   UNL     1      45.622 -11.691   6.488  1.00  0.00    -0.273 OA
BRANCH  18  21
HETATM   21  C   UNL     1      43.884 -10.253   9.286  1.00  0.00     0.127 C 
BRANCH  21  22
HETATM   22  C   UNL     1      44.413  -9.990  10.697  1.00  0.00     0.058 C 
BRANCH  22  23
HETATM   23  C   UNL     1      43.352  -9.363  11.570  1.00  0.00    -0.054 A 
HETATM   24  C   UNL     1      42.033  -9.841  11.532  1.00  0.00     0.046 A 
HETATM   25  C   UNL     1      41.028  -9.237  12.297  1.00  0.00     0.102 A 
HETATM   26  C   UNL     1      41.348  -8.152  13.136  1.00  0.00     0.101 A 
HETATM   27  C   UNL     1      42.665  -7.682  13.180  1.00  0.00     0.040 A 
HETATM   28  C   UNL     1      43.659  -8.280  12.398  1.00  0.00     0.010 A 
BRANCH  25  29
HETATM   29  O   UNL     1      39.716  -9.642  12.302  1.00  0.00    -0.353 OA
HETATM   30  C   UNL     1      39.421 -10.887  12.922  1.00  0.00     0.210 C 
ENDBRANCH  25  29
BRANCH  26  31
HETATM   31  O   UNL     1      40.309  -7.620  13.858  1.00  0.00    -0.353 OA
HETATM   32  C   UNL     1      39.903  -6.294  13.551  1.00  0.00     0.210 C 
ENDBRANCH  26  31
ENDBRANCH  22  23
ENDBRANCH  21  22
ENDBRANCH  18  21
ENDBRANCH   1  17
TORSDOF 8
ENDMDL
MODEL 7
REMARK VINA RESULT:      -8.3      3.601      6.038
REMARK  8 active torsions:
REMARK  status: ('A' for Active; 'I' for Inactive)
REMARK    1  A    between atoms: C_5  and  S_6 
REMARK    2  A    between atoms: S_6  and  C_7 
REMARK    3  A    between atoms: C_7  and  C_8 
REMARK       I    between atoms: C_8  and  N_9 
REMARK    4  A    between atoms: N_9  and  C_10 
REMARK    5  A    between atoms: C_10  and  C_11 
REMARK    6  A    between atoms: C_11  and  C_12 
REMARK    7  A    between atoms: C_14  and  O_15 
REMARK    8  A    between atoms: C_17  and  O_18 
ROOT
HETATM    1  C   UNL     1      40.685 -14.465   0.486  1.00  0.00     0.185 C 
ENDROOT
BRANCH   1   2
HETATM    2  S   UNL     1      40.012 -15.751   1.578  1.00  0.00    -0.080 SA
BRANCH   2   3
HETATM    3  C   UNL     1      40.698 -15.281   3.097  1.00  0.00     0.197 A 
HETATM    4  N   UNL     1      41.764 -15.873   3.756  1.00  0.00    -0.271 N 
HETATM    5  C   UNL     1      41.958 -15.050   4.865  1.00  0.00     0.165 A 
HETATM    6  C   UNL     1      42.568 -17.022   3.507  1.00  0.00     0.053 A 
HETATM    7  C   UNL     1      43.024 -15.294   5.783  1.00  0.00    -0.013 A 
HETATM    8  N   UNL     1      41.045 -14.101   4.886  1.00  0.00    -0.128 NA
HETATM    9  C   UNL     1      43.279 -14.401   6.972  1.00  0.00     0.052 C 
HETATM   10  C   UNL     1      43.822 -16.357   5.562  1.00  0.00     0.024 A 
HETATM   11  C   UNL     1      43.611 -17.258   4.424  1.00  0.00    -0.008 A 
HETATM   12  C   UNL     1      44.455 -18.364   4.256  1.00  0.00     0.014 A 
HETATM   13  C   UNL     1      44.260 -19.238   3.189  1.00  0.00     0.001 A 
HETATM   14  C   UNL     1      43.222 -19.012   2.289  1.00  0.00     0.002 A 
HETATM   15  C   UNL     1      42.375 -17.909   2.444  1.00  0.00     0.031 A 
HETATM   16  N   UNL     1      40.258 -14.248   3.782  1.00  0.00    -0.122 NA
ENDBRANCH   2   3
ENDBRANCH   1   2
BRANCH   1  17
HETATM   17  C   UNL     1      39.587 -13.930  -0.413  1.00  0.00     0.227 C 
HETATM   18  N   UNL     1      38.988 -12.734  -0.113  1.00  0.00    -0.360 N 
HETATM   19  H   UNL     1      38.218 -12.536  -0.743  1.00  0.00     0.162 HD
HETATM   20  O   UNL     1      39.224 -14.528  -1.427  1.00  0.00    -0.273 OA
BRANCH  18  21
HETATM   21  C   UNL     1      38.999 -12.056   1.173  1.00  0.00     0.127 C 
BRANCH  21  22
HETATM   22  C   UNL     1      39.969 -10.874   1.191  1.00  0.00     0.058 C 
BRANCH  22  23
HETATM   23  C   UNL     1      40.880 -10.933   2.394  1.00  0.00    -0.054 A 
HETATM   24  C   UNL     1      40.404 -10.557   3.660  1.00  0.00     0.046 A 
HETATM   25  C   UNL     1      41.251 -10.558   4.775  1.00  0.00     0.102 A 
HETATM   26  C   UNL     1      42.591 -10.967   4.632  1.00  0.00     0.101 A 
HETATM   27  C   UNL     1      43.061 -11.351   3.372  1.00  0.00     0.040 A 
HETATM   28  C   UNL     1      42.213 -11.328   2.260  1.00  0.00     0.010 A 
BRANCH  25  29
HETATM   29  O   UNL     1      40.859 -10.192   6.039  1.00  0.00    -0.353 OA
HETATM   30  C   UNL     1      39.778 -10.910   6.620  1.00  0.00     0.210 C 
ENDBRANCH  25  29
BRANCH  26  31
HETATM   31  O   UNL     1      43.353 -10.946   5.772  1.00  0.00    -0.353 OA
HETATM   32  C   UNL     1      44.712 -11.343   5.664  1.00  0.00     0.210 C 
ENDBRANCH  26  31
ENDBRANCH  22  23
ENDBRANCH  21  22
ENDBRANCH  18  21
ENDBRANCH   1  17
TORSDOF 8
ENDMDL
MODEL 8
REMARK VINA RESULT:      -8.3      4.322      8.474
REMARK  8 active torsions:
REMARK  status: ('A' for Active; 'I' for Inactive)
REMARK    1  A    between atoms: C_5  and  S_6 
REMARK    2  A    between atoms: S_6  and  C_7 
REMARK    3  A    between atoms: C_7  and  C_8 
REMARK       I    between atoms: C_8  and  N_9 
REMARK    4  A    between atoms: N_9  and  C_10 
REMARK    5  A    between atoms: C_10  and  C_11 
REMARK    6  A    between atoms: C_11  and  C_12 
REMARK    7  A    between atoms: C_14  and  O_15 
REMARK    8  A    between atoms: C_17  and  O_18 
ROOT
HETATM    1  C   UNL     1      42.623 -10.815   3.173  1.00  0.00     0.185 C 
ENDROOT
BRANCH   1   2
HETATM    2  S   UNL     1      41.026 -10.218   2.546  1.00  0.00    -0.080 SA
BRANCH   2   3
HETATM    3  C   UNL     1      41.078 -10.800   0.916  1.00  0.00     0.197 A 
HETATM    4  N   UNL     1      40.770 -12.075   0.469  1.00  0.00    -0.271 N 
HETATM    5  C   UNL     1      40.883 -11.971  -0.916  1.00  0.00     0.165 A 
HETATM    6  C   UNL     1      40.409 -13.292   1.117  1.00  0.00     0.053 A 
HETATM    7  C   UNL     1      40.583 -13.081  -1.764  1.00  0.00    -0.013 A 
HETATM    8  N   UNL     1      41.285 -10.761  -1.246  1.00  0.00    -0.128 NA
HETATM    9  C   UNL     1      40.663 -12.988  -3.268  1.00  0.00     0.052 C 
HETATM   10  C   UNL     1      40.212 -14.240  -1.185  1.00  0.00     0.024 A 
HETATM   11  C   UNL     1      40.125 -14.383   0.272  1.00  0.00    -0.008 A 
HETATM   12  C   UNL     1      39.759 -15.618   0.823  1.00  0.00     0.014 A 
HETATM   13  C   UNL     1      39.686 -15.775   2.205  1.00  0.00     0.001 A 
HETATM   14  C   UNL     1      39.979 -14.701   3.041  1.00  0.00     0.002 A 
HETATM   15  C   UNL     1      40.342 -13.461   2.503  1.00  0.00     0.031 A 
HETATM   16  N   UNL     1      41.408 -10.031  -0.100  1.00  0.00    -0.122 NA
ENDBRANCH   2   3
ENDBRANCH   1   2
BRANCH   1  17
HETATM   17  C   UNL     1      42.530 -11.052   4.669  1.00  0.00     0.227 C 
HETATM   18  N   UNL     1      43.048 -12.202   5.206  1.00  0.00    -0.360 N 
HETATM   19  H   UNL     1      42.845 -12.271   6.197  1.00  0.00     0.162 HD
HETATM   20  O   UNL     1      42.018 -10.229   5.429  1.00  0.00    -0.273 OA
BRANCH  18  21
HETATM   21  C   UNL     1      43.363 -13.428   4.493  1.00  0.00     0.127 C 
BRANCH  21  22
HETATM   22  C   UNL     1      43.013 -14.674   5.307  1.00  0.00     0.058 C 
BRANCH  22  23
HETATM   23  C   UNL     1      43.278 -15.934   4.519  1.00  0.00    -0.054 A 
HETATM   24  C   UNL     1      43.692 -17.104   5.176  1.00  0.00     0.046 A 
HETATM   25  C   UNL     1      43.990 -18.266   4.453  1.00  0.00     0.102 A 
HETATM   26  C   UNL     1      43.848 -18.271   3.052  1.00  0.00     0.101 A 
HETATM   27  C   UNL     1      43.425 -17.108   2.400  1.00  0.00     0.040 A 
HETATM   28  C   UNL     1      43.148 -15.946   3.129  1.00  0.00     0.010 A 
BRANCH  25  29
HETATM   29  O   UNL     1      44.412 -19.441   5.026  1.00  0.00    -0.353 OA
HETATM   30  C   UNL     1      43.566 -20.028   6.007  1.00  0.00     0.210 C 
ENDBRANCH  25  29
BRANCH  26  31
HETATM   31  O   UNL     1      44.153 -19.449   2.419  1.00  0.00    -0.353 OA
HETATM   32  C   UNL     1      43.074 -20.245   1.952  1.00  0.00     0.210 C 
ENDBRANCH  26  31
ENDBRANCH  22  23
ENDBRANCH  21  22
ENDBRANCH  18  21
ENDBRANCH   1  17
TORSDOF 8
ENDMDL
MODEL 9
REMARK VINA RESULT:      -8.2      1.590      1.952
REMARK  8 active torsions:
REMARK  status: ('A' for Active; 'I' for Inactive)
REMARK    1  A    between atoms: C_5  and  S_6 
REMARK    2  A    between atoms: S_6  and  C_7 
REMARK    3  A    between atoms: C_7  and  C_8 
REMARK       I    between atoms: C_8  and  N_9 
REMARK    4  A    between atoms: N_9  and  C_10 
REMARK    5  A    between atoms: C_10  and  C_11 
REMARK    6  A    between atoms: C_11  and  C_12 
REMARK    7  A    between atoms: C_14  and  O_15 
REMARK    8  A    between atoms: C_17  and  O_18 
ROOT
HETATM    1  C   UNL     1      43.905 -12.230   7.301  1.00  0.00     0.185 C 
ENDROOT
BRANCH   1   2
HETATM    2  S   UNL     1      42.695 -12.742   6.045  1.00  0.00    -0.080 SA
BRANCH   2   3
HETATM    3  C   UNL     1      43.195 -14.375   5.758  1.00  0.00     0.197 A 
HETATM    4  N   UNL     1      42.776 -15.214   4.738  1.00  0.00    -0.271 N 
HETATM    5  C   UNL     1      43.554 -16.358   4.918  1.00  0.00     0.165 A 
HETATM    6  C   UNL     1      41.816 -15.100   3.692  1.00  0.00     0.053 A 
HETATM    7  C   UNL     1      43.461 -17.460   4.014  1.00  0.00    -0.013 A 
HETATM    8  N   UNL     1      44.311 -16.223   5.987  1.00  0.00    -0.128 NA
HETATM    9  C   UNL     1      44.314 -18.695   4.164  1.00  0.00     0.052 C 
HETATM   10  C   UNL     1      42.582 -17.374   2.997  1.00  0.00     0.024 A 
HETATM   11  C   UNL     1      41.727 -16.197   2.812  1.00  0.00    -0.008 A 
HETATM   12  C   UNL     1      40.811 -16.170   1.752  1.00  0.00     0.014 A 
HETATM   13  C   UNL     1      39.980 -15.066   1.570  1.00  0.00     0.001 A 
HETATM   14  C   UNL     1      40.060 -13.988   2.447  1.00  0.00     0.002 A 
HETATM   15  C   UNL     1      40.973 -14.001   3.507  1.00  0.00     0.031 A 
HETATM   16  N   UNL     1      44.085 -14.984   6.512  1.00  0.00    -0.122 NA
ENDBRANCH   2   3
ENDBRANCH   1   2
BRANCH   1  17
HETATM   17  C   UNL     1      44.890 -11.249   6.693  1.00  0.00     0.227 C 
HETATM   18  N   UNL     1      45.607 -10.414   7.511  1.00  0.00    -0.360 N 
HETATM   19  H   UNL     1      46.162  -9.757   6.974  1.00  0.00     0.162 HD
HETATM   20  O   UNL     1      45.086 -11.188   5.478  1.00  0.00    -0.273 OA
BRANCH  18  21
HETATM   21  C   UNL     1      45.294 -10.070   8.888  1.00  0.00     0.127 C 
BRANCH  21  22
HETATM   22  C   UNL     1      44.370  -8.855   8.982  1.00  0.00     0.058 C 
BRANCH  22  23
HETATM   23  C   UNL     1      43.456  -8.955  10.179  1.00  0.00    -0.054 A 
HETATM   24  C   UNL     1      42.114  -9.333  10.014  1.00  0.00     0.046 A 
HETATM   25  C   UNL     1      41.241  -9.381  11.107  1.00  0.00     0.102 A 
HETATM   26  C   UNL     1      41.720  -9.072  12.395  1.00  0.00     0.101 A 
HETATM   27  C   UNL     1      43.060  -8.705  12.560  1.00  0.00     0.040 A 
HETATM   28  C   UNL     1      43.920  -8.642  11.459  1.00  0.00     0.010 A 
BRANCH  25  29
HETATM   29  O   UNL     1      39.916  -9.729  11.019  1.00  0.00    -0.353 OA
HETATM   30  C   UNL     1      39.320  -9.707   9.729  1.00  0.00     0.210 C 
ENDBRANCH  25  29
BRANCH  26  31
HETATM   31  O   UNL     1      40.805  -9.149  13.414  1.00  0.00    -0.353 OA
HETATM   32  C   UNL     1      41.229  -8.760  14.712  1.00  0.00     0.210 C 
ENDBRANCH  26  31
ENDBRANCH  22  23
ENDBRANCH  21  22
ENDBRANCH  18  21
ENDBRANCH   1  17
TORSDOF 8
ENDMDL
MODEL 10
REMARK VINA RESULT:      -8.2      4.164      8.009
REMARK  8 active torsions:
REMARK  status: ('A' for Active; 'I' for Inactive)
REMARK    1  A    between atoms: C_5  and  S_6 
REMARK    2  A    between atoms: S_6  and  C_7 
REMARK    3  A    between atoms: C_7  and  C_8 
REMARK       I    between atoms: C_8  and  N_9 
REMARK    4  A    between atoms: N_9  and  C_10 
REMARK    5  A    between atoms: C_10  and  C_11 
REMARK    6  A    between atoms: C_11  and  C_12 
REMARK    7  A    between atoms: C_14  and  O_15 
REMARK    8  A    between atoms: C_17  and  O_18 
ROOT
HETATM    1  C   UNL     1      39.696 -12.991   2.598  1.00  0.00     0.185 C 
ENDROOT
BRANCH   1   2
HETATM    2  S   UNL     1      39.378 -11.579   3.695  1.00  0.00    -0.080 SA
BRANCH   2   3
HETATM    3  C   UNL     1      40.970 -11.275   4.304  1.00  0.00     0.197 A 
HETATM    4  N   UNL     1      41.732 -12.102   5.114  1.00  0.00    -0.271 N 
HETATM    5  C   UNL     1      42.946 -11.425   5.220  1.00  0.00     0.165 A 
HETATM    6  C   UNL     1      41.495 -13.351   5.756  1.00  0.00     0.053 A 
HETATM    7  C   UNL     1      44.042 -11.989   5.941  1.00  0.00    -0.013 A 
HETATM    8  N   UNL     1      42.877 -10.274   4.583  1.00  0.00    -0.128 NA
HETATM    9  C   UNL     1      45.378 -11.296   6.043  1.00  0.00     0.052 C 
HETATM   10  C   UNL     1      43.861 -13.184   6.538  1.00  0.00     0.024 A 
HETATM   11  C   UNL     1      42.580 -13.894   6.472  1.00  0.00    -0.008 A 
HETATM   12  C   UNL     1      42.438 -15.122   7.134  1.00  0.00     0.014 A 
HETATM   13  C   UNL     1      41.223 -15.803   7.094  1.00  0.00     0.001 A 
HETATM   14  C   UNL     1      40.147 -15.260   6.397  1.00  0.00     0.002 A 
HETATM   15  C   UNL     1      40.278 -14.037   5.729  1.00  0.00     0.031 A 
HETATM   16  N   UNL     1      41.641 -10.181   4.013  1.00  0.00    -0.122 NA
ENDBRANCH   2   3
ENDBRANCH   1   2
BRANCH   1  17
HETATM   17  C   UNL     1      40.771 -12.625   1.591  1.00  0.00     0.227 C 
HETATM   18  N   UNL     1      41.839 -13.465   1.406  1.00  0.00    -0.360 N 
HETATM   19  H   UNL     1      42.521 -13.063   0.772  1.00  0.00     0.162 HD
HETATM   20  O   UNL     1      40.708 -11.599   0.912  1.00  0.00    -0.273 OA
BRANCH  18  21
HETATM   21  C   UNL     1      42.292 -14.507   2.313  1.00  0.00     0.127 C 
BRANCH  21  22
HETATM   22  C   UNL     1      42.991 -15.649   1.574  1.00  0.00     0.058 C 
BRANCH  22  23
HETATM   23  C   UNL     1      43.312 -16.789   2.509  1.00  0.00    -0.054 A 
HETATM   24  C   UNL     1      43.619 -16.534   3.855  1.00  0.00     0.046 A 
HETATM   25  C   UNL     1      43.968 -17.576   4.722  1.00  0.00     0.102 A 
HETATM   26  C   UNL     1      43.987 -18.901   4.247  1.00  0.00     0.101 A 
HETATM   27  C   UNL     1      43.671 -19.156   2.908  1.00  0.00     0.040 A 
HETATM   28  C   UNL     1      43.342 -18.106   2.044  1.00  0.00     0.010 A 
BRANCH  25  29
HETATM   29  O   UNL     1      44.291 -17.400   6.045  1.00  0.00    -0.353 OA
HETATM   30  C   UNL     1      45.335 -16.482   6.345  1.00  0.00     0.210 C 
ENDBRANCH  25  29
BRANCH  26  31
HETATM   31  O   UNL     1      44.332 -19.865   5.160  1.00  0.00    -0.353 OA
HETATM   32  C   UNL     1      43.688 -21.127   5.063  1.00  0.00     0.210 C 
ENDBRANCH  26  31
ENDBRANCH  22  23
ENDBRANCH  21  22
ENDBRANCH  18  21
ENDBRANCH   1  17
TORSDOF 8
ENDMDL
