MODEL 1
REMARK VINA RESULT:      -7.4      0.000      0.000
REMARK  5 active torsions:
REMARK  status: ('A' for Active; 'I' for Inactive)
REMARK    1  A    between atoms: C_7  and  O_8 
REMARK    2  A    between atoms: O_8  and  C_9 
REMARK    3  A    between atoms: C_12  and  N_13 
REMARK    4  A    between atoms: N_13  and  C_16 
REMARK    5  A    between atoms: C_16  and  C_17 
ROOT
HETATM    1  C   UNL     1      43.511 -17.613   2.770  1.00  0.00     0.028 A 
HETATM    2  C   UNL     1      43.751 -18.929   3.157  1.00  0.00     0.062 A 
HETATM    3  C   UNL     1      43.670 -20.009   2.227  1.00  0.00     0.101 C 
HETATM    4  N   UNL     1      43.611 -20.902   1.490  1.00  0.00    -0.191 NA
HETATM    5  C   UNL     1      44.074 -19.169   4.488  1.00  0.00     0.142 A 
HETATM    6  N   UNL     1      44.174 -18.206   5.443  1.00  0.00    -0.236 NA
HETATM    7  C   UNL     1      43.929 -16.941   5.030  1.00  0.00     0.164 A 
HETATM    8  C   UNL     1      43.603 -16.602   3.723  1.00  0.00     0.059 A 
ENDROOT
BRANCH   7   9
HETATM    9  O   UNL     1      43.995 -15.887   5.909  1.00  0.00    -0.329 OA
BRANCH   9  10
HETATM   10  C   UNL     1      42.827 -15.122   6.197  1.00  0.00     0.130 C 
HETATM   11  C   UNL     1      41.534 -15.949   6.206  1.00  0.00     0.034 C 
HETATM   12  C   UNL     1      40.332 -15.100   6.616  1.00  0.00     0.035 C 
HETATM   13  C   UNL     1      40.198 -13.811   5.800  1.00  0.00     0.186 C 
HETATM   14  C   UNL     1      41.499 -13.000   5.812  1.00  0.00     0.035 C 
HETATM   15  C   UNL     1      42.721 -13.817   5.394  1.00  0.00     0.034 C 
BRANCH  13  16
HETATM   16  N   UNL     1      39.835 -14.123   4.388  1.00  0.00    -0.066 N 
HETATM   17  H   UNL     1      40.590 -14.665   3.928  1.00  0.00     0.278 HD
HETATM   18  H   UNL     1      39.023 -14.752   4.309  1.00  0.00     0.278 HD
BRANCH  16  19
HETATM   19  C   UNL     1      39.630 -12.952   3.470  1.00  0.00     0.292 C 
BRANCH  19  20
HETATM   20  C   UNL     1      39.765 -13.403   2.052  1.00  0.00     0.067 A 
HETATM   21  N   UNL     1      39.968 -14.767   1.833  1.00  0.00    -0.256 NA
HETATM   22  C   UNL     1      40.085 -14.986   0.537  1.00  0.00     0.166 A 
HETATM   23  S   UNL     1      39.970 -13.606  -0.474  1.00  0.00    -0.092 SA
HETATM   24  C   UNL     1      39.744 -12.622   0.913  1.00  0.00     0.080 A 
ENDBRANCH  19  20
ENDBRANCH  16  19
ENDBRANCH  13  16
ENDBRANCH   9  10
ENDBRANCH   7   9
TORSDOF 5
ENDMDL
MODEL 2
REMARK VINA RESULT:      -7.4      3.602      4.944
REMARK  5 active torsions:
REMARK  status: ('A' for Active; 'I' for Inactive)
REMARK    1  A    between atoms: C_7  and  O_8 
REMARK    2  A    between atoms: O_8  and  C_9 
REMARK    3  A    between atoms: C_12  and  N_13 
REMARK    4  A    between atoms: N_13  and  C_16 
REMARK    5  A    between atoms: C_16  and  C_17 
ROOT
HETATM    1  C   UNL     1      42.834 -17.636   2.665  1.00  0.00     0.028 A 
HETATM    2  C   UNL     1      43.582 -18.762   2.996  1.00  0.00     0.062 A 
HETATM    3  C   UNL     1      43.613 -19.914   2.153  1.00  0.00     0.101 C 
HETATM    4  N   UNL     1      43.652 -20.860   1.485  1.00  0.00    -0.191 NA
HETATM    5  C   UNL     1      44.308 -18.738   4.182  1.00  0.00     0.142 A 
HETATM    6  N   UNL     1      44.340 -17.688   5.045  1.00  0.00    -0.236 NA
HETATM    7  C   UNL     1      43.597 -16.614   4.692  1.00  0.00     0.164 A 
HETATM    8  C   UNL     1      42.842 -16.543   3.528  1.00  0.00     0.059 A 
ENDROOT
BRANCH   7   9
HETATM    9  O   UNL     1      43.548 -15.497   5.491  1.00  0.00    -0.329 OA
BRANCH   9  10
HETATM   10  C   UNL     1      42.569 -14.489   5.252  1.00  0.00     0.130 C 
HETATM   11  C   UNL     1      43.166 -13.122   4.893  1.00  0.00     0.034 C 
HETATM   12  C   UNL     1      42.075 -12.108   4.552  1.00  0.00     0.035 C 
HETATM   13  C   UNL     1      40.988 -12.010   5.626  1.00  0.00     0.186 C 
HETATM   14  C   UNL     1      40.402 -13.387   5.962  1.00  0.00     0.035 C 
HETATM   15  C   UNL     1      41.468 -14.422   6.321  1.00  0.00     0.034 C 
BRANCH  13  16
HETATM   16  N   UNL     1      41.537 -11.400   6.870  1.00  0.00    -0.066 N 
HETATM   17  H   UNL     1      40.774 -11.182   7.537  1.00  0.00     0.278 HD
HETATM   18  H   UNL     1      42.132 -12.045   7.408  1.00  0.00     0.278 HD
BRANCH  16  19
HETATM   19  C   UNL     1      42.259 -10.092   6.718  1.00  0.00     0.292 C 
BRANCH  19  20
HETATM   20  C   UNL     1      43.462 -10.082   7.603  1.00  0.00     0.067 A 
HETATM   21  N   UNL     1      44.617 -10.696   7.117  1.00  0.00    -0.256 NA
HETATM   22  C   UNL     1      45.569 -10.614   8.027  1.00  0.00     0.166 A 
HETATM   23  S   UNL     1      45.147  -9.824   9.489  1.00  0.00    -0.092 SA
HETATM   24  C   UNL     1      43.566  -9.559   8.878  1.00  0.00     0.080 A 
ENDBRANCH  19  20
ENDBRANCH  16  19
ENDBRANCH  13  16
ENDBRANCH   9  10
ENDBRANCH   7   9
TORSDOF 5
ENDMDL
MODEL 3
REMARK VINA RESULT:      -7.1      4.386      5.863
REMARK  5 active torsions:
REMARK  status: ('A' for Active; 'I' for Inactive)
REMARK    1  A    between atoms: C_7  and  O_8 
REMARK    2  A    between atoms: O_8  and  C_9 
REMARK    3  A    between atoms: C_12  and  N_13 
REMARK    4  A    between atoms: N_13  and  C_16 
REMARK    5  A    between atoms: C_16  and  C_17 
ROOT
HETATM    1  C   UNL     1      42.301 -17.550   2.303  1.00  0.00     0.028 A 
HETATM    2  C   UNL     1      43.197 -18.415   2.926  1.00  0.00     0.062 A 
HETATM    3  C   UNL     1      43.628 -19.624   2.300  1.00  0.00     0.101 C 
HETATM    4  N   UNL     1      43.992 -20.610   1.811  1.00  0.00    -0.191 NA
HETATM    5  C   UNL     1      43.667 -18.070   4.188  1.00  0.00     0.142 A 
HETATM    6  N   UNL     1      43.313 -16.942   4.861  1.00  0.00    -0.236 NA
HETATM    7  C   UNL     1      42.438 -16.129   4.226  1.00  0.00     0.164 A 
HETATM    8  C   UNL     1      41.916 -16.387   2.965  1.00  0.00     0.059 A 
ENDROOT
BRANCH   7   9
HETATM    9  O   UNL     1      42.004 -14.965   4.812  1.00  0.00    -0.329 OA
BRANCH   9  10
HETATM   10  C   UNL     1      42.930 -13.915   5.089  1.00  0.00     0.130 C 
HETATM   11  C   UNL     1      43.470 -13.933   6.525  1.00  0.00     0.034 C 
HETATM   12  C   UNL     1      44.527 -12.851   6.736  1.00  0.00     0.035 C 
HETATM   13  C   UNL     1      44.060 -11.459   6.302  1.00  0.00     0.186 C 
HETATM   14  C   UNL     1      43.531 -11.467   4.862  1.00  0.00     0.035 C 
HETATM   15  C   UNL     1      42.461 -12.530   4.620  1.00  0.00     0.034 C 
BRANCH  13  16
HETATM   16  N   UNL     1      42.986 -10.962   7.210  1.00  0.00    -0.066 N 
HETATM   17  H   UNL     1      42.105 -10.814   6.685  1.00  0.00     0.278 HD
HETATM   18  H   UNL     1      42.712 -11.650   7.926  1.00  0.00     0.278 HD
BRANCH  16  19
HETATM   19  C   UNL     1      43.228  -9.639   7.878  1.00  0.00     0.292 C 
BRANCH  19  20
HETATM   20  C   UNL     1      43.184  -9.816   9.361  1.00  0.00     0.067 A 
HETATM   21  N   UNL     1      43.979 -10.826   9.906  1.00  0.00    -0.256 NA
HETATM   22  C   UNL     1      43.806 -10.857  11.214  1.00  0.00     0.166 A 
HETATM   23  S   UNL     1      42.700  -9.714  11.855  1.00  0.00    -0.092 SA
HETATM   24  C   UNL     1      42.418  -9.115  10.271  1.00  0.00     0.080 A 
ENDBRANCH  19  20
ENDBRANCH  16  19
ENDBRANCH  13  16
ENDBRANCH   9  10
ENDBRANCH   7   9
TORSDOF 5
ENDMDL
MODEL 4
REMARK VINA RESULT:      -6.6      3.481      6.672
REMARK  5 active torsions:
REMARK  status: ('A' for Active; 'I' for Inactive)
REMARK    1  A    between atoms: C_7  and  O_8 
REMARK    2  A    between atoms: O_8  and  C_9 
REMARK    3  A    between atoms: C_12  and  N_13 
REMARK    4  A    between atoms: N_13  and  C_16 
REMARK    5  A    between atoms: C_16  and  C_17 
ROOT
HETATM    1  C   UNL     1      42.426 -11.888   6.061  1.00  0.00     0.028 A 
HETATM    2  C   UNL     1      43.754 -11.537   6.285  1.00  0.00     0.062 A 
HETATM    3  C   UNL     1      44.265 -11.345   7.604  1.00  0.00     0.101 C 
HETATM    4  N   UNL     1      44.702 -11.184   8.666  1.00  0.00    -0.191 NA
HETATM    5  C   UNL     1      44.582 -11.375   5.180  1.00  0.00     0.142 A 
HETATM    6  N   UNL     1      44.185 -11.537   3.889  1.00  0.00    -0.236 NA
HETATM    7  C   UNL     1      42.887 -11.873   3.711  1.00  0.00     0.164 A 
HETATM    8  C   UNL     1      41.986 -12.060   4.752  1.00  0.00     0.059 A 
ENDROOT
BRANCH   7   9
HETATM    9  O   UNL     1      42.373 -12.057   2.450  1.00  0.00    -0.329 OA
BRANCH   9  10
HETATM   10  C   UNL     1      42.233 -13.372   1.919  1.00  0.00     0.130 C 
HETATM   11  C   UNL     1      40.836 -13.974   2.120  1.00  0.00     0.034 C 
HETATM   12  C   UNL     1      40.714 -15.340   1.447  1.00  0.00     0.035 C 
HETATM   13  C   UNL     1      41.833 -16.308   1.843  1.00  0.00     0.186 C 
HETATM   14  C   UNL     1      43.218 -15.686   1.625  1.00  0.00     0.035 C 
HETATM   15  C   UNL     1      43.378 -14.323   2.297  1.00  0.00     0.034 C 
BRANCH  13  16
HETATM   16  N   UNL     1      41.698 -16.704   3.274  1.00  0.00    -0.066 N 
HETATM   17  H   UNL     1      41.490 -15.876   3.863  1.00  0.00     0.278 HD
HETATM   18  H   UNL     1      40.891 -17.318   3.449  1.00  0.00     0.278 HD
BRANCH  16  19
HETATM   19  C   UNL     1      42.912 -17.304   3.924  1.00  0.00     0.292 C 
BRANCH  19  20
HETATM   20  C   UNL     1      43.062 -16.749   5.303  1.00  0.00     0.067 A 
HETATM   21  N   UNL     1      43.981 -17.376   6.146  1.00  0.00    -0.256 NA
HETATM   22  C   UNL     1      43.972 -16.776   7.321  1.00  0.00     0.166 A 
HETATM   23  S   UNL     1      42.883 -15.462   7.488  1.00  0.00    -0.092 SA
HETATM   24  C   UNL     1      42.371 -15.695   5.867  1.00  0.00     0.080 A 
ENDBRANCH  19  20
ENDBRANCH  16  19
ENDBRANCH  13  16
ENDBRANCH   9  10
ENDBRANCH   7   9
TORSDOF 5
ENDMDL
MODEL 5
REMARK VINA RESULT:      -6.5     14.417     16.802
REMARK  5 active torsions:
REMARK  status: ('A' for Active; 'I' for Inactive)
REMARK    1  A    between atoms: C_7  and  O_8 
REMARK    2  A    between atoms: O_8  and  C_9 
REMARK    3  A    between atoms: C_12  and  N_13 
REMARK    4  A    between atoms: N_13  and  C_16 
REMARK    5  A    between atoms: C_16  and  C_17 
ROOT
HETATM    1  C   UNL     1      47.199 -28.065  -1.702  1.00  0.00     0.028 A 
HETATM    2  C   UNL     1      45.911 -28.508  -1.987  1.00  0.00     0.062 A 
HETATM    3  C   UNL     1      45.462 -28.690  -3.330  1.00  0.00     0.101 C 
HETATM    4  N   UNL     1      45.076 -28.845  -4.412  1.00  0.00    -0.191 NA
HETATM    5  C   UNL     1      45.060 -28.772  -0.920  1.00  0.00     0.142 A 
HETATM    6  N   UNL     1      45.398 -28.628   0.390  1.00  0.00    -0.236 NA
HETATM    7  C   UNL     1      46.656 -28.190   0.627  1.00  0.00     0.164 A 
HETATM    8  C   UNL     1      47.578 -27.904  -0.372  1.00  0.00     0.059 A 
ENDROOT
BRANCH   7   9
HETATM    9  O   UNL     1      47.107 -28.002   1.911  1.00  0.00    -0.329 OA
BRANCH   9  10
HETATM   10  C   UNL     1      47.749 -29.067   2.608  1.00  0.00     0.130 C 
HETATM   11  C   UNL     1      49.064 -28.656   3.285  1.00  0.00     0.034 C 
HETATM   12  C   UNL     1      49.657 -29.808   4.096  1.00  0.00     0.035 C 
HETATM   13  C   UNL     1      49.789 -31.105   3.293  1.00  0.00     0.186 C 
HETATM   14  C   UNL     1      48.462 -31.496   2.633  1.00  0.00     0.035 C 
HETATM   15  C   UNL     1      47.848 -30.370   1.802  1.00  0.00     0.034 C 
BRANCH  13  16
HETATM   16  N   UNL     1      50.832 -30.960   2.237  1.00  0.00    -0.066 N 
HETATM   17  H   UNL     1      50.587 -30.190   1.586  1.00  0.00     0.278 HD
HETATM   18  H   UNL     1      51.745 -30.662   2.608  1.00  0.00     0.278 HD
BRANCH  16  19
HETATM   19  C   UNL     1      51.040 -32.138   1.330  1.00  0.00     0.292 C 
BRANCH  19  20
HETATM   20  C   UNL     1      51.312 -31.654  -0.058  1.00  0.00     0.067 A 
HETATM   21  N   UNL     1      50.552 -30.577  -0.518  1.00  0.00    -0.256 NA
HETATM   22  C   UNL     1      50.903 -30.295  -1.758  1.00  0.00     0.166 A 
HETATM   23  S   UNL     1      52.129 -31.283  -2.436  1.00  0.00    -0.092 SA
HETATM   24  C   UNL     1      52.214 -32.168  -0.969  1.00  0.00     0.080 A 
ENDBRANCH  19  20
ENDBRANCH  16  19
ENDBRANCH  13  16
ENDBRANCH   9  10
ENDBRANCH   7   9
TORSDOF 5
ENDMDL
MODEL 6
REMARK VINA RESULT:      -6.5      3.529      6.878
REMARK  5 active torsions:
REMARK  status: ('A' for Active; 'I' for Inactive)
REMARK    1  A    between atoms: C_7  and  O_8 
REMARK    2  A    between atoms: O_8  and  C_9 
REMARK    3  A    between atoms: C_12  and  N_13 
REMARK    4  A    between atoms: N_13  and  C_16 
REMARK    5  A    between atoms: C_16  and  C_17 
ROOT
HETATM    1  C   UNL     1      43.957 -13.384   6.927  1.00  0.00     0.028 A 
HETATM    2  C   UNL     1      43.974 -11.996   7.029  1.00  0.00     0.062 A 
HETATM    3  C   UNL     1      44.959 -11.314   7.805  1.00  0.00     0.101 C 
HETATM    4  N   UNL     1      45.750 -10.740   8.428  1.00  0.00    -0.191 NA
HETATM    5  C   UNL     1      42.994 -11.280   6.349  1.00  0.00     0.142 A 
HETATM    6  N   UNL     1      42.018 -11.841   5.588  1.00  0.00    -0.236 NA
HETATM    7  C   UNL     1      42.031 -13.192   5.517  1.00  0.00     0.164 A 
HETATM    8  C   UNL     1      42.969 -13.992   6.157  1.00  0.00     0.059 A 
ENDROOT
BRANCH   7   9
HETATM    9  O   UNL     1      41.088 -13.869   4.781  1.00  0.00    -0.329 OA
BRANCH   9  10
HETATM   10  C   UNL     1      41.464 -14.545   3.583  1.00  0.00     0.130 C 
HETATM   11  C   UNL     1      41.155 -16.048   3.600  1.00  0.00     0.034 C 
HETATM   12  C   UNL     1      41.487 -16.700   2.259  1.00  0.00     0.035 C 
HETATM   13  C   UNL     1      42.909 -16.398   1.778  1.00  0.00     0.186 C 
HETATM   14  C   UNL     1      43.191 -14.891   1.764  1.00  0.00     0.035 C 
HETATM   15  C   UNL     1      42.881 -14.209   3.096  1.00  0.00     0.034 C 
BRANCH  13  16
HETATM   16  N   UNL     1      43.910 -17.071   2.655  1.00  0.00    -0.066 N 
HETATM   17  H   UNL     1      44.872 -16.777   2.402  1.00  0.00     0.278 HD
HETATM   18  H   UNL     1      43.837 -16.787   3.642  1.00  0.00     0.278 HD
BRANCH  16  19
HETATM   19  C   UNL     1      43.968 -18.569   2.586  1.00  0.00     0.292 C 
BRANCH  19  20
HETATM   20  C   UNL     1      43.885 -19.134   3.967  1.00  0.00     0.067 A 
HETATM   21  N   UNL     1      44.003 -20.519   4.098  1.00  0.00    -0.256 NA
HETATM   22  C   UNL     1      43.888 -20.846   5.371  1.00  0.00     0.166 A 
HETATM   23  S   UNL     1      43.628 -19.549   6.462  1.00  0.00    -0.092 SA
HETATM   24  C   UNL     1      43.671 -18.448   5.146  1.00  0.00     0.080 A 
ENDBRANCH  19  20
ENDBRANCH  16  19
ENDBRANCH  13  16
ENDBRANCH   9  10
ENDBRANCH   7   9
TORSDOF 5
ENDMDL
MODEL 7
REMARK VINA RESULT:      -6.5      5.681      8.527
REMARK  5 active torsions:
REMARK  status: ('A' for Active; 'I' for Inactive)
REMARK    1  A    between atoms: C_7  and  O_8 
REMARK    2  A    between atoms: O_8  and  C_9 
REMARK    3  A    between atoms: C_12  and  N_13 
REMARK    4  A    between atoms: N_13  and  C_16 
REMARK    5  A    between atoms: C_16  and  C_17 
ROOT
HETATM    1  C   UNL     1      43.572  -8.475  11.788  1.00  0.00     0.028 A 
HETATM    2  C   UNL     1      42.985  -9.436  12.605  1.00  0.00     0.062 A 
HETATM    3  C   UNL     1      42.212  -9.074  13.750  1.00  0.00     0.101 C 
HETATM    4  N   UNL     1      41.581  -8.803  14.684  1.00  0.00    -0.191 NA
HETATM    5  C   UNL     1      43.170 -10.774  12.276  1.00  0.00     0.142 A 
HETATM    6  N   UNL     1      43.887 -11.213  11.207  1.00  0.00    -0.236 NA
HETATM    7  C   UNL     1      44.447 -10.250  10.440  1.00  0.00     0.164 A 
HETATM    8  C   UNL     1      44.316  -8.889  10.686  1.00  0.00     0.059 A 
ENDROOT
BRANCH   7   9
HETATM    9  O   UNL     1      45.200 -10.576   9.337  1.00  0.00    -0.329 OA
BRANCH   9  10
HETATM   10  C   UNL     1      44.611 -10.560   8.039  1.00  0.00     0.130 C 
HETATM   11  C   UNL     1      43.117 -10.209   8.044  1.00  0.00     0.034 C 
HETATM   12  C   UNL     1      42.563 -10.110   6.623  1.00  0.00     0.035 C 
HETATM   13  C   UNL     1      42.873 -11.342   5.768  1.00  0.00     0.186 C 
HETATM   14  C   UNL     1      44.372 -11.667   5.774  1.00  0.00     0.035 C 
HETATM   15  C   UNL     1      44.956 -11.787   7.181  1.00  0.00     0.034 C 
BRANCH  13  16
HETATM   16  N   UNL     1      42.117 -12.526   6.267  1.00  0.00    -0.066 N 
HETATM   17  H   UNL     1      42.741 -13.352   6.339  1.00  0.00     0.278 HD
HETATM   18  H   UNL     1      41.777 -12.412   7.231  1.00  0.00     0.278 HD
BRANCH  16  19
HETATM   19  C   UNL     1      40.985 -13.012   5.409  1.00  0.00     0.292 C 
BRANCH  19  20
HETATM   20  C   UNL     1      41.393 -14.270   4.713  1.00  0.00     0.067 A 
HETATM   21  N   UNL     1      42.602 -14.849   5.101  1.00  0.00    -0.256 NA
HETATM   22  C   UNL     1      42.817 -15.932   4.378  1.00  0.00     0.166 A 
HETATM   23  S   UNL     1      41.619 -16.309   3.211  1.00  0.00    -0.092 SA
HETATM   24  C   UNL     1      40.728 -14.925   3.695  1.00  0.00     0.080 A 
ENDBRANCH  19  20
ENDBRANCH  16  19
ENDBRANCH  13  16
ENDBRANCH   9  10
ENDBRANCH   7   9
TORSDOF 5
ENDMDL
MODEL 8
REMARK VINA RESULT:      -6.4      2.569      6.126
REMARK  5 active torsions:
REMARK  status: ('A' for Active; 'I' for Inactive)
REMARK    1  A    between atoms: C_7  and  O_8 
REMARK    2  A    between atoms: O_8  and  C_9 
REMARK    3  A    between atoms: C_12  and  N_13 
REMARK    4  A    between atoms: N_13  and  C_16 
REMARK    5  A    between atoms: C_16  and  C_17 
ROOT
HETATM    1  C   UNL     1      39.603 -12.450   0.129  1.00  0.00     0.028 A 
HETATM    2  C   UNL     1      39.979 -13.639  -0.488  1.00  0.00     0.062 A 
HETATM    3  C   UNL     1      40.120 -13.735  -1.905  1.00  0.00     0.101 C 
HETATM    4  N   UNL     1      40.241 -13.836  -3.054  1.00  0.00    -0.191 NA
HETATM    5  C   UNL     1      40.218 -14.747   0.319  1.00  0.00     0.142 A 
HETATM    6  N   UNL     1      40.109 -14.750   1.675  1.00  0.00    -0.236 NA
HETATM    7  C   UNL     1      39.736 -13.578   2.238  1.00  0.00     0.164 A 
HETATM    8  C   UNL     1      39.480 -12.419   1.516  1.00  0.00     0.059 A 
ENDROOT
BRANCH   7   9
HETATM    9  O   UNL     1      39.588 -13.465   3.599  1.00  0.00    -0.329 OA
BRANCH   9  10
HETATM   10  C   UNL     1      40.694 -13.718   4.463  1.00  0.00     0.130 C 
HETATM   11  C   UNL     1      42.057 -13.415   3.824  1.00  0.00     0.034 C 
HETATM   12  C   UNL     1      43.196 -13.610   4.823  1.00  0.00     0.035 C 
HETATM   13  C   UNL     1      43.162 -14.974   5.518  1.00  0.00     0.186 C 
HETATM   14  C   UNL     1      41.794 -15.248   6.153  1.00  0.00     0.035 C 
HETATM   15  C   UNL     1      40.632 -15.076   5.176  1.00  0.00     0.034 C 
BRANCH  13  16
HETATM   16  N   UNL     1      43.473 -16.062   4.546  1.00  0.00    -0.066 N 
HETATM   17  H   UNL     1      42.626 -16.321   4.007  1.00  0.00     0.278 HD
HETATM   18  H   UNL     1      44.131 -15.770   3.810  1.00  0.00     0.278 HD
BRANCH  16  19
HETATM   19  C   UNL     1      43.941 -17.367   5.123  1.00  0.00     0.292 C 
BRANCH  19  20
HETATM   20  C   UNL     1      43.748 -18.452   4.114  1.00  0.00     0.067 A 
HETATM   21  N   UNL     1      44.175 -19.733   4.466  1.00  0.00    -0.256 NA
HETATM   22  C   UNL     1      43.950 -20.558   3.461  1.00  0.00     0.166 A 
HETATM   23  S   UNL     1      43.239 -19.866   2.063  1.00  0.00    -0.092 SA
HETATM   24  C   UNL     1      43.219 -18.338   2.843  1.00  0.00     0.080 A 
ENDBRANCH  19  20
ENDBRANCH  16  19
ENDBRANCH  13  16
ENDBRANCH   9  10
ENDBRANCH   7   9
TORSDOF 5
ENDMDL
MODEL 9
REMARK VINA RESULT:      -6.3     15.041     17.303
REMARK  5 active torsions:
REMARK  status: ('A' for Active; 'I' for Inactive)
REMARK    1  A    between atoms: C_7  and  O_8 
REMARK    2  A    between atoms: O_8  and  C_9 
REMARK    3  A    between atoms: C_12  and  N_13 
REMARK    4  A    between atoms: N_13  and  C_16 
REMARK    5  A    between atoms: C_16  and  C_17 
ROOT
HETATM    1  C   UNL     1      44.003 -30.285  -5.085  1.00  0.00     0.028 A 
HETATM    2  C   UNL     1      44.258 -31.632  -4.849  1.00  0.00     0.062 A 
HETATM    3  C   UNL     1      44.376 -32.571  -5.918  1.00  0.00     0.101 C 
HETATM    4  N   UNL     1      44.477 -33.350  -6.770  1.00  0.00    -0.191 NA
HETATM    5  C   UNL     1      44.397 -32.048  -3.529  1.00  0.00     0.142 A 
HETATM    6  N   UNL     1      44.301 -31.228  -2.448  1.00  0.00    -0.236 NA
HETATM    7  C   UNL     1      44.047 -29.927  -2.718  1.00  0.00     0.164 A 
HETATM    8  C   UNL     1      43.896 -29.417  -4.001  1.00  0.00     0.059 A 
ENDROOT
BRANCH   7   9
HETATM    9  O   UNL     1      43.923 -29.008  -1.704  1.00  0.00    -0.329 OA
BRANCH   9  10
HETATM   10  C   UNL     1      45.083 -28.525  -1.030  1.00  0.00     0.130 C 
HETATM   11  C   UNL     1      46.314 -28.395  -1.937  1.00  0.00     0.034 C 
HETATM   12  C   UNL     1      47.496 -27.783  -1.187  1.00  0.00     0.035 C 
HETATM   13  C   UNL     1      47.810 -28.498   0.130  1.00  0.00     0.186 C 
HETATM   14  C   UNL     1      46.566 -28.608   1.020  1.00  0.00     0.035 C 
HETATM   15  C   UNL     1      45.367 -29.230   0.305  1.00  0.00     0.034 C 
BRANCH  13  16
HETATM   16  N   UNL     1      48.342 -29.866  -0.132  1.00  0.00    -0.066 N 
HETATM   17  H   UNL     1      47.651 -30.585   0.150  1.00  0.00     0.278 HD
HETATM   18  H   UNL     1      48.477 -30.061  -1.134  1.00  0.00     0.278 HD
BRANCH  16  19
HETATM   19  C   UNL     1      49.586 -30.259   0.610  1.00  0.00     0.292 C 
BRANCH  19  20
HETATM   20  C   UNL     1      50.609 -30.751  -0.362  1.00  0.00     0.067 A 
HETATM   21  N   UNL     1      50.692 -30.091  -1.589  1.00  0.00    -0.256 NA
HETATM   22  C   UNL     1      51.625 -30.662  -2.327  1.00  0.00     0.166 A 
HETATM   23  S   UNL     1      52.434 -31.997  -1.619  1.00  0.00    -0.092 SA
HETATM   24  C   UNL     1      51.476 -31.814  -0.207  1.00  0.00     0.080 A 
ENDBRANCH  19  20
ENDBRANCH  16  19
ENDBRANCH  13  16
ENDBRANCH   9  10
ENDBRANCH   7   9
TORSDOF 5
ENDMDL
MODEL 10
REMARK VINA RESULT:      -6.2     14.754     16.381
REMARK  5 active torsions:
REMARK  status: ('A' for Active; 'I' for Inactive)
REMARK    1  A    between atoms: C_7  and  O_8 
REMARK    2  A    between atoms: O_8  and  C_9 
REMARK    3  A    between atoms: C_12  and  N_13 
REMARK    4  A    between atoms: N_13  and  C_16 
REMARK    5  A    between atoms: C_16  and  C_17 
ROOT
HETATM    1  C   UNL     1      49.265 -29.147   3.779  1.00  0.00     0.028 A 
HETATM    2  C   UNL     1      49.755 -30.434   3.986  1.00  0.00     0.062 A 
HETATM    3  C   UNL     1      50.928 -30.673   4.765  1.00  0.00     0.101 C 
HETATM    4  N   UNL     1      51.877 -30.890   5.394  1.00  0.00    -0.191 NA
HETATM    5  C   UNL     1      49.067 -31.495   3.407  1.00  0.00     0.142 A 
HETATM    6  N   UNL     1      47.944 -31.365   2.652  1.00  0.00    -0.236 NA
HETATM    7  C   UNL     1      47.501 -30.099   2.469  1.00  0.00     0.164 A 
HETATM    8  C   UNL     1      48.119 -28.978   3.008  1.00  0.00     0.059 A 
ENDROOT
BRANCH   7   9
HETATM    9  O   UNL     1      46.379 -29.846   1.717  1.00  0.00    -0.329 OA
BRANCH   9  10
HETATM   10  C   UNL     1      46.480 -29.088   0.514  1.00  0.00     0.130 C 
HETATM   11  C   UNL     1      45.125 -28.790  -0.142  1.00  0.00     0.034 C 
HETATM   12  C   UNL     1      45.285 -27.895  -1.370  1.00  0.00     0.035 C 
HETATM   13  C   UNL     1      46.318 -28.423  -2.370  1.00  0.00     0.186 C 
HETATM   14  C   UNL     1      47.664 -28.707  -1.692  1.00  0.00     0.035 C 
HETATM   15  C   UNL     1      47.541 -29.611  -0.466  1.00  0.00     0.034 C 
BRANCH  13  16
HETATM   16  N   UNL     1      45.827 -29.674  -3.015  1.00  0.00    -0.066 N 
HETATM   17  H   UNL     1      46.581 -30.116  -3.573  1.00  0.00     0.278 HD
HETATM   18  H   UNL     1      45.583 -30.410  -2.337  1.00  0.00     0.278 HD
BRANCH  16  19
HETATM   19  C   UNL     1      44.699 -29.528  -3.996  1.00  0.00     0.292 C 
BRANCH  19  20
HETATM   20  C   UNL     1      44.912 -30.466  -5.140  1.00  0.00     0.067 A 
HETATM   21  N   UNL     1      43.882 -30.575  -6.075  1.00  0.00    -0.256 NA
HETATM   22  C   UNL     1      44.224 -31.454  -6.998  1.00  0.00     0.166 A 
HETATM   23  S   UNL     1      45.759 -32.192  -6.803  1.00  0.00    -0.092 SA
HETATM   24  C   UNL     1      46.006 -31.275  -5.374  1.00  0.00     0.080 A 
ENDBRANCH  19  20
ENDBRANCH  16  19
ENDBRANCH  13  16
ENDBRANCH   9  10
ENDBRANCH   7   9
TORSDOF 5
ENDMDL
