MODEL 1
REMARK VINA RESULT:      -9.8      0.000      0.000
REMARK  7 active torsions:
REMARK  status: ('A' for Active; 'I' for Inactive)
REMARK    1  A    between atoms: C_3  and  O_4 
REMARK    2  A    between atoms: C_8  and  C_9 
REMARK    3  A    between atoms: C_9  and  N_10 
REMARK    4  A    between atoms: C_15  and  O_16 
REMARK    5  A    between atoms: C_18  and  N_19 
REMARK       I    between atoms: N_19  and  C_20 
REMARK    6  A    between atoms: C_20  and  C_21 
REMARK    7  A    between atoms: C_21  and  C_22 
ROOT
HETATM    1  N   UNL     1      40.317 -13.220   1.579  1.00  0.00    -0.067 N 
HETATM    2  H   UNL     1      39.706 -12.414   1.402  1.00  0.00     0.280 HD
HETATM    3  C   UNL     1      39.586 -14.048   2.613  1.00  0.00     0.236 C 
HETATM    4  C   UNL     1      40.480 -15.154   3.163  1.00  0.00     0.045 C 
HETATM    5  C   UNL     1      41.832 -14.628   3.707  1.00  0.00     0.019 A 
HETATM    6  C   UNL     1      41.706 -13.825   5.071  1.00  0.00     0.161 A 
HETATM    7  C   UNL     1      42.635 -14.519   6.124  1.00  0.00     0.148 A 
HETATM    8  C   UNL     1      43.195 -15.700   5.393  1.00  0.00    -0.026 A 
HETATM    9  C   UNL     1      42.743 -15.781   4.076  1.00  0.00    -0.038 A 
HETATM   10  C   UNL     1      44.043 -16.671   5.919  1.00  0.00     0.010 A 
HETATM   11  C   UNL     1      44.454 -17.724   5.103  1.00  0.00     0.001 A 
HETATM   12  C   UNL     1      44.012 -17.803   3.779  1.00  0.00     0.001 A 
HETATM   13  C   UNL     1      43.156 -16.832   3.260  1.00  0.00     0.009 A 
HETATM   14  C   UNL     1      42.506 -13.776   2.608  1.00  0.00     0.045 C 
HETATM   15  C   UNL     1      41.604 -12.652   2.122  1.00  0.00     0.236 C 
ENDROOT
BRANCH   6  16
HETATM   16  O   UNL     1      40.329 -13.827   5.510  1.00  0.00    -0.387 OA
HETATM   17  C   UNL     1      39.875 -12.542   5.932  1.00  0.00     0.202 C 
ENDBRANCH   6  16
BRANCH   7  18
HETATM   18  N   UNL     1      43.675 -13.705   6.742  1.00  0.00    -0.350 N 
HETATM   19  C   UNL     1      44.068 -12.463   6.304  1.00  0.00     0.223 C 
HETATM   20  O   UNL     1      43.380 -11.796   5.529  1.00  0.00    -0.273 OA
HETATM   21  H   UNL     1      44.360 -14.233   7.272  1.00  0.00     0.163 HD
BRANCH  19  22
HETATM   22  C   UNL     1      45.388 -11.891   6.815  1.00  0.00     0.148 C 
BRANCH  22  23
HETATM   23  C   UNL     1      45.268 -10.707   7.727  1.00  0.00    -0.009 A 
HETATM   24  S   UNL     1      43.961 -10.593   8.833  1.00  0.00    -0.106 SA
HETATM   25  C   UNL     1      44.538  -9.113   9.462  1.00  0.00     0.050 A 
HETATM   26  C   UNL     1      45.709  -8.717   8.857  1.00  0.00     0.008 A 
HETATM   27  C   UNL     1      46.132  -9.637   7.856  1.00  0.00     0.015 A 
ENDBRANCH  22  23
ENDBRANCH  19  22
ENDBRANCH   7  18
BRANCH   1  28
HETATM   28  C   UNL     1      40.485 -13.878   0.224  1.00  0.00     0.273 C 
BRANCH  28  29
HETATM   29  C   UNL     1      39.413 -13.521  -0.768  1.00  0.00    -0.031 A 
HETATM   30  C   UNL     1      38.672 -12.339  -0.625  1.00  0.00     0.018 A 
HETATM   31  C   UNL     1      37.676 -11.999  -1.552  1.00  0.00    -0.028 A 
HETATM   32  C   UNL     1      37.454 -12.837  -2.653  1.00  0.00     0.077 A 
HETATM   33  C   UNL     1      36.928 -10.703  -1.389  1.00  0.00     0.051 C 
HETATM   34  C   UNL     1      38.189 -14.018  -2.828  1.00  0.00    -0.028 A 
HETATM   35  C   UNL     1      37.977 -14.927  -4.006  1.00  0.00     0.051 C 
HETATM   36  C   UNL     1      39.159 -14.353  -1.869  1.00  0.00     0.018 A 
BRANCH  32  37
HETATM   37  O   UNL     1      36.499 -12.445  -3.548  1.00  0.00    -0.360 OA
HETATM   38  H   UNL     1      36.001 -13.210  -3.876  1.00  0.00     0.217 HD
ENDBRANCH  32  37
ENDBRANCH  28  29
ENDBRANCH   1  28
TORSDOF 7
ENDMDL
MODEL 2
REMARK VINA RESULT:      -9.2      3.837      9.561
REMARK  7 active torsions:
REMARK  status: ('A' for Active; 'I' for Inactive)
REMARK    1  A    between atoms: C_3  and  O_4 
REMARK    2  A    between atoms: C_8  and  C_9 
REMARK    3  A    between atoms: C_9  and  N_10 
REMARK    4  A    between atoms: C_15  and  O_16 
REMARK    5  A    between atoms: C_18  and  N_19 
REMARK       I    between atoms: N_19  and  C_20 
REMARK    6  A    between atoms: C_20  and  C_21 
REMARK    7  A    between atoms: C_21  and  C_22 
ROOT
HETATM    1  N   UNL     1      45.210 -10.986   7.875  1.00  0.00    -0.067 N 
HETATM    2  H   UNL     1      45.796 -11.339   8.641  1.00  0.00     0.280 HD
HETATM    3  C   UNL     1      43.807 -11.443   8.211  1.00  0.00     0.236 C 
HETATM    4  C   UNL     1      42.859 -11.210   7.040  1.00  0.00     0.045 C 
HETATM    5  C   UNL     1      43.361 -11.836   5.716  1.00  0.00     0.019 A 
HETATM    6  C   UNL     1      43.273 -13.422   5.683  1.00  0.00     0.161 A 
HETATM    7  C   UNL     1      42.408 -13.829   4.442  1.00  0.00     0.148 A 
HETATM    8  C   UNL     1      41.974 -12.521   3.856  1.00  0.00    -0.026 A 
HETATM    9  C   UNL     1      42.472 -11.425   4.560  1.00  0.00    -0.038 A 
HETATM   10  C   UNL     1      41.136 -12.345   2.758  1.00  0.00     0.010 A 
HETATM   11  C   UNL     1      40.811 -11.051   2.356  1.00  0.00     0.001 A 
HETATM   12  C   UNL     1      41.316  -9.949   3.052  1.00  0.00     0.001 A 
HETATM   13  C   UNL     1      42.150 -10.131   4.156  1.00  0.00     0.009 A 
HETATM   14  C   UNL     1      44.801 -11.342   5.453  1.00  0.00     0.045 C 
HETATM   15  C   UNL     1      45.729 -11.641   6.620  1.00  0.00     0.236 C 
ENDROOT
BRANCH   6  16
HETATM   16  O   UNL     1      42.681 -13.900   6.911  1.00  0.00    -0.387 OA
HETATM   17  C   UNL     1      43.133 -15.202   7.279  1.00  0.00     0.202 C 
ENDBRANCH   6  16
BRANCH   7  18
HETATM   18  N   UNL     1      43.024 -14.704   3.452  1.00  0.00    -0.350 N 
HETATM   19  C   UNL     1      42.479 -15.879   2.992  1.00  0.00     0.223 C 
HETATM   20  O   UNL     1      41.288 -16.154   3.152  1.00  0.00    -0.273 OA
HETATM   21  H   UNL     1      44.033 -14.622   3.390  1.00  0.00     0.163 HD
BRANCH  19  22
HETATM   22  C   UNL     1      43.380 -16.859   2.243  1.00  0.00     0.148 C 
BRANCH  22  23
HETATM   23  C   UNL     1      43.635 -18.162   2.940  1.00  0.00    -0.009 A 
HETATM   24  S   UNL     1      44.122 -18.185   4.584  1.00  0.00    -0.106 SA
HETATM   25  C   UNL     1      44.154 -19.893   4.618  1.00  0.00     0.050 A 
HETATM   26  C   UNL     1      43.787 -20.440   3.409  1.00  0.00     0.008 A 
HETATM   27  C   UNL     1      43.487 -19.441   2.439  1.00  0.00     0.015 A 
ENDBRANCH  22  23
ENDBRANCH  19  22
ENDBRANCH   7  18
BRANCH   1  28
HETATM   28  C   UNL     1      45.421  -9.485   7.890  1.00  0.00     0.273 C 
BRANCH  28  29
HETATM   29  C   UNL     1      44.465  -8.741   8.781  1.00  0.00    -0.031 A 
HETATM   30  C   UNL     1      43.601  -7.770   8.251  1.00  0.00     0.018 A 
HETATM   31  C   UNL     1      42.703  -7.079   9.076  1.00  0.00    -0.028 A 
HETATM   32  C   UNL     1      42.646  -7.398  10.440  1.00  0.00     0.077 A 
HETATM   33  C   UNL     1      41.765  -6.074   8.466  1.00  0.00     0.051 C 
HETATM   34  C   UNL     1      43.488  -8.373  10.994  1.00  0.00    -0.028 A 
HETATM   35  C   UNL     1      43.438  -8.740  12.451  1.00  0.00     0.051 C 
HETATM   36  C   UNL     1      44.402  -9.029  10.153  1.00  0.00     0.018 A 
BRANCH  32  37
HETATM   37  O   UNL     1      41.730  -6.724  11.196  1.00  0.00    -0.360 OA
HETATM   38  H   UNL     1      41.901  -6.857  12.142  1.00  0.00     0.217 HD
ENDBRANCH  32  37
ENDBRANCH  28  29
ENDBRANCH   1  28
TORSDOF 7
ENDMDL
MODEL 3
REMARK VINA RESULT:      -9.2      4.283      8.141
REMARK  7 active torsions:
REMARK  status: ('A' for Active; 'I' for Inactive)
REMARK    1  A    between atoms: C_3  and  O_4 
REMARK    2  A    between atoms: C_8  and  C_9 
REMARK    3  A    between atoms: C_9  and  N_10 
REMARK    4  A    between atoms: C_15  and  O_16 
REMARK    5  A    between atoms: C_18  and  N_19 
REMARK       I    between atoms: N_19  and  C_20 
REMARK    6  A    between atoms: C_20  and  C_21 
REMARK    7  A    between atoms: C_21  and  C_22 
ROOT
HETATM    1  N   UNL     1      42.558 -15.602   2.635  1.00  0.00    -0.067 N 
HETATM    2  H   UNL     1      42.556 -16.377   1.961  1.00  0.00     0.280 HD
HETATM    3  C   UNL     1      41.106 -15.202   2.778  1.00  0.00     0.236 C 
HETATM    4  C   UNL     1      40.970 -13.899   3.557  1.00  0.00     0.045 C 
HETATM    5  C   UNL     1      41.823 -12.747   2.970  1.00  0.00     0.019 A 
HETATM    6  C   UNL     1      41.268 -12.175   1.596  1.00  0.00     0.161 A 
HETATM    7  C   UNL     1      41.033 -10.636   1.778  1.00  0.00     0.148 A 
HETATM    8  C   UNL     1      41.373 -10.383   3.214  1.00  0.00    -0.026 A 
HETATM    9  C   UNL     1      41.784 -11.537   3.881  1.00  0.00    -0.038 A 
HETATM   10  C   UNL     1      41.273  -9.167   3.885  1.00  0.00     0.010 A 
HETATM   11  C   UNL     1      41.609  -9.110   5.237  1.00  0.00     0.001 A 
HETATM   12  C   UNL     1      42.032 -10.262   5.906  1.00  0.00     0.001 A 
HETATM   13  C   UNL     1      42.123 -11.480   5.231  1.00  0.00     0.009 A 
HETATM   14  C   UNL     1      43.282 -13.237   2.833  1.00  0.00     0.045 C 
HETATM   15  C   UNL     1      43.383 -14.508   2.005  1.00  0.00     0.236 C 
ENDROOT
BRANCH   6  16
HETATM   16  O   UNL     1      40.041 -12.852   1.248  1.00  0.00    -0.387 OA
HETATM   17  C   UNL     1      39.956 -13.177  -0.138  1.00  0.00     0.202 C 
ENDBRANCH   6  16
BRANCH   7  18
HETATM   18  N   UNL     1      41.739  -9.738   0.873  1.00  0.00    -0.350 N 
HETATM   19  C   UNL     1      41.348  -9.445  -0.411  1.00  0.00     0.223 C 
HETATM   20  O   UNL     1      40.209  -9.684  -0.818  1.00  0.00    -0.273 OA
HETATM   21  H   UNL     1      42.727  -9.627   1.079  1.00  0.00     0.163 HD
BRANCH  19  22
HETATM   22  C   UNL     1      42.356  -8.786  -1.351  1.00  0.00     0.148 C 
BRANCH  22  23
HETATM   23  C   UNL     1      42.623  -7.333  -1.092  1.00  0.00    -0.009 A 
HETATM   24  S   UNL     1      41.462  -6.370  -0.276  1.00  0.00    -0.106 SA
HETATM   25  C   UNL     1      42.466  -4.988  -0.345  1.00  0.00     0.050 A 
HETATM   26  C   UNL     1      43.668  -5.254  -0.961  1.00  0.00     0.008 A 
HETATM   27  C   UNL     1      43.760  -6.608  -1.393  1.00  0.00     0.015 A 
ENDBRANCH  22  23
ENDBRANCH  19  22
ENDBRANCH   7  18
BRANCH   1  28
HETATM   28  C   UNL     1      43.195 -16.180   3.882  1.00  0.00     0.273 C 
BRANCH  28  29
HETATM   29  C   UNL     1      43.451 -17.661   3.810  1.00  0.00    -0.031 A 
HETATM   30  C   UNL     1      43.694 -18.402   4.976  1.00  0.00     0.018 A 
HETATM   31  C   UNL     1      43.926 -19.784   4.914  1.00  0.00    -0.028 A 
HETATM   32  C   UNL     1      43.871 -20.429   3.671  1.00  0.00     0.077 A 
HETATM   33  C   UNL     1      44.143 -20.553   6.188  1.00  0.00     0.051 C 
HETATM   34  C   UNL     1      43.617 -19.715   2.491  1.00  0.00    -0.028 A 
HETATM   35  C   UNL     1      43.543 -20.386   1.148  1.00  0.00     0.051 C 
HETATM   36  C   UNL     1      43.420 -18.327   2.575  1.00  0.00     0.018 A 
BRANCH  32  37
HETATM   37  O   UNL     1      44.067 -21.781   3.666  1.00  0.00    -0.360 OA
HETATM   38  H   UNL     1      44.028 -22.137   4.567  1.00  0.00     0.217 HD
ENDBRANCH  32  37
ENDBRANCH  28  29
ENDBRANCH   1  28
TORSDOF 7
ENDMDL
MODEL 4
REMARK VINA RESULT:      -9.0      4.406      7.591
REMARK  7 active torsions:
REMARK  status: ('A' for Active; 'I' for Inactive)
REMARK    1  A    between atoms: C_3  and  O_4 
REMARK    2  A    between atoms: C_8  and  C_9 
REMARK    3  A    between atoms: C_9  and  N_10 
REMARK    4  A    between atoms: C_15  and  O_16 
REMARK    5  A    between atoms: C_18  and  N_19 
REMARK       I    between atoms: N_19  and  C_20 
REMARK    6  A    between atoms: C_20  and  C_21 
REMARK    7  A    between atoms: C_21  and  C_22 
ROOT
HETATM    1  N   UNL     1      40.068  -9.072   1.089  1.00  0.00    -0.067 N 
HETATM    2  H   UNL     1      40.352  -8.484   1.881  1.00  0.00     0.280 HD
HETATM    3  C   UNL     1      38.913  -9.900   1.608  1.00  0.00     0.236 C 
HETATM    4  C   UNL     1      38.542 -11.003   0.623  1.00  0.00     0.045 C 
HETATM    5  C   UNL     1      39.746 -11.891   0.222  1.00  0.00     0.019 A 
HETATM    6  C   UNL     1      40.238 -12.864   1.378  1.00  0.00     0.161 A 
HETATM    7  C   UNL     1      40.189 -14.329   0.825  1.00  0.00     0.148 A 
HETATM    8  C   UNL     1      39.624 -14.180  -0.554  1.00  0.00    -0.026 A 
HETATM    9  C   UNL     1      39.357 -12.851  -0.884  1.00  0.00    -0.038 A 
HETATM   10  C   UNL     1      39.334 -15.210  -1.443  1.00  0.00     0.010 A 
HETATM   11  C   UNL     1      38.785 -14.896  -2.686  1.00  0.00     0.001 A 
HETATM   12  C   UNL     1      38.526 -13.566  -3.026  1.00  0.00     0.001 A 
HETATM   13  C   UNL     1      38.811 -12.537  -2.127  1.00  0.00     0.009 A 
HETATM   14  C   UNL     1      40.889 -10.977  -0.274  1.00  0.00     0.045 C 
HETATM   15  C   UNL     1      41.266  -9.925   0.756  1.00  0.00     0.236 C 
ENDROOT
BRANCH   6  16
HETATM   16  O   UNL     1      39.385 -12.714   2.534  1.00  0.00    -0.387 OA
HETATM   17  C   UNL     1      40.024 -13.087   3.753  1.00  0.00     0.202 C 
ENDBRANCH   6  16
BRANCH   7  18
HETATM   18  N   UNL     1      41.431 -15.092   0.837  1.00  0.00    -0.350 N 
HETATM   19  C   UNL     1      41.802 -15.980   1.818  1.00  0.00     0.223 C 
HETATM   20  O   UNL     1      40.991 -16.433   2.629  1.00  0.00    -0.273 OA
HETATM   21  H   UNL     1      42.185 -14.675   0.301  1.00  0.00     0.163 HD
BRANCH  19  22
HETATM   22  C   UNL     1      43.260 -16.428   1.888  1.00  0.00     0.148 C 
BRANCH  22  23
HETATM   23  C   UNL     1      43.500 -17.734   2.585  1.00  0.00    -0.009 A 
HETATM   24  S   UNL     1      44.001 -17.762   4.225  1.00  0.00    -0.106 SA
HETATM   25  C   UNL     1      44.005 -19.471   4.262  1.00  0.00     0.050 A 
HETATM   26  C   UNL     1      43.618 -20.013   3.057  1.00  0.00     0.008 A 
HETATM   27  C   UNL     1      43.326 -19.011   2.088  1.00  0.00     0.015 A 
ENDBRANCH  22  23
ENDBRANCH  19  22
ENDBRANCH   7  18
BRANCH   1  28
HETATM   28  C   UNL     1      39.716  -8.091  -0.011  1.00  0.00     0.273 C 
BRANCH  28  29
HETATM   29  C   UNL     1      40.902  -7.377  -0.598  1.00  0.00    -0.031 A 
HETATM   30  C   UNL     1      41.655  -6.482   0.178  1.00  0.00     0.018 A 
HETATM   31  C   UNL     1      42.766  -5.819  -0.363  1.00  0.00    -0.028 A 
HETATM   32  C   UNL     1      43.146  -6.092  -1.684  1.00  0.00     0.077 A 
HETATM   33  C   UNL     1      43.572  -4.897   0.511  1.00  0.00     0.051 C 
HETATM   34  C   UNL     1      42.420  -6.991  -2.478  1.00  0.00    -0.028 A 
HETATM   35  C   UNL     1      42.815  -7.309  -3.894  1.00  0.00     0.051 C 
HETATM   36  C   UNL     1      41.292  -7.619  -1.924  1.00  0.00     0.018 A 
BRANCH  32  37
HETATM   37  O   UNL     1      44.256  -5.450  -2.154  1.00  0.00    -0.360 OA
HETATM   38  H   UNL     1      44.627  -4.864  -1.476  1.00  0.00     0.217 HD
ENDBRANCH  32  37
ENDBRANCH  28  29
ENDBRANCH   1  28
TORSDOF 7
ENDMDL
MODEL 5
REMARK VINA RESULT:      -9.0      4.035      8.238
REMARK  7 active torsions:
REMARK  status: ('A' for Active; 'I' for Inactive)
REMARK    1  A    between atoms: C_3  and  O_4 
REMARK    2  A    between atoms: C_8  and  C_9 
REMARK    3  A    between atoms: C_9  and  N_10 
REMARK    4  A    between atoms: C_15  and  O_16 
REMARK    5  A    between atoms: C_18  and  N_19 
REMARK       I    between atoms: N_19  and  C_20 
REMARK    6  A    between atoms: C_20  and  C_21 
REMARK    7  A    between atoms: C_21  and  C_22 
ROOT
HETATM    1  N   UNL     1      42.632 -15.578   2.273  1.00  0.00    -0.067 N 
HETATM    2  H   UNL     1      43.060 -16.169   1.551  1.00  0.00     0.280 HD
HETATM    3  C   UNL     1      41.142 -15.791   2.124  1.00  0.00     0.236 C 
HETATM    4  C   UNL     1      40.357 -14.790   2.965  1.00  0.00     0.045 C 
HETATM    5  C   UNL     1      40.754 -13.319   2.686  1.00  0.00     0.019 A 
HETATM    6  C   UNL     1      40.255 -12.777   1.279  1.00  0.00     0.161 A 
HETATM    7  C   UNL     1      39.387 -11.498   1.538  1.00  0.00     0.148 A 
HETATM    8  C   UNL     1      39.347 -11.382   3.031  1.00  0.00    -0.026 A 
HETATM    9  C   UNL     1      40.073 -12.387   3.668  1.00  0.00    -0.038 A 
HETATM   10  C   UNL     1      38.649 -10.428   3.766  1.00  0.00     0.010 A 
HETATM   11  C   UNL     1      38.698 -10.478   5.158  1.00  0.00     0.001 A 
HETATM   12  C   UNL     1      39.434 -11.477   5.802  1.00  0.00     0.001 A 
HETATM   13  C   UNL     1      40.125 -12.436   5.060  1.00  0.00     0.009 A 
HETATM   14  C   UNL     1      42.286 -13.186   2.835  1.00  0.00     0.045 C 
HETATM   15  C   UNL     1      43.034 -14.163   1.942  1.00  0.00     0.236 C 
ENDROOT
BRANCH   6  16
HETATM   16  O   UNL     1      39.488 -13.800   0.609  1.00  0.00    -0.387 OA
HETATM   17  C   UNL     1      39.794 -13.908  -0.781  1.00  0.00     0.202 C 
ENDBRANCH   6  16
BRANCH   7  18
HETATM   18  N   UNL     1      39.809 -10.259   0.896  1.00  0.00    -0.350 N 
HETATM   19  C   UNL     1      41.082  -9.745   0.935  1.00  0.00     0.223 C 
HETATM   20  O   UNL     1      42.053 -10.429   1.266  1.00  0.00    -0.273 OA
HETATM   21  H   UNL     1      39.059  -9.593   0.739  1.00  0.00     0.163 HD
BRANCH  19  22
HETATM   22  C   UNL     1      41.296  -8.287   0.534  1.00  0.00     0.148 C 
BRANCH  22  23
HETATM   23  C   UNL     1      41.766  -8.068  -0.873  1.00  0.00    -0.009 A 
HETATM   24  S   UNL     1      40.822  -8.614  -2.198  1.00  0.00    -0.106 SA
HETATM   25  C   UNL     1      41.938  -7.990  -3.332  1.00  0.00     0.050 A 
HETATM   26  C   UNL     1      43.000  -7.364  -2.721  1.00  0.00     0.008 A 
HETATM   27  C   UNL     1      42.901  -7.408  -1.300  1.00  0.00     0.015 A 
ENDBRANCH  22  23
ENDBRANCH  19  22
ENDBRANCH   7  18
BRANCH   1  28
HETATM   28  C   UNL     1      43.228 -16.073   3.576  1.00  0.00     0.273 C 
BRANCH  28  29
HETATM   29  C   UNL     1      43.458 -17.559   3.619  1.00  0.00    -0.031 A 
HETATM   30  C   UNL     1      43.660 -18.217   4.842  1.00  0.00     0.018 A 
HETATM   31  C   UNL     1      43.867 -19.603   4.888  1.00  0.00    -0.028 A 
HETATM   32  C   UNL     1      43.829 -20.337   3.695  1.00  0.00     0.077 A 
HETATM   33  C   UNL     1      44.041 -20.278   6.221  1.00  0.00     0.051 C 
HETATM   34  C   UNL     1      43.615 -19.708   2.460  1.00  0.00    -0.028 A 
HETATM   35  C   UNL     1      43.559 -20.476   1.169  1.00  0.00     0.051 C 
HETATM   36  C   UNL     1      43.442 -18.315   2.437  1.00  0.00     0.018 A 
BRANCH  32  37
HETATM   37  O   UNL     1      43.999 -21.689   3.794  1.00  0.00    -0.360 OA
HETATM   38  H   UNL     1      43.580 -22.030   4.600  1.00  0.00     0.217 HD
ENDBRANCH  32  37
ENDBRANCH  28  29
ENDBRANCH   1  28
TORSDOF 7
ENDMDL
MODEL 6
REMARK VINA RESULT:      -9.0      4.238      8.641
REMARK  7 active torsions:
REMARK  status: ('A' for Active; 'I' for Inactive)
REMARK    1  A    between atoms: C_3  and  O_4 
REMARK    2  A    between atoms: C_8  and  C_9 
REMARK    3  A    between atoms: C_9  and  N_10 
REMARK    4  A    between atoms: C_15  and  O_16 
REMARK    5  A    between atoms: C_18  and  N_19 
REMARK       I    between atoms: N_19  and  C_20 
REMARK    6  A    between atoms: C_20  and  C_21 
REMARK    7  A    between atoms: C_21  and  C_22 
ROOT
HETATM    1  N   UNL     1      42.397 -15.709   2.134  1.00  0.00    -0.067 N 
HETATM    2  H   UNL     1      42.868 -16.455   1.609  1.00  0.00     0.280 HD
HETATM    3  C   UNL     1      40.925 -15.885   1.833  1.00  0.00     0.236 C 
HETATM    4  C   UNL     1      40.115 -14.698   2.343  1.00  0.00     0.045 C 
HETATM    5  C   UNL     1      40.643 -13.336   1.829  1.00  0.00     0.019 A 
HETATM    6  C   UNL     1      40.358 -13.078   0.288  1.00  0.00     0.161 A 
HETATM    7  C   UNL     1      39.555 -11.738   0.166  1.00  0.00     0.148 A 
HETATM    8  C   UNL     1      39.341 -11.311   1.586  1.00  0.00    -0.026 A 
HETATM    9  C   UNL     1      39.913 -12.192   2.503  1.00  0.00    -0.038 A 
HETATM   10  C   UNL     1      38.626 -10.197   2.014  1.00  0.00     0.010 A 
HETATM   11  C   UNL     1      38.502  -9.957   3.382  1.00  0.00     0.001 A 
HETATM   12  C   UNL     1      39.082 -10.831   4.305  1.00  0.00     0.001 A 
HETATM   13  C   UNL     1      39.791 -11.951   3.870  1.00  0.00     0.009 A 
HETATM   14  C   UNL     1      42.151 -13.240   2.152  1.00  0.00     0.045 C 
HETATM   15  C   UNL     1      42.933 -14.412   1.582  1.00  0.00     0.236 C 
ENDROOT
BRANCH   6  16
HETATM   16  O   UNL     1      39.610 -14.186  -0.259  1.00  0.00    -0.387 OA
HETATM   17  C   UNL     1      39.595 -14.200  -1.685  1.00  0.00     0.202 C 
ENDBRANCH   6  16
BRANCH   7  18
HETATM   18  N   UNL     1      40.136 -10.679  -0.650  1.00  0.00    -0.350 N 
HETATM   19  C   UNL     1      39.756 -10.377  -1.936  1.00  0.00     0.223 C 
HETATM   20  O   UNL     1      38.692 -10.777  -2.413  1.00  0.00    -0.273 OA
HETATM   21  H   UNL     1      41.081 -10.418  -0.388  1.00  0.00     0.163 HD
BRANCH  19  22
HETATM   22  C   UNL     1      40.675  -9.502  -2.784  1.00  0.00     0.148 C 
BRANCH  22  23
HETATM   23  C   UNL     1      41.367  -8.393  -2.050  1.00  0.00    -0.009 A 
HETATM   24  S   UNL     1      40.466  -7.082  -1.407  1.00  0.00    -0.106 SA
HETATM   25  C   UNL     1      41.866  -6.355  -0.753  1.00  0.00     0.050 A 
HETATM   26  C   UNL     1      42.998  -7.098  -1.002  1.00  0.00     0.008 A 
HETATM   27  C   UNL     1      42.711  -8.276  -1.750  1.00  0.00     0.015 A 
ENDBRANCH  22  23
ENDBRANCH  19  22
ENDBRANCH   7  18
BRANCH   1  28
HETATM   28  C   UNL     1      42.794 -15.946   3.578  1.00  0.00     0.273 C 
BRANCH  28  29
HETATM   29  C   UNL     1      43.191 -17.365   3.879  1.00  0.00    -0.031 A 
HETATM   30  C   UNL     1      43.285 -17.816   5.204  1.00  0.00     0.018 A 
HETATM   31  C   UNL     1      43.647 -19.140   5.489  1.00  0.00    -0.028 A 
HETATM   32  C   UNL     1      43.876 -20.028   4.429  1.00  0.00     0.077 A 
HETATM   33  C   UNL     1      43.699 -19.598   6.921  1.00  0.00     0.051 C 
HETATM   34  C   UNL     1      43.776 -19.608   3.095  1.00  0.00    -0.028 A 
HETATM   35  C   UNL     1      44.006 -20.544   1.941  1.00  0.00     0.051 C 
HETATM   36  C   UNL     1      43.443 -18.269   2.835  1.00  0.00     0.018 A 
BRANCH  32  37
HETATM   37  O   UNL     1      44.190 -21.316   4.757  1.00  0.00    -0.360 OA
HETATM   38  H   UNL     1      43.447 -21.910   4.566  1.00  0.00     0.217 HD
ENDBRANCH  32  37
ENDBRANCH  28  29
ENDBRANCH   1  28
TORSDOF 7
ENDMDL
MODEL 7
REMARK VINA RESULT:      -9.0      3.328      8.695
REMARK  7 active torsions:
REMARK  status: ('A' for Active; 'I' for Inactive)
REMARK    1  A    between atoms: C_3  and  O_4 
REMARK    2  A    between atoms: C_8  and  C_9 
REMARK    3  A    between atoms: C_9  and  N_10 
REMARK    4  A    between atoms: C_15  and  O_16 
REMARK    5  A    between atoms: C_18  and  N_19 
REMARK       I    between atoms: N_19  and  C_20 
REMARK    6  A    between atoms: C_20  and  C_21 
REMARK    7  A    between atoms: C_21  and  C_22 
ROOT
HETATM    1  N   UNL     1      41.669 -11.439   6.313  1.00  0.00    -0.067 N 
HETATM    2  H   UNL     1      41.915 -11.389   7.309  1.00  0.00     0.280 HD
HETATM    3  C   UNL     1      40.272 -12.019   6.282  1.00  0.00     0.236 C 
HETATM    4  C   UNL     1      39.861 -12.388   4.861  1.00  0.00     0.045 C 
HETATM    5  C   UNL     1      40.880 -13.317   4.155  1.00  0.00     0.019 A 
HETATM    6  C   UNL     1      40.886 -14.804   4.714  1.00  0.00     0.161 A 
HETATM    7  C   UNL     1      40.610 -15.769   3.511  1.00  0.00     0.148 A 
HETATM    8  C   UNL     1      40.387 -14.850   2.350  1.00  0.00    -0.026 A 
HETATM    9  C   UNL     1      40.511 -13.505   2.698  1.00  0.00    -0.038 A 
HETATM   10  C   UNL     1      40.051 -15.225   1.052  1.00  0.00     0.010 A 
HETATM   11  C   UNL     1      39.855 -14.234   0.091  1.00  0.00     0.001 A 
HETATM   12  C   UNL     1      39.988 -12.885   0.432  1.00  0.00     0.001 A 
HETATM   13  C   UNL     1      40.317 -12.515   1.737  1.00  0.00     0.009 A 
HETATM   14  C   UNL     1      42.281 -12.670   4.247  1.00  0.00     0.045 C 
HETATM   15  C   UNL     1      42.676 -12.367   5.683  1.00  0.00     0.236 C 
ENDROOT
BRANCH   6  16
HETATM   16  O   UNL     1      39.875 -14.942   5.736  1.00  0.00    -0.387 OA
HETATM   17  C   UNL     1      40.148 -15.999   6.653  1.00  0.00     0.202 C 
ENDBRANCH   6  16
BRANCH   7  18
HETATM   18  N   UNL     1      41.610 -16.791   3.227  1.00  0.00    -0.350 N 
HETATM   19  C   UNL     1      42.881 -16.543   2.768  1.00  0.00     0.223 C 
HETATM   20  O   UNL     1      43.393 -15.423   2.833  1.00  0.00    -0.273 OA
HETATM   21  H   UNL     1      41.226 -17.705   3.015  1.00  0.00     0.163 HD
BRANCH  19  22
HETATM   22  C   UNL     1      43.685 -17.699   2.179  1.00  0.00     0.148 C 
BRANCH  22  23
HETATM   23  C   UNL     1      43.856 -18.888   3.077  1.00  0.00    -0.009 A 
HETATM   24  S   UNL     1      44.304 -18.677   4.719  1.00  0.00    -0.106 SA
HETATM   25  C   UNL     1      44.246 -20.358   5.019  1.00  0.00     0.050 A 
HETATM   26  C   UNL     1      43.878 -21.069   3.899  1.00  0.00     0.008 A 
HETATM   27  C   UNL     1      43.652 -20.221   2.777  1.00  0.00     0.015 A 
ENDBRANCH  22  23
ENDBRANCH  19  22
ENDBRANCH   7  18
BRANCH   1  28
HETATM   28  C   UNL     1      41.787 -10.012   5.816  1.00  0.00     0.273 C 
BRANCH  28  29
HETATM   29  C   UNL     1      42.204  -9.028   6.874  1.00  0.00    -0.031 A 
HETATM   30  C   UNL     1      41.749  -7.701   6.837  1.00  0.00     0.018 A 
HETATM   31  C   UNL     1      42.131  -6.782   7.824  1.00  0.00    -0.028 A 
HETATM   32  C   UNL     1      42.944  -7.215   8.881  1.00  0.00     0.077 A 
HETATM   33  C   UNL     1      41.591  -5.379   7.773  1.00  0.00     0.051 C 
HETATM   34  C   UNL     1      43.403  -8.538   8.950  1.00  0.00    -0.028 A 
HETATM   35  C   UNL     1      44.267  -9.028  10.079  1.00  0.00     0.051 C 
HETATM   36  C   UNL     1      43.033  -9.432   7.932  1.00  0.00     0.018 A 
BRANCH  32  37
HETATM   37  O   UNL     1      43.258  -6.293   9.838  1.00  0.00    -0.360 OA
HETATM   38  H   UNL     1      43.187  -5.392   9.484  1.00  0.00     0.217 HD
ENDBRANCH  32  37
ENDBRANCH  28  29
ENDBRANCH   1  28
TORSDOF 7
ENDMDL
MODEL 8
REMARK VINA RESULT:      -8.9      1.682      2.094
REMARK  7 active torsions:
REMARK  status: ('A' for Active; 'I' for Inactive)
REMARK    1  A    between atoms: C_3  and  O_4 
REMARK    2  A    between atoms: C_8  and  C_9 
REMARK    3  A    between atoms: C_9  and  N_10 
REMARK    4  A    between atoms: C_15  and  O_16 
REMARK    5  A    between atoms: C_18  and  N_19 
REMARK       I    between atoms: N_19  and  C_20 
REMARK    6  A    between atoms: C_20  and  C_21 
REMARK    7  A    between atoms: C_21  and  C_22 
ROOT
HETATM    1  N   UNL     1      39.563 -12.105   0.843  1.00  0.00    -0.067 N 
HETATM    2  H   UNL     1      39.064 -11.216   0.727  1.00  0.00     0.280 HD
HETATM    3  C   UNL     1      38.900 -12.779   2.024  1.00  0.00     0.236 C 
HETATM    4  C   UNL     1      39.693 -14.000   2.476  1.00  0.00     0.045 C 
HETATM    5  C   UNL     1      41.182 -13.686   2.761  1.00  0.00     0.019 A 
HETATM    6  C   UNL     1      41.417 -12.839   4.085  1.00  0.00     0.161 A 
HETATM    7  C   UNL     1      42.394 -13.648   5.004  1.00  0.00     0.148 A 
HETATM    8  C   UNL     1      42.631 -14.922   4.253  1.00  0.00    -0.026 A 
HETATM    9  C   UNL     1      41.954 -14.961   3.035  1.00  0.00    -0.038 A 
HETATM   10  C   UNL     1      43.396 -16.004   4.681  1.00  0.00     0.010 A 
HETATM   11  C   UNL     1      43.493 -17.129   3.864  1.00  0.00     0.001 A 
HETATM   12  C   UNL     1      42.825 -17.169   2.637  1.00  0.00     0.001 A 
HETATM   13  C   UNL     1      42.053 -16.085   2.217  1.00  0.00     0.009 A 
HETATM   14  C   UNL     1      41.783 -12.982   1.524  1.00  0.00     0.045 C 
HETATM   15  C   UNL     1      40.996 -11.740   1.136  1.00  0.00     0.236 C 
ENDROOT
BRANCH   6  16
HETATM   16  O   UNL     1      40.153 -12.609   4.743  1.00  0.00    -0.387 OA
HETATM   17  C   UNL     1      40.146 -13.035   6.105  1.00  0.00     0.202 C 
ENDBRANCH   6  16
BRANCH   7  18
HETATM   18  N   UNL     1      43.637 -12.998   5.400  1.00  0.00    -0.350 N 
HETATM   19  C   UNL     1      44.067 -12.841   6.696  1.00  0.00     0.223 C 
HETATM   20  O   UNL     1      43.588 -13.493   7.626  1.00  0.00    -0.273 OA
HETATM   21  H   UNL     1      43.995 -12.331   4.724  1.00  0.00     0.163 HD
BRANCH  19  22
HETATM   22  C   UNL     1      45.186 -11.841   6.980  1.00  0.00     0.148 C 
BRANCH  22  23
HETATM   23  C   UNL     1      44.832 -10.728   7.920  1.00  0.00    -0.009 A 
HETATM   24  S   UNL     1      43.351  -9.880   7.742  1.00  0.00    -0.106 SA
HETATM   25  C   UNL     1      43.673  -8.900   9.104  1.00  0.00     0.050 A 
HETATM   26  C   UNL     1      44.874  -9.219   9.697  1.00  0.00     0.008 A 
HETATM   27  C   UNL     1      45.544 -10.275   9.014  1.00  0.00     0.015 A 
ENDBRANCH  22  23
ENDBRANCH  19  22
ENDBRANCH   7  18
BRANCH   1  28
HETATM   28  C   UNL     1      39.393 -12.815  -0.486  1.00  0.00     0.273 C 
BRANCH  28  29
HETATM   29  C   UNL     1      38.931 -11.922  -1.604  1.00  0.00    -0.031 A 
HETATM   30  C   UNL     1      37.567 -11.808  -1.911  1.00  0.00     0.018 A 
HETATM   31  C   UNL     1      37.131 -10.971  -2.948  1.00  0.00    -0.028 A 
HETATM   32  C   UNL     1      38.075 -10.211  -3.653  1.00  0.00     0.077 A 
HETATM   33  C   UNL     1      35.658 -10.844  -3.223  1.00  0.00     0.051 C 
HETATM   34  C   UNL     1      39.443 -10.295  -3.358  1.00  0.00    -0.028 A 
HETATM   35  C   UNL     1      40.472  -9.482  -4.093  1.00  0.00     0.051 C 
HETATM   36  C   UNL     1      39.858 -11.165  -2.336  1.00  0.00     0.018 A 
BRANCH  32  37
HETATM   37  O   UNL     1      37.598  -9.383  -4.629  1.00  0.00    -0.360 OA
HETATM   38  H   UNL     1      38.303  -8.808  -4.966  1.00  0.00     0.217 HD
ENDBRANCH  32  37
ENDBRANCH  28  29
ENDBRANCH   1  28
TORSDOF 7
ENDMDL
MODEL 9
REMARK VINA RESULT:      -8.9      3.876      7.184
REMARK  7 active torsions:
REMARK  status: ('A' for Active; 'I' for Inactive)
REMARK    1  A    between atoms: C_3  and  O_4 
REMARK    2  A    between atoms: C_8  and  C_9 
REMARK    3  A    between atoms: C_9  and  N_10 
REMARK    4  A    between atoms: C_15  and  O_16 
REMARK    5  A    between atoms: C_18  and  N_19 
REMARK       I    between atoms: N_19  and  C_20 
REMARK    6  A    between atoms: C_20  and  C_21 
REMARK    7  A    between atoms: C_21  and  C_22 
ROOT
HETATM    1  N   UNL     1      42.984 -15.026   4.727  1.00  0.00    -0.067 N 
HETATM    2  H   UNL     1      43.731 -15.547   5.201  1.00  0.00     0.280 HD
HETATM    3  C   UNL     1      43.600 -13.691   4.371  1.00  0.00     0.236 C 
HETATM    4  C   UNL     1      42.540 -12.710   3.881  1.00  0.00     0.045 C 
HETATM    5  C   UNL     1      41.360 -12.547   4.870  1.00  0.00     0.019 A 
HETATM    6  C   UNL     1      41.733 -11.741   6.187  1.00  0.00     0.161 A 
HETATM    7  C   UNL     1      40.754 -10.523   6.297  1.00  0.00     0.148 A 
HETATM    8  C   UNL     1      39.922 -10.610   5.055  1.00  0.00    -0.026 A 
HETATM    9  C   UNL     1      40.262 -11.702   4.256  1.00  0.00    -0.038 A 
HETATM   10  C   UNL     1      38.933  -9.715   4.658  1.00  0.00     0.010 A 
HETATM   11  C   UNL     1      38.267  -9.932   3.452  1.00  0.00     0.001 A 
HETATM   12  C   UNL     1      38.597 -11.031   2.654  1.00  0.00     0.001 A 
HETATM   13  C   UNL     1      39.595 -11.921   3.053  1.00  0.00     0.009 A 
HETATM   14  C   UNL     1      40.799 -13.949   5.202  1.00  0.00     0.045 C 
HETATM   15  C   UNL     1      41.874 -14.881   5.738  1.00  0.00     0.236 C 
ENDROOT
BRANCH   6  16
HETATM   16  O   UNL     1      43.106 -11.300   6.113  1.00  0.00    -0.387 OA
HETATM   17  C   UNL     1      43.745 -11.244   7.387  1.00  0.00     0.202 C 
ENDBRANCH   6  16
BRANCH   7  18
HETATM   18  N   UNL     1      39.941 -10.422   7.503  1.00  0.00    -0.350 N 
HETATM   19  C   UNL     1      39.767  -9.277   8.242  1.00  0.00     0.223 C 
HETATM   20  O   UNL     1      40.041  -8.162   7.793  1.00  0.00    -0.273 OA
HETATM   21  H   UNL     1      39.812 -11.299   7.996  1.00  0.00     0.163 HD
BRANCH  19  22
HETATM   22  C   UNL     1      39.196  -9.396   9.653  1.00  0.00     0.148 C 
BRANCH  22  23
HETATM   23  C   UNL     1      40.211  -9.545  10.748  1.00  0.00    -0.009 A 
HETATM   24  S   UNL     1      39.722 -10.008  12.326  1.00  0.00    -0.106 SA
HETATM   25  C   UNL     1      41.332  -9.992  12.899  1.00  0.00     0.050 A 
HETATM   26  C   UNL     1      42.228  -9.657  11.909  1.00  0.00     0.008 A 
HETATM   27  C   UNL     1      41.582  -9.400  10.667  1.00  0.00     0.015 A 
ENDBRANCH  22  23
ENDBRANCH  19  22
ENDBRANCH   7  18
BRANCH   1  28
HETATM   28  C   UNL     1      42.599 -15.896   3.547  1.00  0.00     0.273 C 
BRANCH  28  29
HETATM   29  C   UNL     1      43.028 -17.331   3.678  1.00  0.00    -0.031 A 
HETATM   30  C   UNL     1      43.250 -17.899   4.941  1.00  0.00     0.018 A 
HETATM   31  C   UNL     1      43.643 -19.239   5.069  1.00  0.00    -0.028 A 
HETATM   32  C   UNL     1      43.772 -20.024   3.915  1.00  0.00     0.077 A 
HETATM   33  C   UNL     1      43.834 -19.824   6.442  1.00  0.00     0.051 C 
HETATM   34  C   UNL     1      43.543 -19.487   2.641  1.00  0.00    -0.028 A 
HETATM   35  C   UNL     1      43.664 -20.312   1.390  1.00  0.00     0.051 C 
HETATM   36  C   UNL     1      43.182 -18.133   2.537  1.00  0.00     0.018 A 
BRANCH  32  37
HETATM   37  O   UNL     1      44.121 -21.333   4.093  1.00  0.00    -0.360 OA
HETATM   38  H   UNL     1      44.735 -21.427   4.838  1.00  0.00     0.217 HD
ENDBRANCH  32  37
ENDBRANCH  28  29
ENDBRANCH   1  28
TORSDOF 7
ENDMDL
MODEL 10
REMARK VINA RESULT:      -8.5      4.171      9.480
REMARK  7 active torsions:
REMARK  status: ('A' for Active; 'I' for Inactive)
REMARK    1  A    between atoms: C_3  and  O_4 
REMARK    2  A    between atoms: C_8  and  C_9 
REMARK    3  A    between atoms: C_9  and  N_10 
REMARK    4  A    between atoms: C_15  and  O_16 
REMARK    5  A    between atoms: C_18  and  N_19 
REMARK       I    between atoms: N_19  and  C_20 
REMARK    6  A    between atoms: C_20  and  C_21 
REMARK    7  A    between atoms: C_21  and  C_22 
ROOT
HETATM    1  N   UNL     1      40.724 -13.954   3.465  1.00  0.00    -0.067 N 
HETATM    2  H   UNL     1      41.050 -13.646   4.389  1.00  0.00     0.280 HD
HETATM    3  C   UNL     1      41.847 -13.600   2.514  1.00  0.00     0.236 C 
HETATM    4  C   UNL     1      41.412 -13.769   1.063  1.00  0.00     0.045 C 
HETATM    5  C   UNL     1      40.113 -12.997   0.724  1.00  0.00     0.019 A 
HETATM    6  C   UNL     1      40.304 -11.421   0.655  1.00  0.00     0.161 A 
HETATM    7  C   UNL     1      39.831 -10.943  -0.760  1.00  0.00     0.148 A 
HETATM    8  C   UNL     1      39.463 -12.210  -1.470  1.00  0.00    -0.026 A 
HETATM    9  C   UNL     1      39.637 -13.341  -0.673  1.00  0.00    -0.038 A 
HETATM   10  C   UNL     1      39.031 -12.323  -2.788  1.00  0.00     0.010 A 
HETATM   11  C   UNL     1      38.753 -13.588  -3.302  1.00  0.00     0.001 A 
HETATM   12  C   UNL     1      38.914 -14.724  -2.504  1.00  0.00     0.001 A 
HETATM   13  C   UNL     1      39.356 -14.606  -1.186  1.00  0.00     0.009 A 
HETATM   14  C   UNL     1      39.024 -13.392   1.746  1.00  0.00     0.045 C 
HETATM   15  C   UNL     1      39.475 -13.159   3.180  1.00  0.00     0.236 C 
ENDROOT
BRANCH   6  16
HETATM   16  O   UNL     1      41.692 -11.090   0.880  1.00  0.00    -0.387 OA
HETATM   17  C   UNL     1      41.882 -10.191   1.971  1.00  0.00     0.202 C 
ENDBRANCH   6  16
BRANCH   7  18
HETATM   18  N   UNL     1      38.766  -9.949  -0.812  1.00  0.00    -0.350 N 
HETATM   19  C   UNL     1      37.456 -10.179  -0.463  1.00  0.00     0.223 C 
HETATM   20  O   UNL     1      37.120 -11.160   0.203  1.00  0.00    -0.273 OA
HETATM   21  H   UNL     1      38.930  -9.192  -1.467  1.00  0.00     0.163 HD
BRANCH  19  22
HETATM   22  C   UNL     1      36.395  -9.172  -0.901  1.00  0.00     0.148 C 
BRANCH  22  23
HETATM   23  C   UNL     1      35.380  -9.688  -1.876  1.00  0.00    -0.009 A 
HETATM   24  S   UNL     1      35.879 -10.546  -3.275  1.00  0.00    -0.106 SA
HETATM   25  C   UNL     1      34.265 -10.795  -3.778  1.00  0.00     0.050 A 
HETATM   26  C   UNL     1      33.360 -10.252  -2.894  1.00  0.00     0.008 A 
HETATM   27  C   UNL     1      34.003  -9.613  -1.795  1.00  0.00     0.015 A 
ENDBRANCH  22  23
ENDBRANCH  19  22
ENDBRANCH   7  18
BRANCH   1  28
HETATM   28  C   UNL     1      40.458 -15.437   3.626  1.00  0.00     0.273 C 
BRANCH  28  29
HETATM   29  C   UNL     1      41.700 -16.266   3.809  1.00  0.00    -0.031 A 
HETATM   30  C   UNL     1      42.548 -16.053   4.906  1.00  0.00     0.018 A 
HETATM   31  C   UNL     1      43.702 -16.828   5.084  1.00  0.00    -0.028 A 
HETATM   32  C   UNL     1      43.982 -17.854   4.171  1.00  0.00     0.077 A 
HETATM   33  C   UNL     1      44.566 -16.596   6.294  1.00  0.00     0.051 C 
HETATM   34  C   UNL     1      43.145 -18.098   3.073  1.00  0.00    -0.028 A 
HETATM   35  C   UNL     1      43.418 -19.200   2.087  1.00  0.00     0.051 C 
HETATM   36  C   UNL     1      42.012 -17.287   2.899  1.00  0.00     0.018 A 
BRANCH  32  37
HETATM   37  O   UNL     1      45.098 -18.605   4.407  1.00  0.00    -0.360 OA
HETATM   38  H   UNL     1      45.236 -19.248   3.694  1.00  0.00     0.217 HD
ENDBRANCH  32  37
ENDBRANCH  28  29
ENDBRANCH   1  28
TORSDOF 7
ENDMDL
