MODEL 1
REMARK VINA RESULT:      -9.2      0.000      0.000
REMARK  4 active torsions:
REMARK  status: ('A' for Active; 'I' for Inactive)
REMARK    1  A    between atoms: C_2  and  C_3 
REMARK    2  A    between atoms: C_4  and  C_5 
REMARK       I    between atoms: C_5  and  N_6 
REMARK    3  A    between atoms: N_6  and  C_7 
REMARK    4  A    between atoms: C_14  and  C_15 
REMARK       I    between atoms: C_15  and  N_16 
ROOT
HETATM    1  C   UNL     1      39.883 -13.875  -0.606  1.00  0.00     0.035 A 
HETATM    2  C   UNL     1      39.164 -12.674  -0.567  1.00  0.00     0.046 A 
HETATM    3  C   UNL     1      38.172 -12.419  -1.538  1.00  0.00     0.030 A 
HETATM    4  C   UNL     1      37.928 -13.378  -2.513  1.00  0.00     0.063 A 
HETATM    5  N   UNL     1      36.923 -12.861  -3.283  1.00  0.00    -0.277 N 
HETATM    6  H   UNL     1      36.484 -13.294  -4.088  1.00  0.00     0.189 HD
HETATM    7  N   UNL     1      36.501 -11.643  -2.906  1.00  0.00    -0.168 NA
HETATM    8  C   UNL     1      37.266 -11.354  -1.829  1.00  0.00     0.156 A 
HETATM    9  C   UNL     1      38.628 -14.583  -2.587  1.00  0.00     0.034 A 
HETATM   10  C   UNL     1      39.614 -14.808  -1.618  1.00  0.00     0.032 A 
ENDROOT
BRANCH   1  11
HETATM   11  N   UNL     1      40.878 -14.224   0.335  1.00  0.00    -0.327 N 
HETATM   12  C   UNL     1      40.749 -15.102   1.388  1.00  0.00     0.227 C 
HETATM   13  O   UNL     1      39.745 -15.701   1.740  1.00  0.00    -0.273 OA
HETATM   14  H   UNL     1      41.791 -13.824   0.187  1.00  0.00     0.169 HD
BRANCH  12  15
HETATM   15  C   UNL     1      41.999 -15.354   2.159  1.00  0.00     0.087 A 
HETATM   16  C   UNL     1      42.884 -16.481   1.633  1.00  0.00     0.032 A 
HETATM   17  C   UNL     1      43.414 -15.075   1.732  1.00  0.00     0.025 A 
BRANCH  16  18
HETATM   18  C   UNL     1      43.272 -17.583   2.582  1.00  0.00    -0.053 A 
HETATM   19  C   UNL     1      43.215 -18.924   2.162  1.00  0.00     0.009 A 
HETATM   20  C   UNL     1      43.612 -19.970   2.999  1.00  0.00     0.024 A 
HETATM   21  C   UNL     1      44.074 -19.687   4.280  1.00  0.00     0.034 A 
HETATM   22  C   UNL     1      44.141 -18.369   4.724  1.00  0.00     0.024 A 
HETATM   23 CL   UNL     1      44.572 -20.966   5.315  1.00  0.00    -0.084 Cl
HETATM   24  C   UNL     1      43.747 -17.327   3.878  1.00  0.00     0.009 A 
ENDBRANCH  16  18
ENDBRANCH  12  15
ENDBRANCH   1  11
BRANCH   8  25
HETATM   25  C   UNL     1      37.119 -10.082  -1.109  1.00  0.00     0.270 C 
HETATM   26  N   UNL     1      37.847  -9.052  -1.640  1.00  0.00    -0.365 N 
HETATM   27  H   UNL     1      38.421  -9.232  -2.455  1.00  0.00     0.159 HD
HETATM   28  H   UNL     1      37.818  -8.143  -1.203  1.00  0.00     0.159 HD
HETATM   29  O   UNL     1      36.420  -9.916  -0.116  1.00  0.00    -0.266 OA
ENDBRANCH   8  25
TORSDOF 4
ENDMDL
MODEL 2
REMARK VINA RESULT:      -9.0      1.707      2.683
REMARK  4 active torsions:
REMARK  status: ('A' for Active; 'I' for Inactive)
REMARK    1  A    between atoms: C_2  and  C_3 
REMARK    2  A    between atoms: C_4  and  C_5 
REMARK       I    between atoms: C_5  and  N_6 
REMARK    3  A    between atoms: N_6  and  C_7 
REMARK    4  A    between atoms: C_14  and  C_15 
REMARK       I    between atoms: C_15  and  N_16 
ROOT
HETATM    1  C   UNL     1      40.216 -13.296   0.121  1.00  0.00     0.035 A 
HETATM    2  C   UNL     1      39.665 -13.944  -0.992  1.00  0.00     0.046 A 
HETATM    3  C   UNL     1      38.610 -13.335  -1.706  1.00  0.00     0.030 A 
HETATM    4  C   UNL     1      38.145 -12.095  -1.285  1.00  0.00     0.063 A 
HETATM    5  N   UNL     1      37.153 -11.764  -2.166  1.00  0.00    -0.277 N 
HETATM    6  H   UNL     1      36.593 -10.919  -2.169  1.00  0.00     0.189 HD
HETATM    7  N   UNL     1      36.919 -12.686  -3.114  1.00  0.00    -0.168 NA
HETATM    8  C   UNL     1      37.811 -13.666  -2.842  1.00  0.00     0.156 A 
HETATM    9  C   UNL     1      38.666 -11.423  -0.178  1.00  0.00     0.034 A 
HETATM   10  C   UNL     1      39.705 -12.053   0.520  1.00  0.00     0.032 A 
ENDROOT
BRANCH   1  11
HETATM   11  N   UNL     1      41.285 -13.819   0.882  1.00  0.00    -0.327 N 
HETATM   12  C   UNL     1      41.192 -14.608   2.007  1.00  0.00     0.227 C 
HETATM   13  O   UNL     1      40.178 -14.960   2.588  1.00  0.00    -0.273 OA
HETATM   14  H   UNL     1      42.213 -13.633   0.534  1.00  0.00     0.169 HD
BRANCH  12  15
HETATM   15  C   UNL     1      42.491 -15.098   2.546  1.00  0.00     0.087 A 
HETATM   16  C   UNL     1      43.033 -16.374   1.907  1.00  0.00     0.032 A 
HETATM   17  C   UNL     1      43.830 -15.098   1.860  1.00  0.00     0.025 A 
BRANCH  16  18
HETATM   18  C   UNL     1      43.373 -17.532   2.807  1.00  0.00    -0.053 A 
HETATM   19  C   UNL     1      43.357 -18.844   2.300  1.00  0.00     0.009 A 
HETATM   20  C   UNL     1      43.712 -19.938   3.092  1.00  0.00     0.024 A 
HETATM   21  C   UNL     1      44.089 -19.735   4.414  1.00  0.00     0.034 A 
HETATM   22  C   UNL     1      44.114 -18.448   4.945  1.00  0.00     0.024 A 
HETATM   23 CL   UNL     1      44.536 -21.075   5.396  1.00  0.00    -0.084 Cl
HETATM   24  C   UNL     1      43.763 -17.356   4.144  1.00  0.00     0.009 A 
ENDBRANCH  16  18
ENDBRANCH  12  15
ENDBRANCH   1  11
BRANCH   8  25
HETATM   25  C   UNL     1      37.879 -14.884  -3.661  1.00  0.00     0.270 C 
HETATM   26  N   UNL     1      38.011 -16.037  -2.937  1.00  0.00    -0.365 N 
HETATM   27  H   UNL     1      38.060 -15.974  -1.926  1.00  0.00     0.159 HD
HETATM   28  H   UNL     1      38.079 -16.922  -3.417  1.00  0.00     0.159 HD
HETATM   29  O   UNL     1      37.829 -14.908  -4.885  1.00  0.00    -0.266 OA
ENDBRANCH   8  25
TORSDOF 4
ENDMDL
MODEL 3
REMARK VINA RESULT:      -8.8      7.944     10.298
REMARK  4 active torsions:
REMARK  status: ('A' for Active; 'I' for Inactive)
REMARK    1  A    between atoms: C_2  and  C_3 
REMARK    2  A    between atoms: C_4  and  C_5 
REMARK       I    between atoms: C_5  and  N_6 
REMARK    3  A    between atoms: N_6  and  C_7 
REMARK    4  A    between atoms: C_14  and  C_15 
REMARK       I    between atoms: C_15  and  N_16 
ROOT
HETATM    1  C   UNL     1      43.276 -13.632   6.826  1.00  0.00     0.035 A 
HETATM    2  C   UNL     1      43.205 -13.746   5.431  1.00  0.00     0.046 A 
HETATM    3  C   UNL     1      43.024 -15.016   4.841  1.00  0.00     0.030 A 
HETATM    4  C   UNL     1      42.913 -16.128   5.667  1.00  0.00     0.063 A 
HETATM    5  N   UNL     1      42.734 -17.188   4.821  1.00  0.00    -0.277 N 
HETATM    6  H   UNL     1      42.609 -18.161   5.077  1.00  0.00     0.189 HD
HETATM    7  N   UNL     1      42.733 -16.867   3.517  1.00  0.00    -0.168 NA
HETATM    8  C   UNL     1      42.914 -15.527   3.512  1.00  0.00     0.156 A 
HETATM    9  C   UNL     1      42.985 -16.053   7.058  1.00  0.00     0.034 A 
HETATM   10  C   UNL     1      43.176 -14.783   7.619  1.00  0.00     0.032 A 
ENDROOT
BRANCH   1  11
HETATM   11  N   UNL     1      43.435 -12.402   7.504  1.00  0.00    -0.327 N 
HETATM   12  C   UNL     1      44.517 -11.554   7.435  1.00  0.00     0.227 C 
HETATM   13  O   UNL     1      45.560 -11.725   6.825  1.00  0.00    -0.273 OA
HETATM   14  H   UNL     1      42.651 -12.093   8.056  1.00  0.00     0.169 HD
BRANCH  12  15
HETATM   15  C   UNL     1      44.367 -10.274   8.182  1.00  0.00     0.087 A 
HETATM   16  C   UNL     1      45.034 -10.228   9.554  1.00  0.00     0.032 A 
HETATM   17  C   UNL     1      45.430  -9.252   8.479  1.00  0.00     0.025 A 
BRANCH  16  18
HETATM   18  C   UNL     1      44.190  -9.854  10.743  1.00  0.00    -0.053 A 
HETATM   19  C   UNL     1      43.625 -10.860  11.548  1.00  0.00     0.009 A 
HETATM   20  C   UNL     1      42.875 -10.551  12.686  1.00  0.00     0.024 A 
HETATM   21  C   UNL     1      42.677  -9.221  13.038  1.00  0.00     0.034 A 
HETATM   22  C   UNL     1      43.224  -8.203  12.260  1.00  0.00     0.024 A 
HETATM   23 CL   UNL     1      41.763  -8.831  14.441  1.00  0.00    -0.084 Cl
HETATM   24  C   UNL     1      43.978  -8.520  11.126  1.00  0.00     0.009 A 
ENDBRANCH  16  18
ENDBRANCH  12  15
ENDBRANCH   1  11
BRANCH   8  25
HETATM   25  C   UNL     1      42.979 -14.771   2.254  1.00  0.00     0.270 C 
HETATM   26  N   UNL     1      43.671 -15.404   1.257  1.00  0.00    -0.365 N 
HETATM   27  H   UNL     1      44.082 -16.310   1.450  1.00  0.00     0.159 HD
HETATM   28  H   UNL     1      43.779 -14.953   0.362  1.00  0.00     0.159 HD
HETATM   29  O   UNL     1      42.476 -13.668   2.073  1.00  0.00    -0.266 OA
ENDBRANCH   8  25
TORSDOF 4
ENDMDL
MODEL 4
REMARK VINA RESULT:      -8.5      6.959      9.297
REMARK  4 active torsions:
REMARK  status: ('A' for Active; 'I' for Inactive)
REMARK    1  A    between atoms: C_2  and  C_3 
REMARK    2  A    between atoms: C_4  and  C_5 
REMARK       I    between atoms: C_5  and  N_6 
REMARK    3  A    between atoms: N_6  and  C_7 
REMARK    4  A    between atoms: C_14  and  C_15 
REMARK       I    between atoms: C_15  and  N_16 
ROOT
HETATM    1  C   UNL     1      44.484 -11.408   6.588  1.00  0.00     0.035 A 
HETATM    2  C   UNL     1      43.561 -10.952   7.538  1.00  0.00     0.046 A 
HETATM    3  C   UNL     1      44.013 -10.241   8.670  1.00  0.00     0.030 A 
HETATM    4  C   UNL     1      45.374 -10.003   8.811  1.00  0.00     0.063 A 
HETATM    5  N   UNL     1      45.498  -9.293   9.973  1.00  0.00    -0.277 N 
HETATM    6  H   UNL     1      46.353  -8.941  10.388  1.00  0.00     0.189 HD
HETATM    7  N   UNL     1      44.339  -9.060  10.610  1.00  0.00    -0.168 NA
HETATM    8  C   UNL     1      43.410  -9.642   9.818  1.00  0.00     0.156 A 
HETATM    9  C   UNL     1      46.324 -10.446   7.889  1.00  0.00     0.034 A 
HETATM   10  C   UNL     1      45.851 -11.159   6.780  1.00  0.00     0.032 A 
ENDROOT
BRANCH   1  11
HETATM   11  N   UNL     1      44.122 -12.109   5.417  1.00  0.00    -0.327 N 
HETATM   12  C   UNL     1      43.480 -11.598   4.311  1.00  0.00     0.227 C 
HETATM   13  O   UNL     1      43.057 -10.464   4.155  1.00  0.00    -0.273 OA
HETATM   14  H   UNL     1      44.409 -13.075   5.368  1.00  0.00     0.169 HD
BRANCH  12  15
HETATM   15  C   UNL     1      43.315 -12.549   3.177  1.00  0.00     0.087 A 
HETATM   16  C   UNL     1      42.290 -13.659   3.390  1.00  0.00     0.032 A 
HETATM   17  C   UNL     1      42.135 -12.684   2.255  1.00  0.00     0.025 A 
BRANCH  16  18
HETATM   18  C   UNL     1      42.736 -15.085   3.205  1.00  0.00    -0.053 A 
HETATM   19  C   UNL     1      43.139 -15.846   4.318  1.00  0.00     0.009 A 
HETATM   20  C   UNL     1      43.514 -17.186   4.191  1.00  0.00     0.024 A 
HETATM   21  C   UNL     1      43.493 -17.788   2.938  1.00  0.00     0.034 A 
HETATM   22  C   UNL     1      43.099 -17.061   1.818  1.00  0.00     0.024 A 
HETATM   23 CL   UNL     1      43.945 -19.439   2.773  1.00  0.00    -0.084 Cl
HETATM   24  C   UNL     1      42.720 -15.722   1.954  1.00  0.00     0.009 A 
ENDBRANCH  16  18
ENDBRANCH  12  15
ENDBRANCH   1  11
BRANCH   8  25
HETATM   25  C   UNL     1      41.984  -9.618  10.170  1.00  0.00     0.270 C 
HETATM   26  N   UNL     1      41.696 -10.195  11.376  1.00  0.00    -0.365 N 
HETATM   27  H   UNL     1      42.454 -10.593  11.918  1.00  0.00     0.159 HD
HETATM   28  H   UNL     1      40.739 -10.236  11.694  1.00  0.00     0.159 HD
HETATM   29  O   UNL     1      41.099  -9.135   9.472  1.00  0.00    -0.266 OA
ENDBRANCH   8  25
TORSDOF 4
ENDMDL
MODEL 5
REMARK VINA RESULT:      -8.5      8.254     10.816
REMARK  4 active torsions:
REMARK  status: ('A' for Active; 'I' for Inactive)
REMARK    1  A    between atoms: C_2  and  C_3 
REMARK    2  A    between atoms: C_4  and  C_5 
REMARK       I    between atoms: C_5  and  N_6 
REMARK    3  A    between atoms: N_6  and  C_7 
REMARK    4  A    between atoms: C_14  and  C_15 
REMARK       I    between atoms: C_15  and  N_16 
ROOT
HETATM    1  C   UNL     1      43.274 -12.757   6.210  1.00  0.00     0.035 A 
HETATM    2  C   UNL     1      43.426 -14.105   6.561  1.00  0.00     0.046 A 
HETATM    3  C   UNL     1      43.198 -15.109   5.597  1.00  0.00     0.030 A 
HETATM    4  C   UNL     1      42.830 -14.733   4.311  1.00  0.00     0.063 A 
HETATM    5  N   UNL     1      42.697 -15.902   3.616  1.00  0.00    -0.277 N 
HETATM    6  H   UNL     1      42.444 -16.011   2.641  1.00  0.00     0.189 HD
HETATM    7  N   UNL     1      42.931 -17.010   4.339  1.00  0.00    -0.168 NA
HETATM    8  C   UNL     1      43.240 -16.537   5.568  1.00  0.00     0.156 A 
HETATM    9  C   UNL     1      42.663 -13.401   3.927  1.00  0.00     0.034 A 
HETATM   10  C   UNL     1      42.886 -12.423   4.905  1.00  0.00     0.032 A 
ENDROOT
BRANCH   1  11
HETATM   11  N   UNL     1      43.501 -11.685   7.102  1.00  0.00    -0.327 N 
HETATM   12  C   UNL     1      44.708 -11.085   7.385  1.00  0.00     0.227 C 
HETATM   13  O   UNL     1      45.811 -11.397   6.965  1.00  0.00    -0.273 OA
HETATM   14  H   UNL     1      42.684 -11.287   7.538  1.00  0.00     0.169 HD
BRANCH  12  15
HETATM   15  C   UNL     1      44.633  -9.907   8.292  1.00  0.00     0.087 A 
HETATM   16  C   UNL     1      45.153 -10.130   9.710  1.00  0.00     0.032 A 
HETATM   17  C   UNL     1      45.773  -9.083   8.825  1.00  0.00     0.025 A 
BRANCH  16  18
HETATM   18  C   UNL     1      44.238  -9.808  10.862  1.00  0.00    -0.053 A 
HETATM   19  C   UNL     1      43.623 -10.848  11.582  1.00  0.00     0.009 A 
HETATM   20  C   UNL     1      42.806 -10.590  12.685  1.00  0.00     0.024 A 
HETATM   21  C   UNL     1      42.590  -9.276  13.087  1.00  0.00     0.034 A 
HETATM   22  C   UNL     1      43.185  -8.225  12.394  1.00  0.00     0.024 A 
HETATM   23 CL   UNL     1      41.593  -8.948  14.449  1.00  0.00    -0.084 Cl
HETATM   24  C   UNL     1      44.006  -8.493  11.293  1.00  0.00     0.009 A 
ENDBRANCH  16  18
ENDBRANCH  12  15
ENDBRANCH   1  11
BRANCH   8  25
HETATM   25  C   UNL     1      43.562 -17.446   6.676  1.00  0.00     0.270 C 
HETATM   26  N   UNL     1      43.438 -18.772   6.365  1.00  0.00    -0.365 N 
HETATM   27  H   UNL     1      43.136 -19.027   5.432  1.00  0.00     0.159 HD
HETATM   28  H   UNL     1      43.626 -19.469   7.070  1.00  0.00     0.159 HD
HETATM   29  O   UNL     1      43.912 -17.088   7.795  1.00  0.00    -0.266 OA
ENDBRANCH   8  25
TORSDOF 4
ENDMDL
MODEL 6
REMARK VINA RESULT:      -8.5      6.637      8.630
REMARK  4 active torsions:
REMARK  status: ('A' for Active; 'I' for Inactive)
REMARK    1  A    between atoms: C_2  and  C_3 
REMARK    2  A    between atoms: C_4  and  C_5 
REMARK       I    between atoms: C_5  and  N_6 
REMARK    3  A    between atoms: N_6  and  C_7 
REMARK    4  A    between atoms: C_14  and  C_15 
REMARK       I    between atoms: C_15  and  N_16 
ROOT
HETATM    1  C   UNL     1      43.771 -11.860   6.780  1.00  0.00     0.035 A 
HETATM    2  C   UNL     1      43.164 -10.686   7.245  1.00  0.00     0.046 A 
HETATM    3  C   UNL     1      43.962  -9.636   7.747  1.00  0.00     0.030 A 
HETATM    4  C   UNL     1      45.342  -9.792   7.762  1.00  0.00     0.063 A 
HETATM    5  N   UNL     1      45.832  -8.625   8.279  1.00  0.00    -0.277 N 
HETATM    6  H   UNL     1      46.804  -8.381   8.430  1.00  0.00     0.189 HD
HETATM    7  N   UNL     1      44.892  -7.727   8.618  1.00  0.00    -0.168 NA
HETATM    8  C   UNL     1      43.728  -8.339   8.297  1.00  0.00     0.156 A 
HETATM    9  C   UNL     1      45.982 -10.948   7.312  1.00  0.00     0.034 A 
HETATM   10  C   UNL     1      45.167 -11.980   6.828  1.00  0.00     0.032 A 
ENDROOT
BRANCH   1  11
HETATM   11  N   UNL     1      43.055 -12.953   6.243  1.00  0.00    -0.327 N 
HETATM   12  C   UNL     1      42.925 -13.283   4.912  1.00  0.00     0.227 C 
HETATM   13  O   UNL     1      43.353 -12.669   3.948  1.00  0.00    -0.273 OA
HETATM   14  H   UNL     1      42.638 -13.584   6.909  1.00  0.00     0.169 HD
BRANCH  12  15
HETATM   15  C   UNL     1      42.192 -14.551   4.643  1.00  0.00     0.087 A 
HETATM   16  C   UNL     1      42.810 -15.811   5.243  1.00  0.00     0.032 A 
HETATM   17  C   UNL     1      41.416 -15.389   5.621  1.00  0.00     0.025 A 
BRANCH  16  18
HETATM   18  C   UNL     1      43.108 -16.965   4.323  1.00  0.00    -0.053 A 
HETATM   19  C   UNL     1      43.936 -18.015   4.759  1.00  0.00     0.009 A 
HETATM   20  C   UNL     1      44.196 -19.125   3.951  1.00  0.00     0.024 A 
HETATM   21  C   UNL     1      43.628 -19.200   2.684  1.00  0.00     0.034 A 
HETATM   22  C   UNL     1      42.803 -18.176   2.225  1.00  0.00     0.024 A 
HETATM   23 CL   UNL     1      43.935 -20.565   1.685  1.00  0.00    -0.084 Cl
HETATM   24  C   UNL     1      42.543 -17.071   3.042  1.00  0.00     0.009 A 
ENDBRANCH  16  18
ENDBRANCH  12  15
ENDBRANCH   1  11
BRANCH   8  25
HETATM   25  C   UNL     1      42.434  -7.681   8.522  1.00  0.00     0.270 C 
HETATM   26  N   UNL     1      42.172  -6.654   7.657  1.00  0.00    -0.365 N 
HETATM   27  H   UNL     1      42.864  -6.420   6.955  1.00  0.00     0.159 HD
HETATM   28  H   UNL     1      41.311  -6.135   7.745  1.00  0.00     0.159 HD
HETATM   29  O   UNL     1      41.633  -7.992   9.396  1.00  0.00    -0.266 OA
ENDBRANCH   8  25
TORSDOF 4
ENDMDL
MODEL 7
REMARK VINA RESULT:      -8.4      5.694      7.848
REMARK  4 active torsions:
REMARK  status: ('A' for Active; 'I' for Inactive)
REMARK    1  A    between atoms: C_2  and  C_3 
REMARK    2  A    between atoms: C_4  and  C_5 
REMARK       I    between atoms: C_5  and  N_6 
REMARK    3  A    between atoms: N_6  and  C_7 
REMARK    4  A    between atoms: C_14  and  C_15 
REMARK       I    between atoms: C_15  and  N_16 
ROOT
HETATM    1  C   UNL     1      42.633 -12.314   5.310  1.00  0.00     0.035 A 
HETATM    2  C   UNL     1      43.557 -11.781   6.218  1.00  0.00     0.046 A 
HETATM    3  C   UNL     1      43.186 -10.692   7.036  1.00  0.00     0.030 A 
HETATM    4  C   UNL     1      41.901 -10.176   6.922  1.00  0.00     0.063 A 
HETATM    5  N   UNL     1      41.838  -9.160   7.835  1.00  0.00    -0.277 N 
HETATM    6  H   UNL     1      41.044  -8.562   8.033  1.00  0.00     0.189 HD
HETATM    7  N   UNL     1      42.973  -8.957   8.524  1.00  0.00    -0.168 NA
HETATM    8  C   UNL     1      43.819  -9.896   8.039  1.00  0.00     0.156 A 
HETATM    9  C   UNL     1      40.957 -10.677   6.025  1.00  0.00     0.034 A 
HETATM   10  C   UNL     1      41.352 -11.752   5.217  1.00  0.00     0.032 A 
ENDROOT
BRANCH   1  11
HETATM   11  N   UNL     1      42.908 -13.414   4.467  1.00  0.00    -0.327 N 
HETATM   12  C   UNL     1      42.908 -13.423   3.090  1.00  0.00     0.227 C 
HETATM   13  O   UNL     1      42.620 -12.504   2.341  1.00  0.00    -0.273 OA
HETATM   14  H   UNL     1      43.181 -14.270   4.926  1.00  0.00     0.169 HD
BRANCH  12  15
HETATM   15  C   UNL     1      43.335 -14.705   2.464  1.00  0.00     0.087 A 
HETATM   16  C   UNL     1      42.418 -15.899   2.715  1.00  0.00     0.032 A 
HETATM   17  C   UNL     1      42.689 -15.425   1.312  1.00  0.00     0.025 A 
BRANCH  16  18
HETATM   18  C   UNL     1      43.022 -17.149   3.299  1.00  0.00    -0.053 A 
HETATM   19  C   UNL     1      43.296 -17.218   4.678  1.00  0.00     0.009 A 
HETATM   20  C   UNL     1      43.812 -18.377   5.263  1.00  0.00     0.024 A 
HETATM   21  C   UNL     1      44.063 -19.492   4.472  1.00  0.00     0.034 A 
HETATM   22  C   UNL     1      43.802 -19.454   3.105  1.00  0.00     0.024 A 
HETATM   23 CL   UNL     1      44.690 -20.926   5.185  1.00  0.00    -0.084 Cl
HETATM   24  C   UNL     1      43.281 -18.292   2.527  1.00  0.00     0.009 A 
ENDBRANCH  16  18
ENDBRANCH  12  15
ENDBRANCH   1  11
BRANCH   8  25
HETATM   25  C   UNL     1      45.197 -10.011   8.536  1.00  0.00     0.270 C 
HETATM   26  N   UNL     1      46.029  -9.012   8.110  1.00  0.00    -0.365 N 
HETATM   27  H   UNL     1      45.656  -8.295   7.499  1.00  0.00     0.159 HD
HETATM   28  H   UNL     1      46.997  -9.016   8.391  1.00  0.00     0.159 HD
HETATM   29  O   UNL     1      45.605 -10.906   9.266  1.00  0.00    -0.266 OA
ENDBRANCH   8  25
TORSDOF 4
ENDMDL
MODEL 8
REMARK VINA RESULT:      -8.1      4.490      9.728
REMARK  4 active torsions:
REMARK  status: ('A' for Active; 'I' for Inactive)
REMARK    1  A    between atoms: C_2  and  C_3 
REMARK    2  A    between atoms: C_4  and  C_5 
REMARK       I    between atoms: C_5  and  N_6 
REMARK    3  A    between atoms: N_6  and  C_7 
REMARK    4  A    between atoms: C_14  and  C_15 
REMARK       I    between atoms: C_15  and  N_16 
ROOT
HETATM    1  C   UNL     1      42.353 -15.992   2.135  1.00  0.00     0.035 A 
HETATM    2  C   UNL     1      42.671 -17.357   2.154  1.00  0.00     0.046 A 
HETATM    3  C   UNL     1      43.380 -17.895   3.249  1.00  0.00     0.030 A 
HETATM    4  C   UNL     1      43.743 -17.052   4.292  1.00  0.00     0.063 A 
HETATM    5  N   UNL     1      44.391 -17.851   5.193  1.00  0.00    -0.277 N 
HETATM    6  H   UNL     1      44.790 -17.573   6.082  1.00  0.00     0.189 HD
HETATM    7  N   UNL     1      44.495 -19.138   4.823  1.00  0.00    -0.168 NA
HETATM    8  C   UNL     1      43.877 -19.182   3.621  1.00  0.00     0.156 A 
HETATM    9  C   UNL     1      43.450 -15.688   4.304  1.00  0.00     0.034 A 
HETATM   10  C   UNL     1      42.754 -15.175   3.201  1.00  0.00     0.032 A 
ENDROOT
BRANCH   1  11
HETATM   11  N   UNL     1      41.630 -15.371   1.093  1.00  0.00    -0.327 N 
HETATM   12  C   UNL     1      40.270 -15.162   1.040  1.00  0.00     0.227 C 
HETATM   13  O   UNL     1      39.430 -15.518   1.850  1.00  0.00    -0.273 OA
HETATM   14  H   UNL     1      42.176 -14.998   0.331  1.00  0.00     0.169 HD
BRANCH  12  15
HETATM   15  C   UNL     1      39.793 -14.389  -0.141  1.00  0.00     0.087 A 
HETATM   16  C   UNL     1      39.954 -12.874  -0.047  1.00  0.00     0.032 A 
HETATM   17  C   UNL     1      40.625 -13.646  -1.150  1.00  0.00     0.025 A 
BRANCH  16  18
HETATM   18  C   UNL     1      38.735 -12.015  -0.258  1.00  0.00    -0.053 A 
HETATM   19  C   UNL     1      38.028 -11.514   0.850  1.00  0.00     0.009 A 
HETATM   20  C   UNL     1      36.921 -10.676   0.694  1.00  0.00     0.024 A 
HETATM   21  C   UNL     1      36.502 -10.325  -0.584  1.00  0.00     0.034 A 
HETATM   22  C   UNL     1      37.181 -10.805  -1.701  1.00  0.00     0.024 A 
HETATM   23 CL   UNL     1      35.145  -9.288  -0.787  1.00  0.00    -0.084 Cl
HETATM   24  C   UNL     1      38.292 -11.640  -1.536  1.00  0.00     0.009 A 
ENDBRANCH  16  18
ENDBRANCH  12  15
ENDBRANCH   1  11
BRANCH   8  25
HETATM   25  C   UNL     1      43.776 -20.435   2.860  1.00  0.00     0.270 C 
HETATM   26  N   UNL     1      44.091 -21.553   3.582  1.00  0.00    -0.365 N 
HETATM   27  H   UNL     1      44.370 -21.445   4.551  1.00  0.00     0.159 HD
HETATM   28  H   UNL     1      44.062 -22.458   3.137  1.00  0.00     0.159 HD
HETATM   29  O   UNL     1      43.446 -20.514   1.683  1.00  0.00    -0.266 OA
ENDBRANCH   8  25
TORSDOF 4
ENDMDL
MODEL 9
REMARK VINA RESULT:      -8.1      1.889      2.168
REMARK  4 active torsions:
REMARK  status: ('A' for Active; 'I' for Inactive)
REMARK    1  A    between atoms: C_2  and  C_3 
REMARK    2  A    between atoms: C_4  and  C_5 
REMARK       I    between atoms: C_5  and  N_6 
REMARK    3  A    between atoms: N_6  and  C_7 
REMARK    4  A    between atoms: C_14  and  C_15 
REMARK       I    between atoms: C_15  and  N_16 
ROOT
HETATM    1  C   UNL     1      40.458 -13.900   0.092  1.00  0.00     0.035 A 
HETATM    2  C   UNL     1      40.586 -12.566  -0.316  1.00  0.00     0.046 A 
HETATM    3  C   UNL     1      39.906 -12.118  -1.470  1.00  0.00     0.030 A 
HETATM    4  C   UNL     1      39.116 -13.019  -2.174  1.00  0.00     0.063 A 
HETATM    5  N   UNL     1      38.587 -12.301  -3.210  1.00  0.00    -0.277 N 
HETATM    6  H   UNL     1      37.954 -12.636  -3.927  1.00  0.00     0.189 HD
HETATM    7  N   UNL     1      38.974 -11.015  -3.253  1.00  0.00    -0.168 NA
HETATM    8  C   UNL     1      39.793 -10.887  -2.184  1.00  0.00     0.156 A 
HETATM    9  C   UNL     1      38.970 -14.356  -1.801  1.00  0.00     0.034 A 
HETATM   10  C   UNL     1      39.663 -14.778  -0.658  1.00  0.00     0.032 A 
ENDROOT
BRANCH   1  11
HETATM   11  N   UNL     1      41.083 -14.431   1.242  1.00  0.00    -0.327 N 
HETATM   12  C   UNL     1      40.741 -14.191   2.554  1.00  0.00     0.227 C 
HETATM   13  O   UNL     1      39.876 -13.439   2.973  1.00  0.00    -0.273 OA
HETATM   14  H   UNL     1      41.826 -15.093   1.081  1.00  0.00     0.169 HD
BRANCH  12  15
HETATM   15  C   UNL     1      41.515 -14.968   3.562  1.00  0.00     0.087 A 
HETATM   16  C   UNL     1      42.910 -15.410   3.127  1.00  0.00     0.032 A 
HETATM   17  C   UNL     1      42.729 -14.524   4.331  1.00  0.00     0.025 A 
BRANCH  16  18
HETATM   18  C   UNL     1      43.253 -16.873   3.218  1.00  0.00    -0.053 A 
HETATM   19  C   UNL     1      43.913 -17.370   4.357  1.00  0.00     0.009 A 
HETATM   20  C   UNL     1      44.205 -18.729   4.497  1.00  0.00     0.024 A 
HETATM   21  C   UNL     1      43.840 -19.617   3.493  1.00  0.00     0.034 A 
HETATM   22  C   UNL     1      43.186 -19.155   2.353  1.00  0.00     0.024 A 
HETATM   23 CL   UNL     1      44.188 -21.293   3.660  1.00  0.00    -0.084 Cl
HETATM   24  C   UNL     1      42.891 -17.794   2.222  1.00  0.00     0.009 A 
ENDBRANCH  16  18
ENDBRANCH  12  15
ENDBRANCH   1  11
BRANCH   8  25
HETATM   25  C   UNL     1      40.444  -9.607  -1.872  1.00  0.00     0.270 C 
HETATM   26  N   UNL     1      41.232  -9.121  -2.880  1.00  0.00    -0.365 N 
HETATM   27  H   UNL     1      41.317  -9.659  -3.734  1.00  0.00     0.159 HD
HETATM   28  H   UNL     1      41.729  -8.253  -2.749  1.00  0.00     0.159 HD
HETATM   29  O   UNL     1      40.321  -8.998  -0.816  1.00  0.00    -0.266 OA
ENDBRANCH   8  25
TORSDOF 4
ENDMDL
MODEL 10
REMARK VINA RESULT:      -8.1      4.750      9.357
REMARK  4 active torsions:
REMARK  status: ('A' for Active; 'I' for Inactive)
REMARK    1  A    between atoms: C_2  and  C_3 
REMARK    2  A    between atoms: C_4  and  C_5 
REMARK       I    between atoms: C_5  and  N_6 
REMARK    3  A    between atoms: N_6  and  C_7 
REMARK    4  A    between atoms: C_14  and  C_15 
REMARK       I    between atoms: C_15  and  N_16 
ROOT
HETATM    1  C   UNL     1      41.660 -16.257   2.447  1.00  0.00     0.035 A 
HETATM    2  C   UNL     1      41.644 -16.083   3.837  1.00  0.00     0.046 A 
HETATM    3  C   UNL     1      42.547 -16.808   4.644  1.00  0.00     0.030 A 
HETATM    4  C   UNL     1      43.440 -17.680   4.033  1.00  0.00     0.063 A 
HETATM    5  N   UNL     1      44.178 -18.213   5.053  1.00  0.00    -0.277 N 
HETATM    6  H   UNL     1      44.932 -18.886   4.977  1.00  0.00     0.189 HD
HETATM    7  N   UNL     1      43.835 -17.778   6.276  1.00  0.00    -0.168 NA
HETATM    8  C   UNL     1      42.825 -16.910   6.041  1.00  0.00     0.156 A 
HETATM    9  C   UNL     1      43.481 -17.883   2.653  1.00  0.00     0.034 A 
HETATM   10  C   UNL     1      42.568 -17.159   1.874  1.00  0.00     0.032 A 
ENDROOT
BRANCH   1  11
HETATM   11  N   UNL     1      40.810 -15.560   1.560  1.00  0.00    -0.327 N 
HETATM   12  C   UNL     1      40.986 -14.282   1.076  1.00  0.00     0.227 C 
HETATM   13  O   UNL     1      41.875 -13.495   1.360  1.00  0.00    -0.273 OA
HETATM   14  H   UNL     1      40.016 -16.072   1.208  1.00  0.00     0.169 HD
BRANCH  12  15
HETATM   15  C   UNL     1      39.978 -13.840   0.074  1.00  0.00     0.087 A 
HETATM   16  C   UNL     1      40.497 -13.660  -1.350  1.00  0.00     0.032 A 
HETATM   17  C   UNL     1      39.393 -14.640  -1.057  1.00  0.00     0.025 A 
BRANCH  16  18
HETATM   18  C   UNL     1      40.271 -12.334  -2.028  1.00  0.00    -0.053 A 
HETATM   19  C   UNL     1      39.042 -12.069  -2.660  1.00  0.00     0.009 A 
HETATM   20  C   UNL     1      38.779 -10.834  -3.258  1.00  0.00     0.024 A 
HETATM   21  C   UNL     1      39.749  -9.839  -3.232  1.00  0.00     0.034 A 
HETATM   22  C   UNL     1      40.975 -10.071  -2.614  1.00  0.00     0.024 A 
HETATM   23 CL   UNL     1      39.432  -8.312  -3.958  1.00  0.00    -0.084 Cl
HETATM   24  C   UNL     1      41.229 -11.309  -2.013  1.00  0.00     0.009 A 
ENDBRANCH  16  18
ENDBRANCH  12  15
ENDBRANCH   1  11
BRANCH   8  25
HETATM   25  C   UNL     1      42.153 -16.205   7.141  1.00  0.00     0.270 C 
HETATM   26  N   UNL     1      42.988 -15.833   8.159  1.00  0.00    -0.365 N 
HETATM   27  H   UNL     1      43.972 -16.067   8.091  1.00  0.00     0.159 HD
HETATM   28  H   UNL     1      42.612 -15.355   8.964  1.00  0.00     0.159 HD
HETATM   29  O   UNL     1      40.954 -15.956   7.184  1.00  0.00    -0.266 OA
ENDBRANCH   8  25
TORSDOF 4
ENDMDL
