MODEL 1
REMARK VINA RESULT:      -9.3      0.000      0.000
REMARK  7 active torsions:
REMARK  status: ('A' for Active; 'I' for Inactive)
REMARK    1  A    between atoms: C_4  and  C_5 
REMARK    2  A    between atoms: C_9  and  C_10 
REMARK       I    between atoms: C_10  and  N_11 
REMARK    3  A    between atoms: N_11  and  N_12 
REMARK       I    between atoms: N_12  and  C_13 
REMARK    4  A    between atoms: C_13  and  C_14 
REMARK    5  A    between atoms: C_14  and  C_15 
REMARK    6  A    between atoms: C_15  and  N_16 
REMARK    7  A    between atoms: C_15  and  C_20 
REMARK       I    between atoms: N_16  and  C_17 
REMARK       I    between atoms: C_17  and  N_18 
ROOT
HETATM    1  N   UNL     1      39.478 -13.945   3.196  1.00  0.00    -0.267 N 
HETATM    2  C   UNL     1      39.395 -12.701   3.789  1.00  0.00     0.238 C 
HETATM    3  O   UNL     1      39.019 -11.699   3.180  1.00  0.00    -0.272 OA
HETATM    4  H   UNL     1      40.186 -14.583   3.586  1.00  0.00     0.190 HD
ENDROOT
BRANCH   1   5
HETATM    5  N   UNL     1      39.250 -13.998   1.810  1.00  0.00    -0.262 N 
HETATM    6  C   UNL     1      40.159 -14.444   0.869  1.00  0.00     0.288 C 
HETATM    7  O   UNL     1      39.983 -14.139  -0.310  1.00  0.00    -0.264 OA
HETATM    8  H   UNL     1      38.477 -13.430   1.465  1.00  0.00     0.190 HD
BRANCH   6   9
HETATM    9  C   UNL     1      41.275 -15.252   1.294  1.00  0.00     0.121 A 
HETATM   10  N   UNL     1      42.596 -14.951   1.152  1.00  0.00    -0.272 N 
HETATM   11  N   UNL     1      43.439 -15.900   1.592  1.00  0.00    -0.174 NA
HETATM   12  H   UNL     1      42.979 -14.120   0.717  1.00  0.00     0.189 HD
HETATM   13  C   UNL     1      42.632 -16.834   2.126  1.00  0.00     0.089 A 
HETATM   14  C   UNL     1      41.272 -16.453   1.975  1.00  0.00     0.071 A 
BRANCH  13  15
HETATM   15  C   UNL     1      43.154 -18.058   2.738  1.00  0.00    -0.006 A 
HETATM   16  C   UNL     1      43.034 -19.294   2.085  1.00  0.00     0.014 A 
HETATM   17  C   UNL     1      43.559 -20.456   2.659  1.00  0.00     0.001 A 
HETATM   18  C   UNL     1      44.210 -20.394   3.889  1.00  0.00     0.000 A 
HETATM   19  C   UNL     1      44.332 -19.175   4.551  1.00  0.00     0.001 A 
HETATM   20  C   UNL     1      43.803 -18.014   3.980  1.00  0.00     0.014 A 
ENDBRANCH  13  15
ENDBRANCH   6   9
ENDBRANCH   1   5
BRANCH   2  21
HETATM   21  C   UNL     1      39.822 -12.640   5.244  1.00  0.00     0.134 C 
BRANCH  21  22
HETATM   22  C   UNL     1      41.343 -12.573   5.476  1.00  0.00     0.127 C 
BRANCH  22  23
HETATM   23  N   UNL     1      42.171 -12.007   4.406  1.00  0.00    -0.339 N 
HETATM   24  C   UNL     1      42.329 -10.703   4.078  1.00  0.00     0.292 C 
HETATM   25  N   UNL     1      43.053 -10.525   2.950  1.00  0.00    -0.254 NA
HETATM   26  O   UNL     1      41.864  -9.753   4.690  1.00  0.00    -0.254 OA
HETATM   27  H   UNL     1      42.943 -11.197   2.205  1.00  0.00     0.128 HD
HETATM   28  H   UNL     1      43.042  -9.564   2.622  1.00  0.00     0.128 HD
HETATM   29  H   UNL     1      42.733 -12.665   3.885  1.00  0.00     0.164 HD
ENDBRANCH  22  23
BRANCH  22  30
HETATM   30  C   UNL     1      41.942 -13.851   6.053  1.00  0.00    -0.035 A 
HETATM   31  C   UNL     1      43.323 -14.016   6.256  1.00  0.00     0.011 A 
HETATM   32  C   UNL     1      43.835 -15.217   6.754  1.00  0.00     0.024 A 
HETATM   33  C   UNL     1      42.974 -16.269   7.053  1.00  0.00     0.034 A 
HETATM   34 CL   UNL     1      43.608 -17.748   7.660  1.00  0.00    -0.084 Cl
HETATM   35  C   UNL     1      41.603 -16.129   6.861  1.00  0.00     0.024 A 
HETATM   36  C   UNL     1      41.091 -14.927   6.367  1.00  0.00     0.011 A 
ENDBRANCH  22  30
ENDBRANCH  21  22
ENDBRANCH   2  21
TORSDOF 7
ENDMDL
MODEL 2
REMARK VINA RESULT:      -9.2      2.237      3.243
REMARK  7 active torsions:
REMARK  status: ('A' for Active; 'I' for Inactive)
REMARK    1  A    between atoms: C_4  and  C_5 
REMARK    2  A    between atoms: C_9  and  C_10 
REMARK       I    between atoms: C_10  and  N_11 
REMARK    3  A    between atoms: N_11  and  N_12 
REMARK       I    between atoms: N_12  and  C_13 
REMARK    4  A    between atoms: C_13  and  C_14 
REMARK    5  A    between atoms: C_14  and  C_15 
REMARK    6  A    between atoms: C_15  and  N_16 
REMARK    7  A    between atoms: C_15  and  C_20 
REMARK       I    between atoms: N_16  and  C_17 
REMARK       I    between atoms: C_17  and  N_18 
ROOT
HETATM    1  N   UNL     1      39.913 -13.435   3.062  1.00  0.00    -0.267 N 
HETATM    2  C   UNL     1      39.527 -12.199   3.542  1.00  0.00     0.238 C 
HETATM    3  O   UNL     1      38.745 -11.467   2.936  1.00  0.00    -0.272 OA
HETATM    4  H   UNL     1      40.847 -13.759   3.351  1.00  0.00     0.190 HD
ENDROOT
BRANCH   1   5
HETATM    5  N   UNL     1      39.484 -13.768   1.765  1.00  0.00    -0.262 N 
HETATM    6  C   UNL     1      40.216 -14.494   0.845  1.00  0.00     0.288 C 
HETATM    7  O   UNL     1      39.891 -14.440  -0.341  1.00  0.00    -0.264 OA
HETATM    8  H   UNL     1      38.707 -13.219   1.400  1.00  0.00     0.190 HD
BRANCH   6   9
HETATM    9  C   UNL     1      41.327 -15.292   1.299  1.00  0.00     0.121 A 
HETATM   10  N   UNL     1      42.649 -14.988   1.175  1.00  0.00    -0.272 N 
HETATM   11  N   UNL     1      43.489 -15.927   1.642  1.00  0.00    -0.174 NA
HETATM   12  H   UNL     1      43.037 -14.162   0.734  1.00  0.00     0.189 HD
HETATM   13  C   UNL     1      42.677 -16.857   2.176  1.00  0.00     0.089 A 
HETATM   14  C   UNL     1      41.317 -16.483   1.997  1.00  0.00     0.071 A 
BRANCH  13  15
HETATM   15  C   UNL     1      43.192 -18.071   2.813  1.00  0.00    -0.006 A 
HETATM   16  C   UNL     1      43.698 -18.036   4.122  1.00  0.00     0.014 A 
HETATM   17  C   UNL     1      44.163 -19.203   4.736  1.00  0.00     0.001 A 
HETATM   18  C   UNL     1      44.125 -20.416   4.051  1.00  0.00     0.000 A 
HETATM   19  C   UNL     1      43.630 -20.463   2.750  1.00  0.00     0.001 A 
HETATM   20  C   UNL     1      43.170 -19.297   2.133  1.00  0.00     0.014 A 
ENDBRANCH  13  15
ENDBRANCH   6   9
ENDBRANCH   1   5
BRANCH   2  21
HETATM   21  C   UNL     1      40.151 -11.787   4.862  1.00  0.00     0.134 C 
BRANCH  21  22
HETATM   22  C   UNL     1      41.097 -12.827   5.491  1.00  0.00     0.127 C 
BRANCH  22  23
HETATM   23  N   UNL     1      40.507 -13.839   6.374  1.00  0.00    -0.339 N 
HETATM   24  C   UNL     1      40.357 -15.163   6.137  1.00  0.00     0.292 C 
HETATM   25  N   UNL     1      39.646 -15.795   7.098  1.00  0.00    -0.254 NA
HETATM   26  O   UNL     1      40.776 -15.764   5.160  1.00  0.00    -0.254 OA
HETATM   27  H   UNL     1      38.883 -15.296   7.530  1.00  0.00     0.128 HD
HETATM   28  H   UNL     1      39.404 -16.749   6.846  1.00  0.00     0.128 HD
HETATM   29  H   UNL     1      40.229 -13.519   7.290  1.00  0.00     0.164 HD
ENDBRANCH  22  23
BRANCH  22  30
HETATM   30  C   UNL     1      42.378 -12.234   6.070  1.00  0.00    -0.035 A 
HETATM   31  C   UNL     1      43.570 -12.969   6.178  1.00  0.00     0.011 A 
HETATM   32  C   UNL     1      44.713 -12.400   6.747  1.00  0.00     0.024 A 
HETATM   33  C   UNL     1      44.677 -11.090   7.217  1.00  0.00     0.034 A 
HETATM   34 CL   UNL     1      46.083 -10.394   7.922  1.00  0.00    -0.084 Cl
HETATM   35  C   UNL     1      43.508 -10.343   7.120  1.00  0.00     0.024 A 
HETATM   36  C   UNL     1      42.366 -10.910   6.547  1.00  0.00     0.011 A 
ENDBRANCH  22  30
ENDBRANCH  21  22
ENDBRANCH   2  21
TORSDOF 7
ENDMDL
MODEL 3
REMARK VINA RESULT:      -9.1      1.515      1.877
REMARK  7 active torsions:
REMARK  status: ('A' for Active; 'I' for Inactive)
REMARK    1  A    between atoms: C_4  and  C_5 
REMARK    2  A    between atoms: C_9  and  C_10 
REMARK       I    between atoms: C_10  and  N_11 
REMARK    3  A    between atoms: N_11  and  N_12 
REMARK       I    between atoms: N_12  and  C_13 
REMARK    4  A    between atoms: C_13  and  C_14 
REMARK    5  A    between atoms: C_14  and  C_15 
REMARK    6  A    between atoms: C_15  and  N_16 
REMARK    7  A    between atoms: C_15  and  C_20 
REMARK       I    between atoms: N_16  and  C_17 
REMARK       I    between atoms: C_17  and  N_18 
ROOT
HETATM    1  N   UNL     1      40.101 -13.252   3.033  1.00  0.00    -0.267 N 
HETATM    2  C   UNL     1      40.472 -11.926   3.129  1.00  0.00     0.238 C 
HETATM    3  O   UNL     1      40.219 -11.101   2.251  1.00  0.00    -0.272 OA
HETATM    4  H   UNL     1      40.701 -13.925   3.530  1.00  0.00     0.190 HD
ENDROOT
BRANCH   1   5
HETATM    5  N   UNL     1      39.540 -13.662   1.811  1.00  0.00    -0.262 N 
HETATM    6  C   UNL     1      40.153 -14.493   0.892  1.00  0.00     0.288 C 
HETATM    7  O   UNL     1      39.723 -14.513  -0.261  1.00  0.00    -0.264 OA
HETATM    8  H   UNL     1      38.757 -13.104   1.471  1.00  0.00     0.190 HD
BRANCH   6   9
HETATM    9  C   UNL     1      41.265 -15.309   1.310  1.00  0.00     0.121 A 
HETATM   10  N   UNL     1      42.586 -15.048   1.103  1.00  0.00    -0.272 N 
HETATM   11  N   UNL     1      43.424 -15.997   1.554  1.00  0.00    -0.174 NA
HETATM   12  H   UNL     1      42.971 -14.249   0.614  1.00  0.00     0.189 HD
HETATM   13  C   UNL     1      42.617 -16.884   2.163  1.00  0.00     0.089 A 
HETATM   14  C   UNL     1      41.261 -16.476   2.047  1.00  0.00     0.071 A 
BRANCH  13  15
HETATM   15  C   UNL     1      43.134 -18.092   2.810  1.00  0.00    -0.006 A 
HETATM   16  C   UNL     1      43.121 -19.326   2.143  1.00  0.00     0.014 A 
HETATM   17  C   UNL     1      43.641 -20.472   2.755  1.00  0.00     0.001 A 
HETATM   18  C   UNL     1      44.181 -20.394   4.036  1.00  0.00     0.000 A 
HETATM   19  C   UNL     1      44.196 -19.176   4.712  1.00  0.00     0.001 A 
HETATM   20  C   UNL     1      43.671 -18.032   4.104  1.00  0.00     0.014 A 
ENDBRANCH  13  15
ENDBRANCH   6   9
ENDBRANCH   1   5
BRANCH   2  21
HETATM   21  C   UNL     1      41.238 -11.550   4.384  1.00  0.00     0.134 C 
BRANCH  21  22
HETATM   22  C   UNL     1      40.708 -12.180   5.686  1.00  0.00     0.127 C 
BRANCH  22  23
HETATM   23  N   UNL     1      40.325 -11.275   6.774  1.00  0.00    -0.339 N 
HETATM   24  C   UNL     1      39.086 -10.835   7.092  1.00  0.00     0.292 C 
HETATM   25  N   UNL     1      39.090  -9.897   8.066  1.00  0.00    -0.254 NA
HETATM   26  O   UNL     1      38.044 -11.196   6.565  1.00  0.00    -0.254 OA
HETATM   27  H   UNL     1      39.853  -9.236   8.084  1.00  0.00     0.128 HD
HETATM   28  H   UNL     1      38.183  -9.459   8.196  1.00  0.00     0.128 HD
HETATM   29  H   UNL     1      41.069 -10.988   7.394  1.00  0.00     0.164 HD
ENDBRANCH  22  23
BRANCH  22  30
HETATM   30  C   UNL     1      41.531 -13.365   6.184  1.00  0.00    -0.035 A 
HETATM   31  C   UNL     1      42.915 -13.283   6.407  1.00  0.00     0.011 A 
HETATM   32  C   UNL     1      43.640 -14.401   6.829  1.00  0.00     0.024 A 
HETATM   33  C   UNL     1      42.989 -15.615   7.031  1.00  0.00     0.034 A 
HETATM   34 CL   UNL     1      43.883 -16.991   7.546  1.00  0.00    -0.084 Cl
HETATM   35  C   UNL     1      41.618 -15.720   6.819  1.00  0.00     0.024 A 
HETATM   36  C   UNL     1      40.893 -14.601   6.400  1.00  0.00     0.011 A 
ENDBRANCH  22  30
ENDBRANCH  21  22
ENDBRANCH   2  21
TORSDOF 7
ENDMDL
MODEL 4
REMARK VINA RESULT:      -8.8      2.615      5.501
REMARK  7 active torsions:
REMARK  status: ('A' for Active; 'I' for Inactive)
REMARK    1  A    between atoms: C_4  and  C_5 
REMARK    2  A    between atoms: C_9  and  C_10 
REMARK       I    between atoms: C_10  and  N_11 
REMARK    3  A    between atoms: N_11  and  N_12 
REMARK       I    between atoms: N_12  and  C_13 
REMARK    4  A    between atoms: C_13  and  C_14 
REMARK    5  A    between atoms: C_14  and  C_15 
REMARK    6  A    between atoms: C_15  and  N_16 
REMARK    7  A    between atoms: C_15  and  C_20 
REMARK       I    between atoms: N_16  and  C_17 
REMARK       I    between atoms: C_17  and  N_18 
ROOT
HETATM    1  N   UNL     1      41.093 -12.027   6.414  1.00  0.00    -0.267 N 
HETATM    2  C   UNL     1      41.242 -13.389   6.239  1.00  0.00     0.238 C 
HETATM    3  O   UNL     1      40.283 -14.159   6.178  1.00  0.00    -0.272 OA
HETATM    4  H   UNL     1      41.869 -11.547   6.890  1.00  0.00     0.190 HD
ENDROOT
BRANCH   1   5
HETATM    5  N   UNL     1      39.790 -11.565   6.668  1.00  0.00    -0.262 N 
HETATM    6  C   UNL     1      38.963 -10.960   5.739  1.00  0.00     0.288 C 
HETATM    7  O   UNL     1      38.000 -10.310   6.144  1.00  0.00    -0.264 OA
HETATM    8  H   UNL     1      39.550 -11.431   7.650  1.00  0.00     0.190 HD
BRANCH   6   9
HETATM    9  C   UNL     1      39.249 -11.114   4.335  1.00  0.00     0.121 A 
HETATM   10  N   UNL     1      39.859 -10.202   3.527  1.00  0.00    -0.272 N 
HETATM   11  N   UNL     1      39.964 -10.574   2.240  1.00  0.00    -0.174 NA
HETATM   12  H   UNL     1      40.187  -9.283   3.798  1.00  0.00     0.189 HD
HETATM   13  C   UNL     1      39.475 -11.826   2.219  1.00  0.00     0.089 A 
HETATM   14  C   UNL     1      39.036 -12.204   3.516  1.00  0.00     0.071 A 
BRANCH  13  15
HETATM   15  C   UNL     1      39.411 -12.619   0.988  1.00  0.00    -0.006 A 
HETATM   16  C   UNL     1      38.725 -12.141  -0.139  1.00  0.00     0.014 A 
HETATM   17  C   UNL     1      38.690 -12.889  -1.320  1.00  0.00     0.001 A 
HETATM   18  C   UNL     1      39.343 -14.117  -1.388  1.00  0.00     0.000 A 
HETATM   19  C   UNL     1      40.024 -14.606  -0.275  1.00  0.00     0.001 A 
HETATM   20  C   UNL     1      40.054 -13.862   0.908  1.00  0.00     0.014 A 
ENDBRANCH  13  15
ENDBRANCH   6   9
ENDBRANCH   1   5
BRANCH   2  21
HETATM   21  C   UNL     1      42.674 -13.883   6.149  1.00  0.00     0.134 C 
BRANCH  21  22
HETATM   22  C   UNL     1      43.255 -13.946   4.724  1.00  0.00     0.127 C 
BRANCH  22  23
HETATM   23  N   UNL     1      42.861 -12.894   3.781  1.00  0.00    -0.339 N 
HETATM   24  C   UNL     1      43.510 -11.738   3.507  1.00  0.00     0.292 C 
HETATM   25  N   UNL     1      42.809 -10.919   2.691  1.00  0.00    -0.254 NA
HETATM   26  O   UNL     1      44.601 -11.411   3.947  1.00  0.00    -0.254 OA
HETATM   27  H   UNL     1      41.805 -10.893   2.793  1.00  0.00     0.128 HD
HETATM   28  H   UNL     1      43.223  -9.995   2.609  1.00  0.00     0.128 HD
HETATM   29  H   UNL     1      42.035 -13.079   3.230  1.00  0.00     0.164 HD
ENDBRANCH  22  23
BRANCH  22  30
HETATM   30  C   UNL     1      43.208 -15.333   4.092  1.00  0.00    -0.035 A 
HETATM   31  C   UNL     1      43.489 -16.504   4.817  1.00  0.00     0.011 A 
HETATM   32  C   UNL     1      43.469 -17.754   4.192  1.00  0.00     0.024 A 
HETATM   33  C   UNL     1      43.172 -17.849   2.835  1.00  0.00     0.034 A 
HETATM   34 CL   UNL     1      43.154 -19.388   2.068  1.00  0.00    -0.084 Cl
HETATM   35  C   UNL     1      42.890 -16.704   2.098  1.00  0.00     0.024 A 
HETATM   36  C   UNL     1      42.906 -15.454   2.723  1.00  0.00     0.011 A 
ENDBRANCH  22  30
ENDBRANCH  21  22
ENDBRANCH   2  21
TORSDOF 7
ENDMDL
MODEL 5
REMARK VINA RESULT:      -8.7      2.501      3.500
REMARK  7 active torsions:
REMARK  status: ('A' for Active; 'I' for Inactive)
REMARK    1  A    between atoms: C_4  and  C_5 
REMARK    2  A    between atoms: C_9  and  C_10 
REMARK       I    between atoms: C_10  and  N_11 
REMARK    3  A    between atoms: N_11  and  N_12 
REMARK       I    between atoms: N_12  and  C_13 
REMARK    4  A    between atoms: C_13  and  C_14 
REMARK    5  A    between atoms: C_14  and  C_15 
REMARK    6  A    between atoms: C_15  and  N_16 
REMARK    7  A    between atoms: C_15  and  C_20 
REMARK       I    between atoms: N_16  and  C_17 
REMARK       I    between atoms: C_17  and  N_18 
ROOT
HETATM    1  N   UNL     1      39.665 -11.864   2.480  1.00  0.00    -0.267 N 
HETATM    2  C   UNL     1      40.929 -11.324   2.603  1.00  0.00     0.238 C 
HETATM    3  O   UNL     1      41.685 -11.178   1.642  1.00  0.00    -0.272 OA
HETATM    4  H   UNL     1      39.302 -12.354   3.309  1.00  0.00     0.190 HD
ENDROOT
BRANCH   1   5
HETATM    5  N   UNL     1      39.322 -12.381   1.218  1.00  0.00    -0.262 N 
HETATM    6  C   UNL     1      39.723 -13.608   0.723  1.00  0.00     0.288 C 
HETATM    7  O   UNL     1      39.645 -13.807  -0.489  1.00  0.00    -0.264 OA
HETATM    8  H   UNL     1      38.982 -11.702   0.537  1.00  0.00     0.190 HD
BRANCH   6   9
HETATM    9  C   UNL     1      40.212 -14.611   1.636  1.00  0.00     0.121 A 
HETATM   10  N   UNL     1      39.526 -15.167   2.674  1.00  0.00    -0.272 N 
HETATM   11  N   UNL     1      40.229 -16.049   3.404  1.00  0.00    -0.174 NA
HETATM   12  H   UNL     1      38.579 -14.944   2.956  1.00  0.00     0.189 HD
HETATM   13  C   UNL     1      41.408 -16.140   2.762  1.00  0.00     0.089 A 
HETATM   14  C   UNL     1      41.425 -15.268   1.640  1.00  0.00     0.071 A 
BRANCH  13  15
HETATM   15  C   UNL     1      42.485 -17.016   3.229  1.00  0.00    -0.006 A 
HETATM   16  C   UNL     1      43.053 -16.841   4.500  1.00  0.00     0.014 A 
HETATM   17  C   UNL     1      44.061 -17.698   4.953  1.00  0.00     0.001 A 
HETATM   18  C   UNL     1      44.509 -18.738   4.142  1.00  0.00     0.000 A 
HETATM   19  C   UNL     1      43.958 -18.920   2.876  1.00  0.00     0.001 A 
HETATM   20  C   UNL     1      42.954 -18.061   2.420  1.00  0.00     0.014 A 
ENDBRANCH  13  15
ENDBRANCH   6   9
ENDBRANCH   1   5
BRANCH   2  21
HETATM   21  C   UNL     1      41.342 -10.941   4.012  1.00  0.00     0.134 C 
BRANCH  21  22
HETATM   22  C   UNL     1      42.060 -12.048   4.807  1.00  0.00     0.127 C 
BRANCH  22  23
HETATM   23  N   UNL     1      41.297 -13.257   5.132  1.00  0.00    -0.339 N 
HETATM   24  C   UNL     1      40.157 -13.351   5.854  1.00  0.00     0.292 C 
HETATM   25  N   UNL     1      39.783 -14.629   6.089  1.00  0.00    -0.254 NA
HETATM   26  O   UNL     1      39.512 -12.411   6.295  1.00  0.00    -0.254 OA
HETATM   27  H   UNL     1      40.507 -15.314   6.244  1.00  0.00     0.128 HD
HETATM   28  H   UNL     1      39.019 -14.701   6.755  1.00  0.00     0.128 HD
HETATM   29  H   UNL     1      41.632 -14.116   4.721  1.00  0.00     0.164 HD
ENDBRANCH  22  23
BRANCH  22  30
HETATM   30  C   UNL     1      42.865 -11.536   5.997  1.00  0.00    -0.035 A 
HETATM   31  C   UNL     1      42.430 -10.471   6.804  1.00  0.00     0.011 A 
HETATM   32  C   UNL     1      43.214 -10.009   7.864  1.00  0.00     0.024 A 
HETATM   33  C   UNL     1      44.445 -10.604   8.129  1.00  0.00     0.034 A 
HETATM   34 CL   UNL     1      45.410 -10.030   9.432  1.00  0.00    -0.084 Cl
HETATM   35  C   UNL     1      44.896 -11.661   7.345  1.00  0.00     0.024 A 
HETATM   36  C   UNL     1      44.110 -12.125   6.287  1.00  0.00     0.011 A 
ENDBRANCH  22  30
ENDBRANCH  21  22
ENDBRANCH   2  21
TORSDOF 7
ENDMDL
MODEL 6
REMARK VINA RESULT:      -8.5      5.159      8.943
REMARK  7 active torsions:
REMARK  status: ('A' for Active; 'I' for Inactive)
REMARK    1  A    between atoms: C_4  and  C_5 
REMARK    2  A    between atoms: C_9  and  C_10 
REMARK       I    between atoms: C_10  and  N_11 
REMARK    3  A    between atoms: N_11  and  N_12 
REMARK       I    between atoms: N_12  and  C_13 
REMARK    4  A    between atoms: C_13  and  C_14 
REMARK    5  A    between atoms: C_14  and  C_15 
REMARK    6  A    between atoms: C_15  and  N_16 
REMARK    7  A    between atoms: C_15  and  C_20 
REMARK       I    between atoms: N_16  and  C_17 
REMARK       I    between atoms: C_17  and  N_18 
ROOT
HETATM    1  N   UNL     1      45.017 -11.894   6.980  1.00  0.00    -0.267 N 
HETATM    2  C   UNL     1      44.472 -11.901   5.711  1.00  0.00     0.238 C 
HETATM    3  O   UNL     1      44.924 -11.220   4.791  1.00  0.00    -0.272 OA
HETATM    4  H   UNL     1      44.366 -12.098   7.751  1.00  0.00     0.190 HD
ENDROOT
BRANCH   1   5
HETATM    5  N   UNL     1      46.036 -10.956   7.221  1.00  0.00    -0.262 N 
HETATM    6  C   UNL     1      45.879  -9.767   7.907  1.00  0.00     0.288 C 
HETATM    7  O   UNL     1      46.733  -8.891   7.772  1.00  0.00    -0.264 OA
HETATM    8  H   UNL     1      46.864 -11.037   6.631  1.00  0.00     0.190 HD
BRANCH   6   9
HETATM    9  C   UNL     1      44.729  -9.591   8.760  1.00  0.00     0.121 A 
HETATM   10  N   UNL     1      43.426  -9.537   8.364  1.00  0.00    -0.272 N 
HETATM   11  N   UNL     1      42.547  -9.318   9.355  1.00  0.00    -0.174 NA
HETATM   12  H   UNL     1      43.084  -9.602   7.413  1.00  0.00     0.189 HD
HETATM   13  C   UNL     1      43.302  -9.312  10.469  1.00  0.00     0.089 A 
HETATM   14  C   UNL     1      44.670  -9.499  10.135  1.00  0.00     0.071 A 
BRANCH  13  15
HETATM   15  C   UNL     1      42.726  -9.108  11.800  1.00  0.00    -0.006 A 
HETATM   16  C   UNL     1      43.321  -8.223  12.712  1.00  0.00     0.014 A 
HETATM   17  C   UNL     1      42.753  -8.010  13.972  1.00  0.00     0.001 A 
HETATM   18  C   UNL     1      41.584  -8.677  14.332  1.00  0.00     0.000 A 
HETATM   19  C   UNL     1      40.985  -9.562  13.438  1.00  0.00     0.001 A 
HETATM   20  C   UNL     1      41.556  -9.780  12.181  1.00  0.00     0.014 A 
ENDBRANCH  13  15
ENDBRANCH   6   9
ENDBRANCH   1   5
BRANCH   2  21
HETATM   21  C   UNL     1      43.256 -12.790   5.527  1.00  0.00     0.134 C 
BRANCH  21  22
HETATM   22  C   UNL     1      42.839 -13.033   4.064  1.00  0.00     0.127 C 
BRANCH  22  23
HETATM   23  N   UNL     1      41.622 -12.371   3.585  1.00  0.00    -0.339 N 
HETATM   24  C   UNL     1      41.524 -11.329   2.726  1.00  0.00     0.292 C 
HETATM   25  N   UNL     1      40.261 -10.865   2.598  1.00  0.00    -0.254 NA
HETATM   26  O   UNL     1      42.454 -10.811   2.127  1.00  0.00    -0.254 OA
HETATM   27  H   UNL     1      39.669 -10.869   3.416  1.00  0.00     0.128 HD
HETATM   28  H   UNL     1      40.212  -9.994   2.078  1.00  0.00     0.128 HD
HETATM   29  H   UNL     1      40.748 -12.776   3.890  1.00  0.00     0.164 HD
ENDBRANCH  22  23
BRANCH  22  30
HETATM   30  C   UNL     1      42.910 -14.493   3.631  1.00  0.00    -0.035 A 
HETATM   31  C   UNL     1      42.813 -15.558   4.542  1.00  0.00     0.011 A 
HETATM   32  C   UNL     1      42.919 -16.883   4.109  1.00  0.00     0.024 A 
HETATM   33  C   UNL     1      43.126 -17.159   2.760  1.00  0.00     0.034 A 
HETATM   34 CL   UNL     1      43.262 -18.790   2.231  1.00  0.00    -0.084 Cl
HETATM   35  C   UNL     1      43.225 -16.121   1.839  1.00  0.00     0.024 A 
HETATM   36  C   UNL     1      43.115 -14.797   2.272  1.00  0.00     0.011 A 
ENDBRANCH  22  30
ENDBRANCH  21  22
ENDBRANCH   2  21
TORSDOF 7
ENDMDL
MODEL 7
REMARK VINA RESULT:      -8.4      3.074      5.540
REMARK  7 active torsions:
REMARK  status: ('A' for Active; 'I' for Inactive)
REMARK    1  A    between atoms: C_4  and  C_5 
REMARK    2  A    between atoms: C_9  and  C_10 
REMARK       I    between atoms: C_10  and  N_11 
REMARK    3  A    between atoms: N_11  and  N_12 
REMARK       I    between atoms: N_12  and  C_13 
REMARK    4  A    between atoms: C_13  and  C_14 
REMARK    5  A    between atoms: C_14  and  C_15 
REMARK    6  A    between atoms: C_15  and  N_16 
REMARK    7  A    between atoms: C_15  and  C_20 
REMARK       I    between atoms: N_16  and  C_17 
REMARK       I    between atoms: C_17  and  N_18 
ROOT
HETATM    1  N   UNL     1      41.699 -10.776   5.623  1.00  0.00    -0.267 N 
HETATM    2  C   UNL     1      41.585 -10.755   4.248  1.00  0.00     0.238 C 
HETATM    3  O   UNL     1      42.563 -10.760   3.500  1.00  0.00    -0.272 OA
HETATM    4  H   UNL     1      40.933 -10.329   6.146  1.00  0.00     0.190 HD
ENDROOT
BRANCH   1   5
HETATM    5  N   UNL     1      42.998 -10.657   6.148  1.00  0.00    -0.262 N 
HETATM    6  C   UNL     1      43.756 -11.700   6.645  1.00  0.00     0.288 C 
HETATM    7  O   UNL     1      44.717 -11.438   7.367  1.00  0.00    -0.264 OA
HETATM    8  H   UNL     1      43.285  -9.716   6.416  1.00  0.00     0.190 HD
BRANCH   6   9
HETATM    9  C   UNL     1      43.403 -13.055   6.301  1.00  0.00     0.121 A 
HETATM   10  N   UNL     1      42.761 -13.954   7.099  1.00  0.00    -0.272 N 
HETATM   11  N   UNL     1      42.593 -15.170   6.553  1.00  0.00    -0.174 NA
HETATM   12  H   UNL     1      42.453 -13.799   8.052  1.00  0.00     0.189 HD
HETATM   13  C   UNL     1      43.072 -15.038   5.303  1.00  0.00     0.089 A 
HETATM   14  C   UNL     1      43.570 -13.722   5.105  1.00  0.00     0.071 A 
BRANCH  13  15
HETATM   15  C   UNL     1      43.072 -16.147   4.346  1.00  0.00    -0.006 A 
HETATM   16  C   UNL     1      43.903 -17.261   4.538  1.00  0.00     0.014 A 
HETATM   17  C   UNL     1      43.879 -18.330   3.637  1.00  0.00     0.001 A 
HETATM   18  C   UNL     1      43.023 -18.298   2.538  1.00  0.00     0.000 A 
HETATM   19  C   UNL     1      42.197 -17.195   2.333  1.00  0.00     0.001 A 
HETATM   20  C   UNL     1      42.224 -16.124   3.230  1.00  0.00     0.014 A 
ENDBRANCH  13  15
ENDBRANCH   6   9
ENDBRANCH   1   5
BRANCH   2  21
HETATM   21  C   UNL     1      40.166 -10.700   3.711  1.00  0.00     0.134 C 
BRANCH  21  22
HETATM   22  C   UNL     1      39.540 -12.068   3.379  1.00  0.00     0.127 C 
BRANCH  22  23
HETATM   23  N   UNL     1      39.720 -13.153   4.349  1.00  0.00    -0.339 N 
HETATM   24  C   UNL     1      39.429 -13.143   5.671  1.00  0.00     0.292 C 
HETATM   25  N   UNL     1      39.846 -14.257   6.313  1.00  0.00    -0.254 NA
HETATM   26  O   UNL     1      38.875 -12.235   6.272  1.00  0.00    -0.254 OA
HETATM   27  H   UNL     1      40.713 -14.680   6.016  1.00  0.00     0.128 HD
HETATM   28  H   UNL     1      39.766 -14.184   7.323  1.00  0.00     0.128 HD
HETATM   29  H   UNL     1      40.050 -14.031   3.976  1.00  0.00     0.164 HD
ENDBRANCH  22  23
BRANCH  22  30
HETATM   30  C   UNL     1      39.779 -12.531   1.945  1.00  0.00    -0.035 A 
HETATM   31  C   UNL     1      39.890 -11.633   0.870  1.00  0.00     0.011 A 
HETATM   32  C   UNL     1      40.073 -12.099  -0.435  1.00  0.00     0.024 A 
HETATM   33  C   UNL     1      40.145 -13.468  -0.681  1.00  0.00     0.034 A 
HETATM   34 CL   UNL     1      40.366 -14.039  -2.288  1.00  0.00    -0.084 Cl
HETATM   35  C   UNL     1      40.039 -14.375   0.369  1.00  0.00     0.024 A 
HETATM   36  C   UNL     1      39.860 -13.909   1.674  1.00  0.00     0.011 A 
ENDBRANCH  22  30
ENDBRANCH  21  22
ENDBRANCH   2  21
TORSDOF 7
ENDMDL
MODEL 8
REMARK VINA RESULT:      -8.4      5.165      8.973
REMARK  7 active torsions:
REMARK  status: ('A' for Active; 'I' for Inactive)
REMARK    1  A    between atoms: C_4  and  C_5 
REMARK    2  A    between atoms: C_9  and  C_10 
REMARK       I    between atoms: C_10  and  N_11 
REMARK    3  A    between atoms: N_11  and  N_12 
REMARK       I    between atoms: N_12  and  C_13 
REMARK    4  A    between atoms: C_13  and  C_14 
REMARK    5  A    between atoms: C_14  and  C_15 
REMARK    6  A    between atoms: C_15  and  N_16 
REMARK    7  A    between atoms: C_15  and  C_20 
REMARK       I    between atoms: N_16  and  C_17 
REMARK       I    between atoms: C_17  and  N_18 
ROOT
HETATM    1  N   UNL     1      45.245 -11.694   7.080  1.00  0.00    -0.267 N 
HETATM    2  C   UNL     1      44.550 -11.935   5.912  1.00  0.00     0.238 C 
HETATM    3  O   UNL     1      44.665 -11.226   4.913  1.00  0.00    -0.272 OA
HETATM    4  H   UNL     1      44.789 -12.007   7.949  1.00  0.00     0.190 HD
ENDROOT
BRANCH   1   5
HETATM    5  N   UNL     1      45.994 -10.506   7.132  1.00  0.00    -0.262 N 
HETATM    6  C   UNL     1      45.815  -9.490   8.053  1.00  0.00     0.288 C 
HETATM    7  O   UNL     1      46.287  -8.381   7.805  1.00  0.00    -0.264 OA
HETATM    8  H   UNL     1      46.513 -10.270   6.287  1.00  0.00     0.190 HD
BRANCH   6   9
HETATM    9  C   UNL     1      45.092  -9.761   9.270  1.00  0.00     0.121 A 
HETATM   10  N   UNL     1      45.375 -10.731  10.184  1.00  0.00    -0.272 N 
HETATM   11  N   UNL     1      44.513 -10.803  11.212  1.00  0.00    -0.174 NA
HETATM   12  H   UNL     1      46.129 -11.406  10.130  1.00  0.00     0.189 HD
HETATM   13  C   UNL     1      43.670  -9.775  11.007  1.00  0.00     0.089 A 
HETATM   14  C   UNL     1      44.014  -9.090   9.811  1.00  0.00     0.071 A 
BRANCH  13  15
HETATM   15  C   UNL     1      42.561  -9.482  11.918  1.00  0.00    -0.006 A 
HETATM   16  C   UNL     1      41.240  -9.796  11.565  1.00  0.00     0.014 A 
HETATM   17  C   UNL     1      40.187  -9.540  12.449  1.00  0.00     0.001 A 
HETATM   18  C   UNL     1      40.445  -8.970  13.694  1.00  0.00     0.000 A 
HETATM   19  C   UNL     1      41.751  -8.648  14.055  1.00  0.00     0.001 A 
HETATM   20  C   UNL     1      42.803  -8.898  13.170  1.00  0.00     0.014 A 
ENDBRANCH  13  15
ENDBRANCH   6   9
ENDBRANCH   1   5
BRANCH   2  21
HETATM   21  C   UNL     1      43.608 -13.125   5.946  1.00  0.00     0.134 C 
BRANCH  21  22
HETATM   22  C   UNL     1      42.800 -13.356   4.655  1.00  0.00     0.127 C 
BRANCH  22  23
HETATM   23  N   UNL     1      41.398 -12.927   4.643  1.00  0.00    -0.339 N 
HETATM   24  C   UNL     1      40.392 -13.353   5.441  1.00  0.00     0.292 C 
HETATM   25  N   UNL     1      39.185 -12.862   5.080  1.00  0.00    -0.254 NA
HETATM   26  O   UNL     1      40.507 -14.122   6.384  1.00  0.00    -0.254 OA
HETATM   27  H   UNL     1      38.998 -12.740   4.096  1.00  0.00     0.128 HD
HETATM   28  H   UNL     1      38.416 -13.298   5.579  1.00  0.00     0.128 HD
HETATM   29  H   UNL     1      41.167 -12.185   3.998  1.00  0.00     0.164 HD
ENDBRANCH  22  23
BRANCH  22  30
HETATM   30  C   UNL     1      42.985 -14.742   4.045  1.00  0.00    -0.035 A 
HETATM   31  C   UNL     1      42.900 -14.977   2.662  1.00  0.00     0.011 A 
HETATM   32  C   UNL     1      43.040 -16.268   2.146  1.00  0.00     0.024 A 
HETATM   33  C   UNL     1      43.264 -17.340   3.006  1.00  0.00     0.034 A 
HETATM   34 CL   UNL     1      43.431 -18.929   2.368  1.00  0.00    -0.084 Cl
HETATM   35  C   UNL     1      43.354 -17.131   4.378  1.00  0.00     0.024 A 
HETATM   36  C   UNL     1      43.218 -15.840   4.894  1.00  0.00     0.011 A 
ENDBRANCH  22  30
ENDBRANCH  21  22
ENDBRANCH   2  21
TORSDOF 7
ENDMDL
MODEL 9
REMARK VINA RESULT:      -8.3      4.287      5.118
REMARK  7 active torsions:
REMARK  status: ('A' for Active; 'I' for Inactive)
REMARK    1  A    between atoms: C_4  and  C_5 
REMARK    2  A    between atoms: C_9  and  C_10 
REMARK       I    between atoms: C_10  and  N_11 
REMARK    3  A    between atoms: N_11  and  N_12 
REMARK       I    between atoms: N_12  and  C_13 
REMARK    4  A    between atoms: C_13  and  C_14 
REMARK    5  A    between atoms: C_14  and  C_15 
REMARK    6  A    between atoms: C_15  and  N_16 
REMARK    7  A    between atoms: C_15  and  C_20 
REMARK       I    between atoms: N_16  and  C_17 
REMARK       I    between atoms: C_17  and  N_18 
ROOT
HETATM    1  N   UNL     1      43.175 -10.916   4.936  1.00  0.00    -0.267 N 
HETATM    2  C   UNL     1      42.277 -11.002   5.981  1.00  0.00     0.238 C 
HETATM    3  O   UNL     1      41.069 -10.816   5.834  1.00  0.00    -0.272 OA
HETATM    4  H   UNL     1      44.134 -10.636   5.188  1.00  0.00     0.190 HD
ENDROOT
BRANCH   1   5
HETATM    5  N   UNL     1      42.669 -10.460   3.707  1.00  0.00    -0.262 N 
HETATM    6  C   UNL     1      42.347 -11.264   2.630  1.00  0.00     0.288 C 
HETATM    7  O   UNL     1      42.234 -10.745   1.520  1.00  0.00    -0.264 OA
HETATM    8  H   UNL     1      42.798  -9.467   3.513  1.00  0.00     0.190 HD
BRANCH   6   9
HETATM    9  C   UNL     1      42.150 -12.677   2.839  1.00  0.00     0.121 A 
HETATM   10  N   UNL     1      40.964 -13.304   3.079  1.00  0.00    -0.272 N 
HETATM   11  N   UNL     1      41.061 -14.628   3.286  1.00  0.00    -0.174 NA
HETATM   12  H   UNL     1      40.056 -12.863   3.157  1.00  0.00     0.189 HD
HETATM   13  C   UNL     1      42.363 -14.897   3.087  1.00  0.00     0.089 A 
HETATM   14  C   UNL     1      43.071 -13.703   2.787  1.00  0.00     0.071 A 
BRANCH  13  15
HETATM   15  C   UNL     1      42.908 -16.252   3.208  1.00  0.00    -0.006 A 
HETATM   16  C   UNL     1      43.611 -16.644   4.357  1.00  0.00     0.014 A 
HETATM   17  C   UNL     1      44.104 -17.947   4.479  1.00  0.00     0.001 A 
HETATM   18  C   UNL     1      43.897 -18.871   3.457  1.00  0.00     0.000 A 
HETATM   19  C   UNL     1      43.205 -18.493   2.309  1.00  0.00     0.001 A 
HETATM   20  C   UNL     1      42.717 -17.190   2.183  1.00  0.00     0.014 A 
ENDBRANCH  13  15
ENDBRANCH   6   9
ENDBRANCH   1   5
BRANCH   2  21
HETATM   21  C   UNL     1      42.880 -11.318   7.337  1.00  0.00     0.134 C 
BRANCH  21  22
HETATM   22  C   UNL     1      43.609 -10.145   8.019  1.00  0.00     0.127 C 
BRANCH  22  23
HETATM   23  N   UNL     1      45.062 -10.052   7.843  1.00  0.00    -0.339 N 
HETATM   24  C   UNL     1      45.849  -8.960   7.982  1.00  0.00     0.292 C 
HETATM   25  N   UNL     1      47.130  -9.180   7.613  1.00  0.00    -0.254 NA
HETATM   26  O   UNL     1      45.480  -7.862   8.370  1.00  0.00    -0.254 OA
HETATM   27  H   UNL     1      47.300  -9.797   6.832  1.00  0.00     0.128 HD
HETATM   28  H   UNL     1      47.681  -8.328   7.571  1.00  0.00     0.128 HD
HETATM   29  H   UNL     1      45.541 -10.920   7.649  1.00  0.00     0.164 HD
ENDBRANCH  22  23
BRANCH  22  30
HETATM   30  C   UNL     1      43.186  -9.905   9.464  1.00  0.00    -0.035 A 
HETATM   31  C   UNL     1      42.232  -8.937   9.822  1.00  0.00     0.011 A 
HETATM   32  C   UNL     1      41.898  -8.723  11.163  1.00  0.00     0.024 A 
HETATM   33  C   UNL     1      42.516  -9.471  12.161  1.00  0.00     0.034 A 
HETATM   34 CL   UNL     1      42.107  -9.202  13.810  1.00  0.00    -0.084 Cl
HETATM   35  C   UNL     1      43.463 -10.435  11.831  1.00  0.00     0.024 A 
HETATM   36  C   UNL     1      43.794 -10.652  10.490  1.00  0.00     0.011 A 
ENDBRANCH  22  30
ENDBRANCH  21  22
ENDBRANCH   2  21
TORSDOF 7
ENDMDL
MODEL 10
REMARK VINA RESULT:      -8.3      2.865      3.742
REMARK  7 active torsions:
REMARK  status: ('A' for Active; 'I' for Inactive)
REMARK    1  A    between atoms: C_4  and  C_5 
REMARK    2  A    between atoms: C_9  and  C_10 
REMARK       I    between atoms: C_10  and  N_11 
REMARK    3  A    between atoms: N_11  and  N_12 
REMARK       I    between atoms: N_12  and  C_13 
REMARK    4  A    between atoms: C_13  and  C_14 
REMARK    5  A    between atoms: C_14  and  C_15 
REMARK    6  A    between atoms: C_15  and  N_16 
REMARK    7  A    between atoms: C_15  and  C_20 
REMARK       I    between atoms: N_16  and  C_17 
REMARK       I    between atoms: C_17  and  N_18 
ROOT
HETATM    1  N   UNL     1      39.607 -13.952   3.288  1.00  0.00    -0.267 N 
HETATM    2  C   UNL     1      39.415 -12.747   3.934  1.00  0.00     0.238 C 
HETATM    3  O   UNL     1      38.983 -11.748   3.360  1.00  0.00    -0.272 OA
HETATM    4  H   UNL     1      40.349 -14.555   3.671  1.00  0.00     0.190 HD
ENDROOT
BRANCH   1   5
HETATM    5  N   UNL     1      39.424 -13.955   1.895  1.00  0.00    -0.262 N 
HETATM    6  C   UNL     1      40.350 -14.396   0.969  1.00  0.00     0.288 C 
HETATM    7  O   UNL     1      40.221 -14.050  -0.205  1.00  0.00    -0.264 OA
HETATM    8  H   UNL     1      38.677 -13.355   1.543  1.00  0.00     0.190 HD
BRANCH   6   9
HETATM    9  C   UNL     1      41.429 -15.249   1.403  1.00  0.00     0.121 A 
HETATM   10  N   UNL     1      42.762 -15.002   1.269  1.00  0.00    -0.272 N 
HETATM   11  N   UNL     1      43.564 -15.983   1.716  1.00  0.00    -0.174 NA
HETATM   12  H   UNL     1      43.182 -14.188   0.834  1.00  0.00     0.189 HD
HETATM   13  C   UNL     1      42.716 -16.882   2.248  1.00  0.00     0.089 A 
HETATM   14  C   UNL     1      41.373 -16.446   2.086  1.00  0.00     0.071 A 
BRANCH  13  15
HETATM   15  C   UNL     1      43.183 -18.125   2.865  1.00  0.00    -0.006 A 
HETATM   16  C   UNL     1      43.168 -19.332   2.150  1.00  0.00     0.014 A 
HETATM   17  C   UNL     1      43.641 -20.511   2.734  1.00  0.00     0.001 A 
HETATM   18  C   UNL     1      44.137 -20.495   4.036  1.00  0.00     0.000 A 
HETATM   19  C   UNL     1      44.154 -19.305   4.759  1.00  0.00     0.001 A 
HETATM   20  C   UNL     1      43.676 -18.127   4.178  1.00  0.00     0.014 A 
ENDBRANCH  13  15
ENDBRANCH   6   9
ENDBRANCH   1   5
BRANCH   2  21
HETATM   21  C   UNL     1      39.795 -12.725   5.403  1.00  0.00     0.134 C 
BRANCH  21  22
HETATM   22  C   UNL     1      41.132 -12.031   5.722  1.00  0.00     0.127 C 
BRANCH  22  23
HETATM   23  N   UNL     1      42.215 -12.857   6.266  1.00  0.00    -0.339 N 
HETATM   24  C   UNL     1      42.894 -13.851   5.646  1.00  0.00     0.292 C 
HETATM   25  N   UNL     1      43.738 -14.509   6.471  1.00  0.00    -0.254 NA
HETATM   26  O   UNL     1      42.771 -14.174   4.475  1.00  0.00    -0.254 OA
HETATM   27  H   UNL     1      43.453 -14.648   7.430  1.00  0.00     0.128 HD
HETATM   28  H   UNL     1      44.130 -15.346   6.049  1.00  0.00     0.128 HD
HETATM   29  H   UNL     1      42.530 -12.619   7.195  1.00  0.00     0.164 HD
ENDBRANCH  22  23
BRANCH  22  30
HETATM   30  C   UNL     1      40.985 -10.709   6.469  1.00  0.00    -0.035 A 
HETATM   31  C   UNL     1      42.056  -9.818   6.649  1.00  0.00     0.011 A 
HETATM   32  C   UNL     1      41.889  -8.633   7.370  1.00  0.00     0.024 A 
HETATM   33  C   UNL     1      40.649  -8.325   7.924  1.00  0.00     0.034 A 
HETATM   34 CL   UNL     1      40.447  -6.869   8.816  1.00  0.00    -0.084 Cl
HETATM   35  C   UNL     1      39.573  -9.192   7.758  1.00  0.00     0.024 A 
HETATM   36  C   UNL     1      39.740 -10.375   7.033  1.00  0.00     0.011 A 
ENDBRANCH  22  30
ENDBRANCH  21  22
ENDBRANCH   2  21
TORSDOF 7
ENDMDL
