MODEL 1
REMARK VINA RESULT:      -8.8      0.000      0.000
REMARK  7 active torsions:
REMARK  status: ('A' for Active; 'I' for Inactive)
REMARK    1  A    between atoms: O_2  and  C_3 
REMARK    2  A    between atoms: C_5  and  C_6 
REMARK    3  A    between atoms: C_6  and  O_7 
REMARK    4  A    between atoms: C_6  and  C_8 
REMARK    5  A    between atoms: C_8  and  N_9 
REMARK       I    between atoms: N_9  and  C_10 
REMARK    6  A    between atoms: C_10  and  C_11 
REMARK    7  A    between atoms: C_12  and  C_13 
ROOT
HETATM    1  C   UNL     1      43.569 -11.876   5.093  1.00  0.00     0.089 C 
HETATM    2  C   UNL     1      42.409 -12.883   4.899  1.00  0.00     0.068 C 
HETATM    3  C   UNL     1      41.412 -12.804   6.061  1.00  0.00     0.013 C 
HETATM    4  C   UNL     1      40.822 -11.395   6.161  1.00  0.00     0.001 C 
HETATM    5  C   UNL     1      41.891 -10.306   6.210  1.00  0.00     0.001 C 
HETATM    6  C   UNL     1      42.945 -10.460   5.105  1.00  0.00     0.015 C 
ENDROOT
BRANCH   1   7
HETATM    7  C   UNL     1      44.464 -12.028   6.345  1.00  0.00     0.222 C 
HETATM    8  N   UNL     1      45.395 -11.048   6.570  1.00  0.00    -0.358 N 
HETATM    9  H   UNL     1      45.224 -10.158   6.097  1.00  0.00     0.162 HD
HETATM   10  O   UNL     1      44.320 -12.955   7.142  1.00  0.00    -0.273 OA
BRANCH   8  11
HETATM   11  C   UNL     1      46.158 -10.967   7.811  1.00  0.00     0.159 C 
BRANCH  11  12
HETATM   12  C   UNL     1      46.334  -9.529   8.351  1.00  0.00     0.169 C 
BRANCH  12  13
HETATM   13  C   UNL     1      45.120  -9.087   9.150  1.00  0.00    -0.025 A 
HETATM   14  C   UNL     1      44.769  -9.788  10.322  1.00  0.00     0.046 A 
HETATM   15  C   UNL     1      43.645  -9.423  11.067  1.00  0.00     0.068 A 
HETATM   16  C   UNL     1      42.873  -8.338  10.653  1.00  0.00     0.037 A 
HETATM   17  C   UNL     1      43.213  -7.625   9.504  1.00  0.00     0.003 A 
HETATM   18  C   UNL     1      44.328  -8.000   8.756  1.00  0.00     0.010 A 
BRANCH  15  19
HETATM   19  O   UNL     1      43.200 -10.039  12.206  1.00  0.00    -0.356 OA
HETATM   20  C   UNL     1      41.860  -9.776  12.598  1.00  0.00     0.210 C 
ENDBRANCH  15  19
ENDBRANCH  12  13
BRANCH  12  21
HETATM   21  O   UNL     1      46.566  -8.648   7.243  1.00  0.00    -0.389 OA
HETATM   22  H   UNL     1      47.508  -8.769   7.031  1.00  0.00     0.210 HD
ENDBRANCH  12  21
ENDBRANCH  11  12
ENDBRANCH   8  11
ENDBRANCH   1   7
BRANCH   2  23
HETATM   23  C   UNL     1      42.835 -14.286   4.575  1.00  0.00     0.110 A 
HETATM   24  N   UNL     1      42.744 -14.897   3.409  1.00  0.00    -0.233 NA
HETATM   25  C   UNL     1      43.177 -16.185   3.621  1.00  0.00     0.087 A 
HETATM   26  C   UNL     1      43.551 -16.366   4.946  1.00  0.00     0.062 A 
HETATM   27  C   UNL     1      43.267 -17.254   2.721  1.00  0.00     0.057 A 
HETATM   28  N   UNL     1      43.327 -15.146   5.531  1.00  0.00    -0.342 N 
HETATM   29  C   UNL     1      44.028 -17.577   5.449  1.00  0.00     0.034 A 
HETATM   30  H   UNL     1      43.480 -14.923   6.504  1.00  0.00     0.167 HD
HETATM   31  C   UNL     1      44.114 -18.640   4.540  1.00  0.00     0.026 A 
HETATM   32  C   UNL     1      43.739 -18.478   3.204  1.00  0.00     0.036 A 
HETATM   33 CL   UNL     1      43.857 -19.819   2.127  1.00  0.00    -0.084 Cl
ENDBRANCH   2  23
TORSDOF 7
ENDMDL
MODEL 2
REMARK VINA RESULT:      -8.7      3.765      8.594
REMARK  7 active torsions:
REMARK  status: ('A' for Active; 'I' for Inactive)
REMARK    1  A    between atoms: O_2  and  C_3 
REMARK    2  A    between atoms: C_5  and  C_6 
REMARK    3  A    between atoms: C_6  and  O_7 
REMARK    4  A    between atoms: C_6  and  C_8 
REMARK    5  A    between atoms: C_8  and  N_9 
REMARK       I    between atoms: N_9  and  C_10 
REMARK    6  A    between atoms: C_10  and  C_11 
REMARK    7  A    between atoms: C_12  and  C_13 
ROOT
HETATM    1  C   UNL     1      40.735 -14.218   3.919  1.00  0.00     0.089 C 
HETATM    2  C   UNL     1      41.923 -13.286   3.576  1.00  0.00     0.068 C 
HETATM    3  C   UNL     1      43.025 -14.052   2.833  1.00  0.00     0.013 C 
HETATM    4  C   UNL     1      42.478 -14.643   1.532  1.00  0.00     0.001 C 
HETATM    5  C   UNL     1      41.209 -15.467   1.742  1.00  0.00     0.001 C 
HETATM    6  C   UNL     1      40.155 -14.730   2.579  1.00  0.00     0.015 C 
ENDROOT
BRANCH   1   7
HETATM    7  C   UNL     1      41.004 -15.435   4.833  1.00  0.00     0.222 C 
HETATM    8  N   UNL     1      41.901 -15.265   5.855  1.00  0.00    -0.358 N 
HETATM    9  H   UNL     1      42.080 -14.297   6.130  1.00  0.00     0.162 HD
HETATM   10  O   UNL     1      40.404 -16.502   4.694  1.00  0.00    -0.273 OA
BRANCH   8  11
HETATM   11  C   UNL     1      42.091 -16.264   6.901  1.00  0.00     0.159 C 
BRANCH  11  12
HETATM   12  C   UNL     1      43.523 -16.843   6.968  1.00  0.00     0.169 C 
BRANCH  12  13
HETATM   13  C   UNL     1      43.650 -18.101   6.127  1.00  0.00    -0.025 A 
HETATM   14  C   UNL     1      43.885 -17.988   4.742  1.00  0.00     0.046 A 
HETATM   15  C   UNL     1      43.983 -19.124   3.935  1.00  0.00     0.068 A 
HETATM   16  C   UNL     1      43.864 -20.387   4.515  1.00  0.00     0.037 A 
HETATM   17  C   UNL     1      43.645 -20.518   5.886  1.00  0.00     0.003 A 
HETATM   18  C   UNL     1      43.535 -19.382   6.686  1.00  0.00     0.010 A 
BRANCH  15  19
HETATM   19  O   UNL     1      44.191 -19.135   2.582  1.00  0.00    -0.356 OA
HETATM   20  C   UNL     1      43.690 -20.254   1.862  1.00  0.00     0.210 C 
ENDBRANCH  15  19
ENDBRANCH  12  13
BRANCH  12  21
HETATM   21  O   UNL     1      43.847 -17.109   8.340  1.00  0.00    -0.389 OA
HETATM   22  H   UNL     1      44.785 -17.372   8.320  1.00  0.00     0.210 HD
ENDBRANCH  12  21
ENDBRANCH  11  12
ENDBRANCH   8  11
ENDBRANCH   1   7
BRANCH   2  23
HETATM   23  C   UNL     1      42.438 -12.466   4.724  1.00  0.00     0.110 A 
HETATM   24  N   UNL     1      43.524 -12.692   5.439  1.00  0.00    -0.233 NA
HETATM   25  C   UNL     1      43.536 -11.732   6.423  1.00  0.00     0.087 A 
HETATM   26  C   UNL     1      42.437 -10.891   6.302  1.00  0.00     0.062 A 
HETATM   27  C   UNL     1      44.457 -11.527   7.457  1.00  0.00     0.057 A 
HETATM   28  N   UNL     1      41.756 -11.376   5.215  1.00  0.00    -0.342 N 
HETATM   29  C   UNL     1      42.189  -9.824   7.168  1.00  0.00     0.034 A 
HETATM   30  H   UNL     1      40.890 -11.007   4.850  1.00  0.00     0.167 HD
HETATM   31  C   UNL     1      43.117  -9.630   8.200  1.00  0.00     0.026 A 
HETATM   32  C   UNL     1      44.226 -10.467   8.339  1.00  0.00     0.036 A 
HETATM   33 CL   UNL     1      45.335 -10.190   9.629  1.00  0.00    -0.084 Cl
ENDBRANCH   2  23
TORSDOF 7
ENDMDL
MODEL 3
REMARK VINA RESULT:      -8.6      4.575      8.289
REMARK  7 active torsions:
REMARK  status: ('A' for Active; 'I' for Inactive)
REMARK    1  A    between atoms: O_2  and  C_3 
REMARK    2  A    between atoms: C_5  and  C_6 
REMARK    3  A    between atoms: C_6  and  O_7 
REMARK    4  A    between atoms: C_6  and  C_8 
REMARK    5  A    between atoms: C_8  and  N_9 
REMARK       I    between atoms: N_9  and  C_10 
REMARK    6  A    between atoms: C_10  and  C_11 
REMARK    7  A    between atoms: C_12  and  C_13 
ROOT
HETATM    1  C   UNL     1      41.578 -13.288   5.566  1.00  0.00     0.089 C 
HETATM    2  C   UNL     1      43.026 -13.574   5.102  1.00  0.00     0.068 C 
HETATM    3  C   UNL     1      43.492 -12.529   4.081  1.00  0.00     0.013 C 
HETATM    4  C   UNL     1      43.445 -11.127   4.693  1.00  0.00     0.001 C 
HETATM    5  C   UNL     1      42.090 -10.798   5.318  1.00  0.00     0.001 C 
HETATM    6  C   UNL     1      41.585 -11.903   6.255  1.00  0.00     0.015 C 
ENDROOT
BRANCH   1   7
HETATM    7  C   UNL     1      40.455 -13.300   4.504  1.00  0.00     0.222 C 
HETATM    8  N   UNL     1      40.752 -13.853   3.286  1.00  0.00    -0.358 N 
HETATM    9  H   UNL     1      41.557 -14.483   3.270  1.00  0.00     0.162 HD
HETATM   10  O   UNL     1      39.322 -12.884   4.746  1.00  0.00    -0.273 OA
BRANCH   8  11
HETATM   11  C   UNL     1      39.732 -14.107   2.274  1.00  0.00     0.159 C 
BRANCH  11  12
HETATM   12  C   UNL     1      40.253 -14.861   1.029  1.00  0.00     0.169 C 
BRANCH  12  13
HETATM   13  C   UNL     1      40.258 -13.965  -0.197  1.00  0.00    -0.025 A 
HETATM   14  C   UNL     1      39.692 -14.432  -1.400  1.00  0.00     0.046 A 
HETATM   15  C   UNL     1      39.701 -13.644  -2.553  1.00  0.00     0.068 A 
HETATM   16  C   UNL     1      40.264 -12.369  -2.504  1.00  0.00     0.037 A 
HETATM   17  C   UNL     1      40.817 -11.884  -1.320  1.00  0.00     0.003 A 
HETATM   18  C   UNL     1      40.816 -12.679  -0.175  1.00  0.00     0.010 A 
BRANCH  15  19
HETATM   19  O   UNL     1      39.198 -13.999  -3.776  1.00  0.00    -0.356 OA
HETATM   20  C   UNL     1      38.005 -14.771  -3.782  1.00  0.00     0.210 C 
ENDBRANCH  15  19
ENDBRANCH  12  13
BRANCH  12  21
HETATM   21  O   UNL     1      39.431 -16.017   0.814  1.00  0.00    -0.389 OA
HETATM   22  H   UNL     1      39.954 -16.578   0.215  1.00  0.00     0.210 HD
ENDBRANCH  12  21
ENDBRANCH  11  12
ENDBRANCH   8  11
ENDBRANCH   1   7
BRANCH   2  23
HETATM   23  C   UNL     1      43.285 -14.988   4.666  1.00  0.00     0.110 A 
HETATM   24  N   UNL     1      43.146 -15.485   3.452  1.00  0.00    -0.233 NA
HETATM   25  C   UNL     1      43.414 -16.829   3.560  1.00  0.00     0.087 A 
HETATM   26  C   UNL     1      43.735 -17.163   4.869  1.00  0.00     0.062 A 
HETATM   27  C   UNL     1      43.393 -17.824   2.575  1.00  0.00     0.057 A 
HETATM   28  N   UNL     1      43.648 -15.977   5.553  1.00  0.00    -0.342 N 
HETATM   29  C   UNL     1      44.050 -18.461   5.275  1.00  0.00     0.034 A 
HETATM   30  H   UNL     1      43.806 -15.855   6.543  1.00  0.00     0.167 HD
HETATM   31  C   UNL     1      44.025 -19.448   4.281  1.00  0.00     0.026 A 
HETATM   32  C   UNL     1      43.702 -19.132   2.959  1.00  0.00     0.036 A 
HETATM   33 CL   UNL     1      43.680 -20.384   1.774  1.00  0.00    -0.084 Cl
ENDBRANCH   2  23
TORSDOF 7
ENDMDL
MODEL 4
REMARK VINA RESULT:      -8.4      4.977      8.562
REMARK  7 active torsions:
REMARK  status: ('A' for Active; 'I' for Inactive)
REMARK    1  A    between atoms: O_2  and  C_3 
REMARK    2  A    between atoms: C_5  and  C_6 
REMARK    3  A    between atoms: C_6  and  O_7 
REMARK    4  A    between atoms: C_6  and  C_8 
REMARK    5  A    between atoms: C_8  and  N_9 
REMARK       I    between atoms: N_9  and  C_10 
REMARK    6  A    between atoms: C_10  and  C_11 
REMARK    7  A    between atoms: C_12  and  C_13 
ROOT
HETATM    1  C   UNL     1      40.216 -13.508   4.577  1.00  0.00     0.089 C 
HETATM    2  C   UNL     1      41.666 -13.806   5.030  1.00  0.00     0.068 C 
HETATM    3  C   UNL     1      42.573 -12.591   4.800  1.00  0.00     0.013 C 
HETATM    4  C   UNL     1      42.057 -11.384   5.585  1.00  0.00     0.001 C 
HETATM    5  C   UNL     1      40.581 -11.092   5.321  1.00  0.00     0.001 C 
HETATM    6  C   UNL     1      39.697 -12.340   5.449  1.00  0.00     0.015 C 
ENDROOT
BRANCH   1   7
HETATM    7  C   UNL     1      39.973 -13.156   3.092  1.00  0.00     0.222 C 
HETATM    8  N   UNL     1      41.051 -13.222   2.249  1.00  0.00    -0.358 N 
HETATM    9  H   UNL     1      41.837 -13.787   2.579  1.00  0.00     0.162 HD
HETATM   10  O   UNL     1      38.854 -12.879   2.661  1.00  0.00    -0.273 OA
BRANCH   8  11
HETATM   11  C   UNL     1      40.917 -13.111   0.801  1.00  0.00     0.159 C 
BRANCH  11  12
HETATM   12  C   UNL     1      40.509 -14.429   0.102  1.00  0.00     0.169 C 
BRANCH  12  13
HETATM   13  C   UNL     1      39.497 -14.178  -1.002  1.00  0.00    -0.025 A 
HETATM   14  C   UNL     1      38.782 -12.963  -1.024  1.00  0.00     0.046 A 
HETATM   15  C   UNL     1      37.827 -12.709  -2.012  1.00  0.00     0.068 A 
HETATM   16  C   UNL     1      37.593 -13.667  -2.998  1.00  0.00     0.037 A 
HETATM   17  C   UNL     1      38.300 -14.869  -3.000  1.00  0.00     0.003 A 
HETATM   18  C   UNL     1      39.243 -15.123  -2.006  1.00  0.00     0.010 A 
BRANCH  15  19
HETATM   19  O   UNL     1      37.064 -11.578  -2.122  1.00  0.00    -0.356 OA
HETATM   20  C   UNL     1      37.744 -10.332  -2.043  1.00  0.00     0.210 C 
ENDBRANCH  15  19
ENDBRANCH  12  13
BRANCH  12  21
HETATM   21  O   UNL     1      39.978 -15.326   1.088  1.00  0.00    -0.389 OA
HETATM   22  H   UNL     1      39.037 -15.082   1.155  1.00  0.00     0.210 HD
ENDBRANCH  12  21
ENDBRANCH  11  12
ENDBRANCH   8  11
ENDBRANCH   1   7
BRANCH   2  23
HETATM   23  C   UNL     1      42.244 -15.089   4.504  1.00  0.00     0.110 A 
HETATM   24  N   UNL     1      41.868 -15.747   3.425  1.00  0.00    -0.233 NA
HETATM   25  C   UNL     1      42.623 -16.896   3.399  1.00  0.00     0.087 A 
HETATM   26  C   UNL     1      43.490 -16.938   4.483  1.00  0.00     0.062 A 
HETATM   27  C   UNL     1      42.612 -17.950   2.478  1.00  0.00     0.057 A 
HETATM   28  N   UNL     1      43.232 -15.779   5.169  1.00  0.00    -0.342 N 
HETATM   29  C   UNL     1      44.377 -17.991   4.716  1.00  0.00     0.034 A 
HETATM   30  H   UNL     1      43.679 -15.490   6.028  1.00  0.00     0.167 HD
HETATM   31  C   UNL     1      44.356 -19.040   3.789  1.00  0.00     0.026 A 
HETATM   32  C   UNL     1      43.488 -19.018   2.694  1.00  0.00     0.036 A 
HETATM   33 CL   UNL     1      43.497 -20.337   1.584  1.00  0.00    -0.084 Cl
ENDBRANCH   2  23
TORSDOF 7
ENDMDL
MODEL 5
REMARK VINA RESULT:      -8.3      3.991      5.899
REMARK  7 active torsions:
REMARK  status: ('A' for Active; 'I' for Inactive)
REMARK    1  A    between atoms: O_2  and  C_3 
REMARK    2  A    between atoms: C_5  and  C_6 
REMARK    3  A    between atoms: C_6  and  O_7 
REMARK    4  A    between atoms: C_6  and  C_8 
REMARK    5  A    between atoms: C_8  and  N_9 
REMARK       I    between atoms: N_9  and  C_10 
REMARK    6  A    between atoms: C_10  and  C_11 
REMARK    7  A    between atoms: C_12  and  C_13 
ROOT
HETATM    1  C   UNL     1      41.623 -15.437   3.609  1.00  0.00     0.089 C 
HETATM    2  C   UNL     1      41.645 -15.803   2.106  1.00  0.00     0.068 C 
HETATM    3  C   UNL     1      43.042 -16.265   1.673  1.00  0.00     0.013 C 
HETATM    4  C   UNL     1      43.470 -17.492   2.480  1.00  0.00     0.001 C 
HETATM    5  C   UNL     1      43.344 -17.286   3.988  1.00  0.00     0.001 C 
HETATM    6  C   UNL     1      41.977 -16.721   4.396  1.00  0.00     0.015 C 
ENDROOT
BRANCH   1   7
HETATM    7  C   UNL     1      42.544 -14.294   4.096  1.00  0.00     0.222 C 
HETATM    8  N   UNL     1      42.618 -14.083   5.447  1.00  0.00    -0.358 N 
HETATM    9  H   UNL     1      42.326 -14.867   6.035  1.00  0.00     0.162 HD
HETATM   10  O   UNL     1      43.229 -13.631   3.317  1.00  0.00    -0.273 OA
BRANCH   8  11
HETATM   11  C   UNL     1      43.595 -13.178   6.043  1.00  0.00     0.159 C 
BRANCH  11  12
HETATM   12  C   UNL     1      43.090 -11.727   6.212  1.00  0.00     0.169 C 
BRANCH  12  13
HETATM   13  C   UNL     1      44.110 -10.868   6.939  1.00  0.00    -0.025 A 
HETATM   14  C   UNL     1      43.708  -9.639   7.500  1.00  0.00     0.046 A 
HETATM   15  C   UNL     1      44.626  -8.813   8.154  1.00  0.00     0.068 A 
HETATM   16  C   UNL     1      45.954  -9.223   8.267  1.00  0.00     0.037 A 
HETATM   17  C   UNL     1      46.367 -10.442   7.730  1.00  0.00     0.003 A 
HETATM   18  C   UNL     1      45.451 -11.257   7.067  1.00  0.00     0.010 A 
BRANCH  15  19
HETATM   19  O   UNL     1      44.354  -7.596   8.719  1.00  0.00    -0.356 OA
HETATM   20  C   UNL     1      43.234  -7.527   9.592  1.00  0.00     0.210 C 
ENDBRANCH  15  19
ENDBRANCH  12  13
BRANCH  12  21
HETATM   21  O   UNL     1      41.844 -11.754   6.923  1.00  0.00    -0.389 OA
HETATM   22  H   UNL     1      42.103 -11.790   7.861  1.00  0.00     0.210 HD
ENDBRANCH  12  21
ENDBRANCH  11  12
ENDBRANCH   8  11
ENDBRANCH   1   7
BRANCH   2  23
HETATM   23  C   UNL     1      41.051 -14.769   1.192  1.00  0.00     0.110 A 
HETATM   24  N   UNL     1      39.897 -14.838   0.556  1.00  0.00    -0.233 NA
HETATM   25  C   UNL     1      39.823 -13.705  -0.220  1.00  0.00     0.087 A 
HETATM   26  C   UNL     1      40.954 -12.918  -0.048  1.00  0.00     0.062 A 
HETATM   27  C   UNL     1      38.817 -13.292  -1.101  1.00  0.00     0.057 A 
HETATM   28  N   UNL     1      41.718 -13.613   0.855  1.00  0.00    -0.342 N 
HETATM   29  C   UNL     1      41.155 -11.707  -0.713  1.00  0.00     0.034 A 
HETATM   30  H   UNL     1      42.625 -13.333   1.198  1.00  0.00     0.167 HD
HETATM   31  C   UNL     1      40.142 -11.304  -1.593  1.00  0.00     0.026 A 
HETATM   32  C   UNL     1      38.998 -12.084  -1.782  1.00  0.00     0.036 A 
HETATM   33 CL   UNL     1      37.783 -11.548  -2.880  1.00  0.00    -0.084 Cl
ENDBRANCH   2  23
TORSDOF 7
ENDMDL
MODEL 6
REMARK VINA RESULT:      -8.1      4.254      6.069
REMARK  7 active torsions:
REMARK  status: ('A' for Active; 'I' for Inactive)
REMARK    1  A    between atoms: O_2  and  C_3 
REMARK    2  A    between atoms: C_5  and  C_6 
REMARK    3  A    between atoms: C_6  and  O_7 
REMARK    4  A    between atoms: C_6  and  C_8 
REMARK    5  A    between atoms: C_8  and  N_9 
REMARK       I    between atoms: N_9  and  C_10 
REMARK    6  A    between atoms: C_10  and  C_11 
REMARK    7  A    between atoms: C_12  and  C_13 
ROOT
HETATM    1  C   UNL     1      41.168 -15.151   3.339  1.00  0.00     0.089 C 
HETATM    2  C   UNL     1      41.351 -15.658   1.888  1.00  0.00     0.068 C 
HETATM    3  C   UNL     1      42.782 -16.161   1.658  1.00  0.00     0.013 C 
HETATM    4  C   UNL     1      43.104 -17.307   2.619  1.00  0.00     0.001 C 
HETATM    5  C   UNL     1      42.815 -16.958   4.078  1.00  0.00     0.001 C 
HETATM    6  C   UNL     1      41.419 -16.354   4.278  1.00  0.00     0.015 C 
ENDROOT
BRANCH   1   7
HETATM    7  C   UNL     1      42.044 -13.969   3.814  1.00  0.00     0.222 C 
HETATM    8  N   UNL     1      41.617 -13.278   4.917  1.00  0.00    -0.358 N 
HETATM    9  H   UNL     1      40.951 -13.769   5.517  1.00  0.00     0.162 HD
HETATM   10  O   UNL     1      43.109 -13.684   3.266  1.00  0.00    -0.273 OA
BRANCH   8  11
HETATM   11  C   UNL     1      42.447 -12.279   5.582  1.00  0.00     0.159 C 
BRANCH  11  12
HETATM   12  C   UNL     1      43.259 -12.828   6.778  1.00  0.00     0.169 C 
BRANCH  12  13
HETATM   13  C   UNL     1      44.261 -11.804   7.281  1.00  0.00    -0.025 A 
HETATM   14  C   UNL     1      43.946 -11.023   8.412  1.00  0.00     0.046 A 
HETATM   15  C   UNL     1      44.834 -10.055   8.887  1.00  0.00     0.068 A 
HETATM   16  C   UNL     1      46.058  -9.875   8.241  1.00  0.00     0.037 A 
HETATM   17  C   UNL     1      46.393 -10.648   7.130  1.00  0.00     0.003 A 
HETATM   18  C   UNL     1      45.498 -11.604   6.652  1.00  0.00     0.010 A 
BRANCH  15  19
HETATM   19  O   UNL     1      44.628  -9.230   9.960  1.00  0.00    -0.356 OA
HETATM   20  C   UNL     1      43.855  -9.750  11.033  1.00  0.00     0.210 C 
ENDBRANCH  15  19
ENDBRANCH  12  13
BRANCH  12  21
HETATM   21  O   UNL     1      43.920 -14.034   6.369  1.00  0.00    -0.389 OA
HETATM   22  H   UNL     1      43.233 -14.539   5.901  1.00  0.00     0.210 HD
ENDBRANCH  12  21
ENDBRANCH  11  12
ENDBRANCH   8  11
ENDBRANCH   1   7
BRANCH   2  23
HETATM   23  C   UNL     1      40.873 -14.715   0.821  1.00  0.00     0.110 A 
HETATM   24  N   UNL     1      41.361 -13.523   0.536  1.00  0.00    -0.233 NA
HETATM   25  C   UNL     1      40.551 -13.008  -0.448  1.00  0.00     0.087 A 
HETATM   26  C   UNL     1      39.548 -13.909  -0.782  1.00  0.00     0.062 A 
HETATM   27  C   UNL     1      40.614 -11.768  -1.097  1.00  0.00     0.057 A 
HETATM   28  N   UNL     1      39.775 -14.987   0.036  1.00  0.00    -0.342 N 
HETATM   29  C   UNL     1      38.577 -13.652  -1.750  1.00  0.00     0.034 A 
HETATM   30  H   UNL     1      39.218 -15.828   0.070  1.00  0.00     0.167 HD
HETATM   31  C   UNL     1      38.649 -12.408  -2.392  1.00  0.00     0.026 A 
HETATM   32  C   UNL     1      39.649 -11.487  -2.068  1.00  0.00     0.036 A 
HETATM   33 CL   UNL     1      39.692  -9.969  -2.882  1.00  0.00    -0.084 Cl
ENDBRANCH   2  23
TORSDOF 7
ENDMDL
MODEL 7
REMARK VINA RESULT:      -7.8      2.711      4.576
REMARK  7 active torsions:
REMARK  status: ('A' for Active; 'I' for Inactive)
REMARK    1  A    between atoms: O_2  and  C_3 
REMARK    2  A    between atoms: C_5  and  C_6 
REMARK    3  A    between atoms: C_6  and  O_7 
REMARK    4  A    between atoms: C_6  and  C_8 
REMARK    5  A    between atoms: C_8  and  N_9 
REMARK       I    between atoms: N_9  and  C_10 
REMARK    6  A    between atoms: C_10  and  C_11 
REMARK    7  A    between atoms: C_12  and  C_13 
ROOT
HETATM    1  C   UNL     1      43.862 -10.911   8.717  1.00  0.00     0.089 C 
HETATM    2  C   UNL     1      44.650 -11.712   7.652  1.00  0.00     0.068 C 
HETATM    3  C   UNL     1      45.436 -10.773   6.729  1.00  0.00     0.013 C 
HETATM    4  C   UNL     1      46.427  -9.935   7.540  1.00  0.00     0.001 C 
HETATM    5  C   UNL     1      45.771  -9.214   8.716  1.00  0.00     0.001 C 
HETATM    6  C   UNL     1      44.900 -10.144   9.570  1.00  0.00     0.015 C 
ENDROOT
BRANCH   1   7
HETATM    7  C   UNL     1      42.791  -9.908   8.230  1.00  0.00     0.222 C 
HETATM    8  N   UNL     1      41.781  -9.599   9.103  1.00  0.00    -0.358 N 
HETATM    9  H   UNL     1      41.972  -9.793  10.088  1.00  0.00     0.162 HD
HETATM   10  O   UNL     1      42.861  -9.362   7.129  1.00  0.00    -0.273 OA
BRANCH   8  11
HETATM   11  C   UNL     1      40.829  -8.524   8.845  1.00  0.00     0.159 C 
BRANCH  11  12
HETATM   12  C   UNL     1      39.582  -8.553   9.759  1.00  0.00     0.169 C 
BRANCH  12  13
HETATM   13  C   UNL     1      39.966  -8.788  11.209  1.00  0.00    -0.025 A 
HETATM   14  C   UNL     1      40.561  -7.745  11.946  1.00  0.00     0.046 A 
HETATM   15  C   UNL     1      40.949  -7.934  13.275  1.00  0.00     0.068 A 
HETATM   16  C   UNL     1      40.725  -9.169  13.882  1.00  0.00     0.037 A 
HETATM   17  C   UNL     1      40.125 -10.209  13.173  1.00  0.00     0.003 A 
HETATM   18  C   UNL     1      39.751 -10.020  11.844  1.00  0.00     0.010 A 
BRANCH  15  19
HETATM   19  O   UNL     1      41.549  -7.003  14.079  1.00  0.00    -0.356 OA
HETATM   20  C   UNL     1      42.914  -7.222  14.409  1.00  0.00     0.210 C 
ENDBRANCH  15  19
ENDBRANCH  12  13
BRANCH  12  21
HETATM   21  O   UNL     1      38.694  -9.579   9.292  1.00  0.00    -0.389 OA
HETATM   22  H   UNL     1      39.172  -9.995   8.553  1.00  0.00     0.210 HD
ENDBRANCH  12  21
ENDBRANCH  11  12
ENDBRANCH   8  11
ENDBRANCH   1   7
BRANCH   2  23
HETATM   23  C   UNL     1      43.847 -12.741   6.910  1.00  0.00     0.110 A 
HETATM   24  N   UNL     1      43.589 -12.768   5.616  1.00  0.00    -0.233 NA
HETATM   25  C   UNL     1      42.753 -13.842   5.418  1.00  0.00     0.087 A 
HETATM   26  C   UNL     1      42.501 -14.495   6.618  1.00  0.00     0.062 A 
HETATM   27  C   UNL     1      42.168 -14.310   4.236  1.00  0.00     0.057 A 
HETATM   28  N   UNL     1      43.208 -13.779   7.550  1.00  0.00    -0.342 N 
HETATM   29  C   UNL     1      41.681 -15.621   6.720  1.00  0.00     0.034 A 
HETATM   30  H   UNL     1      43.237 -13.970   8.541  1.00  0.00     0.167 HD
HETATM   31  C   UNL     1      41.100 -16.079   5.531  1.00  0.00     0.026 A 
HETATM   32  C   UNL     1      41.340 -15.434   4.315  1.00  0.00     0.036 A 
HETATM   33 CL   UNL     1      40.596 -16.034   2.881  1.00  0.00    -0.084 Cl
ENDBRANCH   2  23
TORSDOF 7
ENDMDL
MODEL 8
REMARK VINA RESULT:      -7.7      3.166      6.339
REMARK  7 active torsions:
REMARK  status: ('A' for Active; 'I' for Inactive)
REMARK    1  A    between atoms: O_2  and  C_3 
REMARK    2  A    between atoms: C_5  and  C_6 
REMARK    3  A    between atoms: C_6  and  O_7 
REMARK    4  A    between atoms: C_6  and  C_8 
REMARK    5  A    between atoms: C_8  and  N_9 
REMARK       I    between atoms: N_9  and  C_10 
REMARK    6  A    between atoms: C_10  and  C_11 
REMARK    7  A    between atoms: C_12  and  C_13 
ROOT
HETATM    1  C   UNL     1      43.553 -10.593   8.275  1.00  0.00     0.089 C 
HETATM    2  C   UNL     1      44.505 -11.656   7.676  1.00  0.00     0.068 C 
HETATM    3  C   UNL     1      45.641 -10.994   6.887  1.00  0.00     0.013 C 
HETATM    4  C   UNL     1      46.454 -10.071   7.796  1.00  0.00     0.001 C 
HETATM    5  C   UNL     1      45.585  -9.070   8.555  1.00  0.00     0.001 C 
HETATM    6  C   UNL     1      44.389  -9.733   9.252  1.00  0.00     0.015 C 
ENDROOT
BRANCH   1   7
HETATM    7  C   UNL     1      42.811  -9.648   7.302  1.00  0.00     0.222 C 
HETATM    8  N   UNL     1      42.182 -10.223   6.229  1.00  0.00    -0.358 N 
HETATM    9  H   UNL     1      41.981 -11.222   6.316  1.00  0.00     0.162 HD
HETATM   10  O   UNL     1      42.733  -8.436   7.501  1.00  0.00    -0.273 OA
BRANCH   8  11
HETATM   11  C   UNL     1      41.286  -9.473   5.356  1.00  0.00     0.159 C 
BRANCH  11  12
HETATM   12  C   UNL     1      41.578  -9.652   3.848  1.00  0.00     0.169 C 
BRANCH  12  13
HETATM   13  C   UNL     1      40.463 -10.417   3.157  1.00  0.00    -0.025 A 
HETATM   14  C   UNL     1      40.742 -11.667   2.567  1.00  0.00     0.046 A 
HETATM   15  C   UNL     1      39.745 -12.386   1.902  1.00  0.00     0.068 A 
HETATM   16  C   UNL     1      38.453 -11.864   1.839  1.00  0.00     0.037 A 
HETATM   17  C   UNL     1      38.156 -10.636   2.428  1.00  0.00     0.003 A 
HETATM   18  C   UNL     1      39.156  -9.916   3.080  1.00  0.00     0.010 A 
BRANCH  15  19
HETATM   19  O   UNL     1      39.904 -13.595   1.280  1.00  0.00    -0.356 OA
HETATM   20  C   UNL     1      39.690 -13.629  -0.124  1.00  0.00     0.210 C 
ENDBRANCH  15  19
ENDBRANCH  12  13
BRANCH  12  21
HETATM   21  O   UNL     1      42.833 -10.332   3.701  1.00  0.00    -0.389 OA
HETATM   22  H   UNL     1      42.815 -11.022   4.387  1.00  0.00     0.210 HD
ENDBRANCH  12  21
ENDBRANCH  11  12
ENDBRANCH   8  11
ENDBRANCH   1   7
BRANCH   2  23
HETATM   23  C   UNL     1      43.825 -12.765   6.923  1.00  0.00     0.110 A 
HETATM   24  N   UNL     1      43.686 -12.870   5.616  1.00  0.00    -0.233 NA
HETATM   25  C   UNL     1      42.927 -13.997   5.405  1.00  0.00     0.087 A 
HETATM   26  C   UNL     1      42.602 -14.604   6.612  1.00  0.00     0.062 A 
HETATM   27  C   UNL     1      42.475 -14.555   4.203  1.00  0.00     0.057 A 
HETATM   28  N   UNL     1      43.185 -13.804   7.561  1.00  0.00    -0.342 N 
HETATM   29  C   UNL     1      41.836 -15.766   6.704  1.00  0.00     0.034 A 
HETATM   30  H   UNL     1      43.136 -13.944   8.560  1.00  0.00     0.167 HD
HETATM   31  C   UNL     1      41.387 -16.315   5.495  1.00  0.00     0.026 A 
HETATM   32  C   UNL     1      41.701 -15.718   4.272  1.00  0.00     0.036 A 
HETATM   33 CL   UNL     1      41.121 -16.429   2.813  1.00  0.00    -0.084 Cl
ENDBRANCH   2  23
TORSDOF 7
ENDMDL
MODEL 9
REMARK VINA RESULT:      -7.6      2.868      5.450
REMARK  7 active torsions:
REMARK  status: ('A' for Active; 'I' for Inactive)
REMARK    1  A    between atoms: O_2  and  C_3 
REMARK    2  A    between atoms: C_5  and  C_6 
REMARK    3  A    between atoms: C_6  and  O_7 
REMARK    4  A    between atoms: C_6  and  C_8 
REMARK    5  A    between atoms: C_8  and  N_9 
REMARK       I    between atoms: N_9  and  C_10 
REMARK    6  A    between atoms: C_10  and  C_11 
REMARK    7  A    between atoms: C_12  and  C_13 
ROOT
HETATM    1  C   UNL     1      43.922 -10.875   8.806  1.00  0.00     0.089 C 
HETATM    2  C   UNL     1      44.733 -11.634   7.728  1.00  0.00     0.068 C 
HETATM    3  C   UNL     1      45.478 -10.657   6.811  1.00  0.00     0.013 C 
HETATM    4  C   UNL     1      46.442  -9.791   7.625  1.00  0.00     0.001 C 
HETATM    5  C   UNL     1      45.766  -9.108   8.813  1.00  0.00     0.001 C 
HETATM    6  C   UNL     1      44.936 -10.079   9.662  1.00  0.00     0.015 C 
ENDROOT
BRANCH   1   7
HETATM    7  C   UNL     1      42.811  -9.908   8.336  1.00  0.00     0.222 C 
HETATM    8  N   UNL     1      41.805  -9.633   9.224  1.00  0.00    -0.358 N 
HETATM    9  H   UNL     1      42.017  -9.821  10.207  1.00  0.00     0.162 HD
HETATM   10  O   UNL     1      42.846  -9.359   7.235  1.00  0.00    -0.273 OA
BRANCH   8  11
HETATM   11  C   UNL     1      40.814  -8.590   8.982  1.00  0.00     0.159 C 
BRANCH  11  12
HETATM   12  C   UNL     1      39.405  -9.127   8.636  1.00  0.00     0.169 C 
BRANCH  12  13
HETATM   13  C   UNL     1      39.302  -9.501   7.168  1.00  0.00    -0.025 A 
HETATM   14  C   UNL     1      39.413 -10.854   6.788  1.00  0.00     0.046 A 
HETATM   15  C   UNL     1      39.347 -11.232   5.445  1.00  0.00     0.068 A 
HETATM   16  C   UNL     1      39.151 -10.254   4.470  1.00  0.00     0.037 A 
HETATM   17  C   UNL     1      39.025  -8.912   4.827  1.00  0.00     0.003 A 
HETATM   18  C   UNL     1      39.104  -8.539   6.168  1.00  0.00     0.010 A 
BRANCH  15  19
HETATM   19  O   UNL     1      39.459 -12.507   4.960  1.00  0.00    -0.356 OA
HETATM   20  C   UNL     1      39.291 -12.680   3.560  1.00  0.00     0.210 C 
ENDBRANCH  15  19
ENDBRANCH  12  13
BRANCH  12  21
HETATM   21  O   UNL     1      38.436  -8.126   8.978  1.00  0.00    -0.389 OA
HETATM   22  H   UNL     1      38.946  -7.449   9.457  1.00  0.00     0.210 HD
ENDBRANCH  12  21
ENDBRANCH  11  12
ENDBRANCH   8  11
ENDBRANCH   1   7
BRANCH   2  23
HETATM   23  C   UNL     1      43.965 -12.685   6.979  1.00  0.00     0.110 A 
HETATM   24  N   UNL     1      43.835 -12.795   5.671  1.00  0.00    -0.233 NA
HETATM   25  C   UNL     1      42.978 -13.850   5.462  1.00  0.00     0.087 A 
HETATM   26  C   UNL     1      42.581 -14.407   6.671  1.00  0.00     0.062 A 
HETATM   27  C   UNL     1      42.493 -14.380   4.260  1.00  0.00     0.057 A 
HETATM   28  N   UNL     1      43.222 -13.652   7.619  1.00  0.00    -0.342 N 
HETATM   29  C   UNL     1      41.709 -15.493   6.765  1.00  0.00     0.034 A 
HETATM   30  H   UNL     1      43.146 -13.773   8.619  1.00  0.00     0.167 HD
HETATM   31  C   UNL     1      41.229 -16.014   5.556  1.00  0.00     0.026 A 
HETATM   32  C   UNL     1      41.615 -15.466   4.331  1.00  0.00     0.036 A 
HETATM   33 CL   UNL     1      40.992 -16.140   2.872  1.00  0.00    -0.084 Cl
ENDBRANCH   2  23
TORSDOF 7
ENDMDL
MODEL 10
REMARK VINA RESULT:      -7.6      3.161      4.488
REMARK  7 active torsions:
REMARK  status: ('A' for Active; 'I' for Inactive)
REMARK    1  A    between atoms: O_2  and  C_3 
REMARK    2  A    between atoms: C_5  and  C_6 
REMARK    3  A    between atoms: C_6  and  O_7 
REMARK    4  A    between atoms: C_6  and  C_8 
REMARK    5  A    between atoms: C_8  and  N_9 
REMARK       I    between atoms: N_9  and  C_10 
REMARK    6  A    between atoms: C_10  and  C_11 
REMARK    7  A    between atoms: C_12  and  C_13 
ROOT
HETATM    1  C   UNL     1      42.188 -14.043   5.653  1.00  0.00     0.089 C 
HETATM    2  C   UNL     1      41.993 -15.131   4.570  1.00  0.00     0.068 C 
HETATM    3  C   UNL     1      43.311 -15.858   4.279  1.00  0.00     0.013 C 
HETATM    4  C   UNL     1      43.843 -16.526   5.549  1.00  0.00     0.001 C 
HETATM    5  C   UNL     1      43.935 -15.563   6.731  1.00  0.00     0.001 C 
HETATM    6  C   UNL     1      42.643 -14.762   6.945  1.00  0.00     0.015 C 
ENDROOT
BRANCH   1   7
HETATM    7  C   UNL     1      43.175 -12.890   5.360  1.00  0.00     0.222 C 
HETATM    8  N   UNL     1      43.776 -12.292   6.436  1.00  0.00    -0.358 N 
HETATM    9  H   UNL     1      43.779 -12.837   7.301  1.00  0.00     0.162 HD
HETATM   10  O   UNL     1      43.460 -12.551   4.212  1.00  0.00    -0.273 OA
BRANCH   8  11
HETATM   11  C   UNL     1      44.870 -11.338   6.289  1.00  0.00     0.159 C 
BRANCH  11  12
HETATM   12  C   UNL     1      45.693 -11.117   7.579  1.00  0.00     0.169 C 
BRANCH  12  13
HETATM   13  C   UNL     1      45.024 -10.106   8.494  1.00  0.00    -0.025 A 
HETATM   14  C   UNL     1      44.433  -8.953   7.939  1.00  0.00     0.046 A 
HETATM   15  C   UNL     1      43.830  -7.991   8.753  1.00  0.00     0.068 A 
HETATM   16  C   UNL     1      43.800  -8.187  10.134  1.00  0.00     0.037 A 
HETATM   17  C   UNL     1      44.367  -9.328  10.700  1.00  0.00     0.003 A 
HETATM   18  C   UNL     1      44.978 -10.279   9.884  1.00  0.00     0.010 A 
BRANCH  15  19
HETATM   19  O   UNL     1      43.243  -6.830   8.329  1.00  0.00    -0.356 OA
HETATM   20  C   UNL     1      42.023  -6.459   8.955  1.00  0.00     0.210 C 
ENDBRANCH  15  19
ENDBRANCH  12  13
BRANCH  12  21
HETATM   21  O   UNL     1      47.011 -10.683   7.215  1.00  0.00    -0.389 OA
HETATM   22  H   UNL     1      47.247 -11.243   6.454  1.00  0.00     0.210 HD
ENDBRANCH  12  21
ENDBRANCH  11  12
ENDBRANCH   8  11
ENDBRANCH   1   7
BRANCH   2  23
HETATM   23  C   UNL     1      41.280 -14.671   3.330  1.00  0.00     0.110 A 
HETATM   24  N   UNL     1      41.266 -15.268   2.154  1.00  0.00    -0.233 NA
HETATM   25  C   UNL     1      40.558 -14.437   1.316  1.00  0.00     0.087 A 
HETATM   26  C   UNL     1      40.120 -13.310   1.998  1.00  0.00     0.062 A 
HETATM   27  C   UNL     1      40.260 -14.586  -0.044  1.00  0.00     0.057 A 
HETATM   28  N   UNL     1      40.589 -13.482   3.276  1.00  0.00    -0.342 N 
HETATM   29  C   UNL     1      39.378 -12.291   1.399  1.00  0.00     0.034 A 
HETATM   30  H   UNL     1      40.464 -12.836   4.041  1.00  0.00     0.167 HD
HETATM   31  C   UNL     1      39.087 -12.450   0.037  1.00  0.00     0.026 A 
HETATM   32  C   UNL     1      39.522 -13.575  -0.667  1.00  0.00     0.036 A 
HETATM   33 CL   UNL     1      39.142 -13.721  -2.341  1.00  0.00    -0.084 Cl
ENDBRANCH   2  23
TORSDOF 7
ENDMDL
