MODEL 1
REMARK VINA RESULT:      -8.7      0.000      0.000
REMARK  5 active torsions:
REMARK  status: ('A' for Active; 'I' for Inactive)
REMARK    1  A    between atoms: C_5  and  N_6 
REMARK       I    between atoms: N_6  and  C_7 
REMARK       I    between atoms: C_7  and  N_8 
REMARK    2  A    between atoms: N_8  and  C_9 
REMARK    3  A    between atoms: C_11  and  C_12 
REMARK       I    between atoms: C_12  and  N_13 
REMARK    4  A    between atoms: N_13  and  C_14 
REMARK    5  A    between atoms: C_14  and  C_15 
ROOT
HETATM    1  C   UNL     1      43.743 -11.168   7.307  1.00  0.00     0.175 A 
HETATM    2  S   UNL     1      43.835 -12.797   6.847  1.00  0.00    -0.044 SA
HETATM    3  C   UNL     1      42.377 -12.614   5.940  1.00  0.00     0.100 A 
HETATM    4  C   UNL     1      41.900 -11.317   6.105  1.00  0.00     0.056 A 
HETATM    5  C   UNL     1      40.699 -10.686   5.492  1.00  0.00     0.072 C 
HETATM    6  N   UNL     1      42.694 -10.498   6.903  1.00  0.00    -0.228 NA
ENDROOT
BRANCH   1   7
HETATM    7  N   UNL     1      44.798 -10.710   8.037  1.00  0.00    -0.287 N 
HETATM    8  C   UNL     1      44.746 -10.202   9.305  1.00  0.00     0.326 C 
HETATM    9  N   UNL     1      43.521 -10.201   9.918  1.00  0.00    -0.309 N 
HETATM   10  O   UNL     1      45.794  -9.770   9.785  1.00  0.00    -0.247 OA
HETATM   11  H   UNL     1      42.788 -10.681   9.404  1.00  0.00     0.170 HD
HETATM   12  H   UNL     1      45.696 -10.645   7.583  1.00  0.00     0.172 HD
BRANCH   9  13
HETATM   13  C   UNL     1      43.155  -9.621  11.147  1.00  0.00     0.036 A 
HETATM   14  C   UNL     1      42.786 -10.351  12.277  1.00  0.00     0.030 A 
HETATM   15  C   UNL     1      42.473  -9.695  13.474  1.00  0.00     0.009 A 
HETATM   16  C   UNL     1      42.525  -8.301  13.561  1.00  0.00    -0.062 A 
HETATM   17  C   UNL     1      42.173  -7.612  14.846  1.00  0.00     0.048 C 
HETATM   18  C   UNL     1      42.878  -7.567  12.424  1.00  0.00     0.009 A 
HETATM   19  C   UNL     1      43.196  -8.224  11.230  1.00  0.00     0.030 A 
ENDBRANCH   9  13
ENDBRANCH   1   7
BRANCH   3  20
HETATM   20  C   UNL     1      41.915 -13.735   5.137  1.00  0.00     0.260 C 
HETATM   21  N   UNL     1      41.855 -14.951   5.782  1.00  0.00    -0.352 N 
HETATM   22  H   UNL     1      42.328 -15.080   6.664  1.00  0.00     0.163 HD
HETATM   23  O   UNL     1      41.579 -13.630   3.959  1.00  0.00    -0.267 OA
BRANCH  21  24
HETATM   24  C   UNL     1      41.293 -16.129   5.162  1.00  0.00     0.163 C 
BRANCH  24  25
HETATM   25  C   UNL     1      42.334 -16.955   4.453  1.00  0.00    -0.019 A 
HETATM   26  C   UNL     1      43.326 -17.674   5.139  1.00  0.00     0.042 A 
HETATM   27 CL   UNL     1      43.458 -17.617   6.863  1.00  0.00    -0.084 Cl
HETATM   28  C   UNL     1      44.247 -18.462   4.442  1.00  0.00     0.024 A 
HETATM   29  C   UNL     1      44.193 -18.536   3.050  1.00  0.00     0.002 A 
HETATM   30  C   UNL     1      43.227 -17.815   2.355  1.00  0.00     0.001 A 
HETATM   31  C   UNL     1      42.309 -17.026   3.049  1.00  0.00     0.010 A 
ENDBRANCH  24  25
ENDBRANCH  21  24
ENDBRANCH   3  20
TORSDOF 5
ENDMDL
MODEL 2
REMARK VINA RESULT:      -8.6      2.393      3.612
REMARK  5 active torsions:
REMARK  status: ('A' for Active; 'I' for Inactive)
REMARK    1  A    between atoms: C_5  and  N_6 
REMARK       I    between atoms: N_6  and  C_7 
REMARK       I    between atoms: C_7  and  N_8 
REMARK    2  A    between atoms: N_8  and  C_9 
REMARK    3  A    between atoms: C_11  and  C_12 
REMARK       I    between atoms: C_12  and  N_13 
REMARK    4  A    between atoms: N_13  and  C_14 
REMARK    5  A    between atoms: C_14  and  C_15 
ROOT
HETATM    1  C   UNL     1      41.496 -12.283   4.912  1.00  0.00     0.175 A 
HETATM    2  S   UNL     1      42.121 -13.050   3.536  1.00  0.00    -0.044 SA
HETATM    3  C   UNL     1      41.684 -14.582   4.202  1.00  0.00     0.100 A 
HETATM    4  C   UNL     1      41.133 -14.386   5.465  1.00  0.00     0.056 A 
HETATM    5  C   UNL     1      40.580 -15.402   6.403  1.00  0.00     0.072 C 
HETATM    6  N   UNL     1      41.039 -13.056   5.864  1.00  0.00    -0.228 NA
ENDROOT
BRANCH   1   7
HETATM    7  N   UNL     1      41.508 -10.921   4.874  1.00  0.00    -0.287 N 
HETATM    8  C   UNL     1      41.855 -10.084   5.898  1.00  0.00     0.326 C 
HETATM    9  N   UNL     1      42.280 -10.676   7.058  1.00  0.00    -0.309 N 
HETATM   10  O   UNL     1      41.739  -8.875   5.704  1.00  0.00    -0.247 OA
HETATM   11  H   UNL     1      42.397 -11.684   7.004  1.00  0.00     0.170 HD
HETATM   12  H   UNL     1      41.141 -10.467   4.051  1.00  0.00     0.172 HD
BRANCH   9  13
HETATM   13  C   UNL     1      42.561 -10.074   8.298  1.00  0.00     0.036 A 
HETATM   14  C   UNL     1      41.640  -9.326   9.032  1.00  0.00     0.030 A 
HETATM   15  C   UNL     1      41.991  -8.792  10.277  1.00  0.00     0.009 A 
HETATM   16  C   UNL     1      43.266  -8.999  10.812  1.00  0.00    -0.062 A 
HETATM   17  C   UNL     1      43.631  -8.409  12.141  1.00  0.00     0.048 C 
HETATM   18  C   UNL     1      44.196  -9.734  10.070  1.00  0.00     0.009 A 
HETATM   19  C   UNL     1      43.843 -10.271   8.827  1.00  0.00     0.030 A 
ENDBRANCH   9  13
ENDBRANCH   1   7
BRANCH   3  20
HETATM   20  C   UNL     1      41.876 -15.772   3.389  1.00  0.00     0.260 C 
HETATM   21  N   UNL     1      43.178 -16.205   3.257  1.00  0.00    -0.352 N 
HETATM   22  H   UNL     1      43.941 -15.596   3.507  1.00  0.00     0.163 HD
HETATM   23  O   UNL     1      40.952 -16.382   2.852  1.00  0.00    -0.267 OA
BRANCH  21  24
HETATM   24  C   UNL     1      43.517 -17.443   2.594  1.00  0.00     0.163 C 
BRANCH  24  25
HETATM   25  C   UNL     1      43.647 -18.593   3.557  1.00  0.00    -0.019 A 
HETATM   26  C   UNL     1      43.740 -19.928   3.134  1.00  0.00     0.042 A 
HETATM   27 CL   UNL     1      43.657 -20.357   1.461  1.00  0.00    -0.084 Cl
HETATM   28  C   UNL     1      43.902 -20.962   4.063  1.00  0.00     0.024 A 
HETATM   29  C   UNL     1      43.965 -20.674   5.426  1.00  0.00     0.002 A 
HETATM   30  C   UNL     1      43.855 -19.356   5.862  1.00  0.00     0.001 A 
HETATM   31  C   UNL     1      43.691 -18.325   4.936  1.00  0.00     0.010 A 
ENDBRANCH  24  25
ENDBRANCH  21  24
ENDBRANCH   3  20
TORSDOF 5
ENDMDL
MODEL 3
REMARK VINA RESULT:      -8.6      2.738     10.054
REMARK  5 active torsions:
REMARK  status: ('A' for Active; 'I' for Inactive)
REMARK    1  A    between atoms: C_5  and  N_6 
REMARK       I    between atoms: N_6  and  C_7 
REMARK       I    between atoms: C_7  and  N_8 
REMARK    2  A    between atoms: N_8  and  C_9 
REMARK    3  A    between atoms: C_11  and  C_12 
REMARK       I    between atoms: C_12  and  N_13 
REMARK    4  A    between atoms: N_13  and  C_14 
REMARK    5  A    between atoms: C_14  and  C_15 
ROOT
HETATM    1  C   UNL     1      43.727 -11.203   5.375  1.00  0.00     0.175 A 
HETATM    2  S   UNL     1      42.790 -11.021   6.776  1.00  0.00    -0.044 SA
HETATM    3  C   UNL     1      44.234 -10.841   7.707  1.00  0.00     0.100 A 
HETATM    4  C   UNL     1      45.335 -10.987   6.869  1.00  0.00     0.056 A 
HETATM    5  C   UNL     1      46.781 -10.879   7.209  1.00  0.00     0.072 C 
HETATM    6  N   UNL     1      45.026 -11.204   5.529  1.00  0.00    -0.228 NA
ENDROOT
BRANCH   1   7
HETATM    7  N   UNL     1      43.022 -11.302   4.214  1.00  0.00    -0.287 N 
HETATM    8  C   UNL     1      42.738 -12.454   3.534  1.00  0.00     0.326 C 
HETATM    9  N   UNL     1      43.161 -13.625   4.105  1.00  0.00    -0.309 N 
HETATM   10  O   UNL     1      42.146 -12.346   2.461  1.00  0.00    -0.247 OA
HETATM   11  H   UNL     1      43.553 -13.527   5.038  1.00  0.00     0.170 HD
HETATM   12  H   UNL     1      42.755 -10.449   3.747  1.00  0.00     0.172 HD
BRANCH   9  13
HETATM   13  C   UNL     1      43.129 -14.925   3.567  1.00  0.00     0.036 A 
HETATM   14  C   UNL     1      43.178 -15.209   2.203  1.00  0.00     0.030 A 
HETATM   15  C   UNL     1      43.179 -16.534   1.753  1.00  0.00     0.009 A 
HETATM   16  C   UNL     1      43.135 -17.598   2.659  1.00  0.00    -0.062 A 
HETATM   17  C   UNL     1      43.124 -19.012   2.162  1.00  0.00     0.048 C 
HETATM   18  C   UNL     1      43.069 -17.315   4.027  1.00  0.00     0.009 A 
HETATM   19  C   UNL     1      43.072 -15.990   4.475  1.00  0.00     0.030 A 
ENDBRANCH   9  13
ENDBRANCH   1   7
BRANCH   3  20
HETATM   20  C   UNL     1      44.112 -10.520   9.120  1.00  0.00     0.260 C 
HETATM   21  N   UNL     1      42.873 -10.076   9.530  1.00  0.00    -0.352 N 
HETATM   22  H   UNL     1      42.193  -9.773   8.849  1.00  0.00     0.163 HD
HETATM   23  O   UNL     1      45.035 -10.641   9.924  1.00  0.00    -0.267 OA
BRANCH  21  24
HETATM   24  C   UNL     1      42.556  -9.845  10.921  1.00  0.00     0.163 C 
BRANCH  24  25
HETATM   25  C   UNL     1      42.460  -8.379  11.250  1.00  0.00    -0.019 A 
HETATM   26  C   UNL     1      42.342  -7.905  12.567  1.00  0.00     0.042 A 
HETATM   27 CL   UNL     1      42.241  -8.985  13.913  1.00  0.00    -0.084 Cl
HETATM   28  C   UNL     1      42.298  -6.532  12.830  1.00  0.00     0.024 A 
HETATM   29  C   UNL     1      42.365  -5.616  11.780  1.00  0.00     0.002 A 
HETATM   30  C   UNL     1      42.464  -6.070  10.468  1.00  0.00     0.001 A 
HETATM   31  C   UNL     1      42.505  -7.440  10.205  1.00  0.00     0.010 A 
ENDBRANCH  24  25
ENDBRANCH  21  24
ENDBRANCH   3  20
TORSDOF 5
ENDMDL
MODEL 4
REMARK VINA RESULT:      -8.5      1.842      2.222
REMARK  5 active torsions:
REMARK  status: ('A' for Active; 'I' for Inactive)
REMARK    1  A    between atoms: C_5  and  N_6 
REMARK       I    between atoms: N_6  and  C_7 
REMARK       I    between atoms: C_7  and  N_8 
REMARK    2  A    between atoms: N_8  and  C_9 
REMARK    3  A    between atoms: C_11  and  C_12 
REMARK       I    between atoms: C_12  and  N_13 
REMARK    4  A    between atoms: N_13  and  C_14 
REMARK    5  A    between atoms: C_14  and  C_15 
ROOT
HETATM    1  C   UNL     1      41.915 -10.183   6.732  1.00  0.00     0.175 A 
HETATM    2  S   UNL     1      40.540 -11.037   6.231  1.00  0.00    -0.044 SA
HETATM    3  C   UNL     1      41.496 -12.466   6.071  1.00  0.00     0.100 A 
HETATM    4  C   UNL     1      42.821 -12.160   6.369  1.00  0.00     0.056 A 
HETATM    5  C   UNL     1      43.998 -13.072   6.403  1.00  0.00     0.072 C 
HETATM    6  N   UNL     1      43.048 -10.838   6.740  1.00  0.00    -0.228 NA
ENDROOT
BRANCH   1   7
HETATM    7  N   UNL     1      41.693  -8.892   7.108  1.00  0.00    -0.287 N 
HETATM    8  C   UNL     1      41.745  -8.399   8.382  1.00  0.00     0.326 C 
HETATM    9  N   UNL     1      42.105  -9.279   9.368  1.00  0.00    -0.309 N 
HETATM   10  O   UNL     1      41.447  -7.216   8.543  1.00  0.00    -0.247 OA
HETATM   11  H   UNL     1      42.403 -10.192   9.036  1.00  0.00     0.170 HD
HETATM   12  H   UNL     1      41.368  -8.244   6.407  1.00  0.00     0.172 HD
BRANCH   9  13
HETATM   13  C   UNL     1      42.105  -9.083  10.762  1.00  0.00     0.036 A 
HETATM   14  C   UNL     1      43.142  -8.472  11.466  1.00  0.00     0.030 A 
HETATM   15  C   UNL     1      43.045  -8.282  12.849  1.00  0.00     0.009 A 
HETATM   16  C   UNL     1      41.909  -8.696  13.551  1.00  0.00    -0.062 A 
HETATM   17  C   UNL     1      41.826  -8.498  15.035  1.00  0.00     0.048 C 
HETATM   18  C   UNL     1      40.876  -9.325  12.849  1.00  0.00     0.009 A 
HETATM   19  C   UNL     1      40.972  -9.509  11.466  1.00  0.00     0.030 A 
ENDBRANCH   9  13
ENDBRANCH   1   7
BRANCH   3  20
HETATM   20  C   UNL     1      40.828 -13.713   5.736  1.00  0.00     0.260 C 
HETATM   21  N   UNL     1      41.263 -14.337   4.586  1.00  0.00    -0.352 N 
HETATM   22  H   UNL     1      41.825 -13.831   3.918  1.00  0.00     0.163 HD
HETATM   23  O   UNL     1      39.939 -14.211   6.425  1.00  0.00    -0.267 OA
BRANCH  21  24
HETATM   24  C   UNL     1      40.793 -15.645   4.191  1.00  0.00     0.163 C 
BRANCH  24  25
HETATM   25  C   UNL     1      41.923 -16.585   3.865  1.00  0.00    -0.019 A 
HETATM   26  C   UNL     1      42.756 -17.138   4.851  1.00  0.00     0.042 A 
HETATM   27 CL   UNL     1      42.575 -16.731   6.523  1.00  0.00    -0.084 Cl
HETATM   28  C   UNL     1      43.767 -18.040   4.508  1.00  0.00     0.024 A 
HETATM   29  C   UNL     1      43.964 -18.396   3.173  1.00  0.00     0.002 A 
HETATM   30  C   UNL     1      43.159 -17.842   2.182  1.00  0.00     0.001 A 
HETATM   31  C   UNL     1      42.151 -16.939   2.524  1.00  0.00     0.010 A 
ENDBRANCH  24  25
ENDBRANCH  21  24
ENDBRANCH   3  20
TORSDOF 5
ENDMDL
MODEL 5
REMARK VINA RESULT:      -8.3      2.830      9.726
REMARK  5 active torsions:
REMARK  status: ('A' for Active; 'I' for Inactive)
REMARK    1  A    between atoms: C_5  and  N_6 
REMARK       I    between atoms: N_6  and  C_7 
REMARK       I    between atoms: C_7  and  N_8 
REMARK    2  A    between atoms: N_8  and  C_9 
REMARK    3  A    between atoms: C_11  and  C_12 
REMARK       I    between atoms: C_12  and  N_13 
REMARK    4  A    between atoms: N_13  and  C_14 
REMARK    5  A    between atoms: C_14  and  C_15 
ROOT
HETATM    1  C   UNL     1      42.820 -12.340   4.150  1.00  0.00     0.175 A 
HETATM    2  S   UNL     1      41.688 -11.101   4.389  1.00  0.00    -0.044 SA
HETATM    3  C   UNL     1      42.295 -10.867   5.989  1.00  0.00     0.100 A 
HETATM    4  C   UNL     1      43.295 -11.803   6.235  1.00  0.00     0.056 A 
HETATM    5  C   UNL     1      44.130 -11.967   7.457  1.00  0.00     0.072 C 
HETATM    6  N   UNL     1      43.581 -12.650   5.168  1.00  0.00    -0.228 NA
ENDROOT
BRANCH   1   7
HETATM    7  N   UNL     1      42.842 -12.873   2.896  1.00  0.00    -0.287 N 
HETATM    8  C   UNL     1      42.968 -14.198   2.582  1.00  0.00     0.326 C 
HETATM    9  N   UNL     1      43.027 -15.076   3.631  1.00  0.00    -0.309 N 
HETATM   10  O   UNL     1      43.038 -14.492   1.389  1.00  0.00    -0.247 OA
HETATM   11  H   UNL     1      42.863 -14.661   4.544  1.00  0.00     0.170 HD
HETATM   12  H   UNL     1      42.861 -12.240   2.112  1.00  0.00     0.172 HD
BRANCH   9  13
HETATM   13  C   UNL     1      43.292 -16.459   3.605  1.00  0.00     0.036 A 
HETATM   14  C   UNL     1      43.914 -17.156   4.640  1.00  0.00     0.030 A 
HETATM   15  C   UNL     1      44.105 -18.539   4.549  1.00  0.00     0.009 A 
HETATM   16  C   UNL     1      43.675 -19.249   3.424  1.00  0.00    -0.062 A 
HETATM   17  C   UNL     1      43.900 -20.729   3.335  1.00  0.00     0.048 C 
HETATM   18  C   UNL     1      43.067 -18.549   2.378  1.00  0.00     0.009 A 
HETATM   19  C   UNL     1      42.872 -17.167   2.472  1.00  0.00     0.030 A 
ENDBRANCH   9  13
ENDBRANCH   1   7
BRANCH   3  20
HETATM   20  C   UNL     1      41.764  -9.767   6.778  1.00  0.00     0.260 C 
HETATM   21  N   UNL     1      41.168 -10.117   7.970  1.00  0.00    -0.352 N 
HETATM   22  H   UNL     1      40.913 -11.077   8.146  1.00  0.00     0.163 HD
HETATM   23  O   UNL     1      41.840  -8.589   6.434  1.00  0.00    -0.267 OA
BRANCH  21  24
HETATM   24  C   UNL     1      40.712  -9.133   8.925  1.00  0.00     0.163 C 
BRANCH  24  25
HETATM   25  C   UNL     1      41.543  -9.125  10.180  1.00  0.00    -0.019 A 
HETATM   26  C   UNL     1      41.084  -9.658  11.396  1.00  0.00     0.042 A 
HETATM   27 CL   UNL     1      39.493 -10.318  11.552  1.00  0.00    -0.084 Cl
HETATM   28  C   UNL     1      41.906  -9.667  12.527  1.00  0.00     0.024 A 
HETATM   29  C   UNL     1      43.195  -9.138  12.460  1.00  0.00     0.002 A 
HETATM   30  C   UNL     1      43.658  -8.590  11.268  1.00  0.00     0.001 A 
HETATM   31  C   UNL     1      42.837  -8.577  10.139  1.00  0.00     0.010 A 
ENDBRANCH  24  25
ENDBRANCH  21  24
ENDBRANCH   3  20
TORSDOF 5
ENDMDL
MODEL 6
REMARK VINA RESULT:      -8.2      1.815      2.307
REMARK  5 active torsions:
REMARK  status: ('A' for Active; 'I' for Inactive)
REMARK    1  A    between atoms: C_5  and  N_6 
REMARK       I    between atoms: N_6  and  C_7 
REMARK       I    between atoms: C_7  and  N_8 
REMARK    2  A    between atoms: N_8  and  C_9 
REMARK    3  A    between atoms: C_11  and  C_12 
REMARK       I    between atoms: C_12  and  N_13 
REMARK    4  A    between atoms: N_13  and  C_14 
REMARK    5  A    between atoms: C_14  and  C_15 
ROOT
HETATM    1  C   UNL     1      43.533 -10.544   7.616  1.00  0.00     0.175 A 
HETATM    2  S   UNL     1      43.154 -11.865   6.624  1.00  0.00    -0.044 SA
HETATM    3  C   UNL     1      42.112 -10.852   5.689  1.00  0.00     0.100 A 
HETATM    4  C   UNL     1      42.097  -9.578   6.249  1.00  0.00     0.056 A 
HETATM    5  C   UNL     1      41.377  -8.365   5.774  1.00  0.00     0.072 C 
HETATM    6  N   UNL     1      42.915  -9.419   7.365  1.00  0.00    -0.228 NA
ENDROOT
BRANCH   1   7
HETATM    7  N   UNL     1      44.476 -10.785   8.570  1.00  0.00    -0.287 N 
HETATM    8  C   UNL     1      44.378 -10.486   9.900  1.00  0.00     0.326 C 
HETATM    9  N   UNL     1      43.197  -9.935  10.321  1.00  0.00    -0.309 N 
HETATM   10  O   UNL     1      45.361 -10.714  10.605  1.00  0.00    -0.247 OA
HETATM   11  H   UNL     1      42.466  -9.904   9.616  1.00  0.00     0.170 HD
HETATM   12  H   UNL     1      45.374 -11.133   8.270  1.00  0.00     0.172 HD
BRANCH   9  13
HETATM   13  C   UNL     1      42.876  -9.408  11.587  1.00  0.00     0.036 A 
HETATM   14  C   UNL     1      43.539  -8.333  12.177  1.00  0.00     0.030 A 
HETATM   15  C   UNL     1      43.131  -7.845  13.424  1.00  0.00     0.009 A 
HETATM   16  C   UNL     1      42.053  -8.423  14.100  1.00  0.00    -0.062 A 
HETATM   17  C   UNL     1      41.636  -7.900  15.442  1.00  0.00     0.048 C 
HETATM   18  C   UNL     1      41.398  -9.513  13.518  1.00  0.00     0.009 A 
HETATM   19  C   UNL     1      41.804  -9.996  12.269  1.00  0.00     0.030 A 
ENDBRANCH   9  13
ENDBRANCH   1   7
BRANCH   3  20
HETATM   20  C   UNL     1      41.492 -11.408   4.498  1.00  0.00     0.260 C 
HETATM   21  N   UNL     1      42.294 -12.222   3.727  1.00  0.00    -0.352 N 
HETATM   22  H   UNL     1      43.294 -12.223   3.863  1.00  0.00     0.163 HD
HETATM   23  O   UNL     1      40.323 -11.194   4.180  1.00  0.00    -0.267 OA
BRANCH  21  24
HETATM   24  C   UNL     1      41.788 -12.954   2.589  1.00  0.00     0.163 C 
BRANCH  24  25
HETATM   25  C   UNL     1      42.182 -14.406   2.619  1.00  0.00    -0.019 A 
HETATM   26  C   UNL     1      41.655 -15.315   3.551  1.00  0.00     0.042 A 
HETATM   27 CL   UNL     1      40.544 -14.813   4.778  1.00  0.00    -0.084 Cl
HETATM   28  C   UNL     1      42.018 -16.665   3.516  1.00  0.00     0.024 A 
HETATM   29  C   UNL     1      42.918 -17.123   2.554  1.00  0.00     0.002 A 
HETATM   30  C   UNL     1      43.464 -16.231   1.635  1.00  0.00     0.001 A 
HETATM   31  C   UNL     1      43.104 -14.883   1.671  1.00  0.00     0.010 A 
ENDBRANCH  24  25
ENDBRANCH  21  24
ENDBRANCH   3  20
TORSDOF 5
ENDMDL
MODEL 7
REMARK VINA RESULT:      -8.2      2.620      3.495
REMARK  5 active torsions:
REMARK  status: ('A' for Active; 'I' for Inactive)
REMARK    1  A    between atoms: C_5  and  N_6 
REMARK       I    between atoms: N_6  and  C_7 
REMARK       I    between atoms: C_7  and  N_8 
REMARK    2  A    between atoms: N_8  and  C_9 
REMARK    3  A    between atoms: C_11  and  C_12 
REMARK       I    between atoms: C_12  and  N_13 
REMARK    4  A    between atoms: N_13  and  C_14 
REMARK    5  A    between atoms: C_14  and  C_15 
ROOT
HETATM    1  C   UNL     1      44.184 -11.473   6.982  1.00  0.00     0.175 A 
HETATM    2  S   UNL     1      42.756 -10.933   6.246  1.00  0.00    -0.044 SA
HETATM    3  C   UNL     1      42.213 -12.568   6.122  1.00  0.00     0.100 A 
HETATM    4  C   UNL     1      43.204 -13.413   6.613  1.00  0.00     0.056 A 
HETATM    5  C   UNL     1      43.177 -14.896   6.742  1.00  0.00     0.072 C 
HETATM    6  N   UNL     1      44.338 -12.767   7.098  1.00  0.00    -0.228 NA
ENDROOT
BRANCH   1   7
HETATM    7  N   UNL     1      45.026 -10.490   7.410  1.00  0.00    -0.287 N 
HETATM    8  C   UNL     1      44.949  -9.818   8.598  1.00  0.00     0.326 C 
HETATM    9  N   UNL     1      43.961 -10.208   9.462  1.00  0.00    -0.309 N 
HETATM   10  O   UNL     1      45.757  -8.910   8.787  1.00  0.00    -0.247 OA
HETATM   11  H   UNL     1      43.446 -11.036   9.175  1.00  0.00     0.170 HD
HETATM   12  H   UNL     1      45.721 -10.147   6.764  1.00  0.00     0.172 HD
BRANCH   9  13
HETATM   13  C   UNL     1      43.569  -9.610  10.675  1.00  0.00     0.036 A 
HETATM   14  C   UNL     1      43.380  -8.239  10.845  1.00  0.00     0.030 A 
HETATM   15  C   UNL     1      42.952  -7.729  12.076  1.00  0.00     0.009 A 
HETATM   16  C   UNL     1      42.702  -8.581  13.156  1.00  0.00    -0.062 A 
HETATM   17  C   UNL     1      42.257  -8.019  14.473  1.00  0.00     0.048 C 
HETATM   18  C   UNL     1      42.907  -9.955  12.992  1.00  0.00     0.009 A 
HETATM   19  C   UNL     1      43.331 -10.463  11.759  1.00  0.00     0.030 A 
ENDBRANCH   9  13
ENDBRANCH   1   7
BRANCH   3  20
HETATM   20  C   UNL     1      40.871 -12.816   5.619  1.00  0.00     0.260 C 
HETATM   21  N   UNL     1      40.665 -12.521   4.288  1.00  0.00    -0.352 N 
HETATM   22  H   UNL     1      41.331 -11.954   3.787  1.00  0.00     0.163 HD
HETATM   23  O   UNL     1      39.963 -13.273   6.311  1.00  0.00    -0.267 OA
BRANCH  21  24
HETATM   24  C   UNL     1      39.429 -12.836   3.609  1.00  0.00     0.163 C 
BRANCH  24  25
HETATM   25  C   UNL     1      39.659 -13.463   2.260  1.00  0.00    -0.019 A 
HETATM   26  C   UNL     1      40.026 -14.809   2.103  1.00  0.00     0.042 A 
HETATM   27 CL   UNL     1      40.294 -15.840   3.466  1.00  0.00    -0.084 Cl
HETATM   28  C   UNL     1      40.189 -15.361   0.829  1.00  0.00     0.024 A 
HETATM   29  C   UNL     1      39.995 -14.572  -0.305  1.00  0.00     0.002 A 
HETATM   30  C   UNL     1      39.650 -13.231  -0.166  1.00  0.00     0.001 A 
HETATM   31  C   UNL     1      39.489 -12.679   1.106  1.00  0.00     0.010 A 
ENDBRANCH  24  25
ENDBRANCH  21  24
ENDBRANCH   3  20
TORSDOF 5
ENDMDL
MODEL 8
REMARK VINA RESULT:      -8.0      3.544      9.582
REMARK  5 active torsions:
REMARK  status: ('A' for Active; 'I' for Inactive)
REMARK    1  A    between atoms: C_5  and  N_6 
REMARK       I    between atoms: N_6  and  C_7 
REMARK       I    between atoms: C_7  and  N_8 
REMARK    2  A    between atoms: N_8  and  C_9 
REMARK    3  A    between atoms: C_11  and  C_12 
REMARK       I    between atoms: C_12  and  N_13 
REMARK    4  A    between atoms: N_13  and  C_14 
REMARK    5  A    between atoms: C_14  and  C_15 
ROOT
HETATM    1  C   UNL     1      41.822 -10.221   5.086  1.00  0.00     0.175 A 
HETATM    2  S   UNL     1      41.878 -10.180   6.780  1.00  0.00    -0.044 SA
HETATM    3  C   UNL     1      40.157 -10.032   6.824  1.00  0.00     0.100 A 
HETATM    4  C   UNL     1      39.674  -9.973   5.520  1.00  0.00     0.056 A 
HETATM    5  C   UNL     1      38.262  -9.881   5.057  1.00  0.00     0.072 C 
HETATM    6  N   UNL     1      40.647 -10.075   4.529  1.00  0.00    -0.228 NA
ENDROOT
BRANCH   1   7
HETATM    7  N   UNL     1      43.019 -10.433   4.470  1.00  0.00    -0.287 N 
HETATM    8  C   UNL     1      43.426 -11.591   3.868  1.00  0.00     0.326 C 
HETATM    9  N   UNL     1      42.522 -12.620   3.838  1.00  0.00    -0.309 N 
HETATM   10  O   UNL     1      44.572 -11.624   3.422  1.00  0.00    -0.247 OA
HETATM   11  H   UNL     1      41.594 -12.381   4.176  1.00  0.00     0.170 HD
HETATM   12  H   UNL     1      43.719  -9.711   4.535  1.00  0.00     0.172 HD
BRANCH   9  13
HETATM   13  C   UNL     1      42.717 -13.948   3.414  1.00  0.00     0.036 A 
HETATM   14  C   UNL     1      42.938 -14.321   2.089  1.00  0.00     0.030 A 
HETATM   15  C   UNL     1      43.161 -15.663   1.757  1.00  0.00     0.009 A 
HETATM   16  C   UNL     1      43.171 -16.652   2.745  1.00  0.00    -0.062 A 
HETATM   17  C   UNL     1      43.397 -18.087   2.372  1.00  0.00     0.048 C 
HETATM   18  C   UNL     1      42.933 -16.282   4.072  1.00  0.00     0.009 A 
HETATM   19  C   UNL     1      42.715 -14.940   4.402  1.00  0.00     0.030 A 
ENDBRANCH   9  13
ENDBRANCH   1   7
BRANCH   3  20
HETATM   20  C   UNL     1      39.492 -10.053   8.116  1.00  0.00     0.260 C 
HETATM   21  N   UNL     1      39.917  -9.107   9.025  1.00  0.00    -0.352 N 
HETATM   22  H   UNL     1      40.783  -8.613   8.873  1.00  0.00     0.163 HD
HETATM   23  O   UNL     1      38.596 -10.843   8.404  1.00  0.00    -0.267 OA
BRANCH  21  24
HETATM   24  C   UNL     1      39.266  -8.913  10.300  1.00  0.00     0.163 C 
BRANCH  24  25
HETATM   25  C   UNL     1      40.229  -9.002  11.454  1.00  0.00    -0.019 A 
HETATM   26  C   UNL     1      39.946  -8.464  12.720  1.00  0.00     0.042 A 
HETATM   27 CL   UNL     1      38.479  -7.603  13.032  1.00  0.00    -0.084 Cl
HETATM   28  C   UNL     1      40.853  -8.607  13.775  1.00  0.00     0.024 A 
HETATM   29  C   UNL     1      42.056  -9.284  13.577  1.00  0.00     0.002 A 
HETATM   30  C   UNL     1      42.359  -9.807  12.323  1.00  0.00     0.001 A 
HETATM   31  C   UNL     1      41.456  -9.662  11.269  1.00  0.00     0.010 A 
ENDBRANCH  24  25
ENDBRANCH  21  24
ENDBRANCH   3  20
TORSDOF 5
ENDMDL
MODEL 9
REMARK VINA RESULT:      -7.8      6.497      9.552
REMARK  5 active torsions:
REMARK  status: ('A' for Active; 'I' for Inactive)
REMARK    1  A    between atoms: C_5  and  N_6 
REMARK       I    between atoms: N_6  and  C_7 
REMARK       I    between atoms: C_7  and  N_8 
REMARK    2  A    between atoms: N_8  and  C_9 
REMARK    3  A    between atoms: C_11  and  C_12 
REMARK       I    between atoms: C_12  and  N_13 
REMARK    4  A    between atoms: N_13  and  C_14 
REMARK    5  A    between atoms: C_14  and  C_15 
ROOT
HETATM    1  C   UNL     1      38.998 -11.716   1.149  1.00  0.00     0.175 A 
HETATM    2  S   UNL     1      39.401 -11.769   2.795  1.00  0.00    -0.044 SA
HETATM    3  C   UNL     1      40.185 -13.287   2.544  1.00  0.00     0.100 A 
HETATM    4  C   UNL     1      40.029 -13.664   1.214  1.00  0.00     0.056 A 
HETATM    5  C   UNL     1      40.558 -14.873   0.524  1.00  0.00     0.072 C 
HETATM    6  N   UNL     1      39.335 -12.751   0.424  1.00  0.00    -0.228 NA
ENDROOT
BRANCH   1   7
HETATM    7  N   UNL     1      38.380 -10.573   0.739  1.00  0.00    -0.287 N 
HETATM    8  C   UNL     1      38.813  -9.726  -0.243  1.00  0.00     0.326 C 
HETATM    9  N   UNL     1      39.951 -10.091  -0.912  1.00  0.00    -0.309 N 
HETATM   10  O   UNL     1      38.161  -8.700  -0.433  1.00  0.00    -0.247 OA
HETATM   11  H   UNL     1      40.303 -11.016  -0.681  1.00  0.00     0.170 HD
HETATM   12  H   UNL     1      37.576 -10.256   1.258  1.00  0.00     0.172 HD
BRANCH   9  13
HETATM   13  C   UNL     1      40.688  -9.353  -1.858  1.00  0.00     0.036 A 
HETATM   14  C   UNL     1      40.401  -9.322  -3.222  1.00  0.00     0.030 A 
HETATM   15  C   UNL     1      41.162  -8.531  -4.090  1.00  0.00     0.009 A 
HETATM   16  C   UNL     1      42.221  -7.754  -3.608  1.00  0.00    -0.062 A 
HETATM   17  C   UNL     1      43.036  -6.922  -4.552  1.00  0.00     0.048 C 
HETATM   18  C   UNL     1      42.521  -7.797  -2.243  1.00  0.00     0.009 A 
HETATM   19  C   UNL     1      41.756  -8.585  -1.376  1.00  0.00     0.030 A 
ENDBRANCH   9  13
ENDBRANCH   1   7
BRANCH   3  20
HETATM   20  C   UNL     1      40.902 -13.889   3.657  1.00  0.00     0.260 C 
HETATM   21  N   UNL     1      40.531 -15.176   3.984  1.00  0.00    -0.352 N 
HETATM   22  H   UNL     1      39.668 -15.559   3.630  1.00  0.00     0.163 HD
HETATM   23  O   UNL     1      41.797 -13.316   4.275  1.00  0.00    -0.267 OA
BRANCH  21  24
HETATM   24  C   UNL     1      41.236 -15.956   4.975  1.00  0.00     0.163 C 
BRANCH  24  25
HETATM   25  C   UNL     1      42.251 -16.881   4.359  1.00  0.00    -0.019 A 
HETATM   26  C   UNL     1      43.251 -17.519   5.113  1.00  0.00     0.042 A 
HETATM   27 CL   UNL     1      43.422 -17.240   6.811  1.00  0.00    -0.084 Cl
HETATM   28  C   UNL     1      44.147 -18.404   4.506  1.00  0.00     0.024 A 
HETATM   29  C   UNL     1      44.061 -18.658   3.137  1.00  0.00     0.002 A 
HETATM   30  C   UNL     1      43.088 -18.020   2.373  1.00  0.00     0.001 A 
HETATM   31  C   UNL     1      42.194 -17.134   2.978  1.00  0.00     0.010 A 
ENDBRANCH  24  25
ENDBRANCH  21  24
ENDBRANCH   3  20
TORSDOF 5
ENDMDL
MODEL 10
REMARK VINA RESULT:      -7.6      2.729      3.320
REMARK  5 active torsions:
REMARK  status: ('A' for Active; 'I' for Inactive)
REMARK    1  A    between atoms: C_5  and  N_6 
REMARK       I    between atoms: N_6  and  C_7 
REMARK       I    between atoms: C_7  and  N_8 
REMARK    2  A    between atoms: N_8  and  C_9 
REMARK    3  A    between atoms: C_11  and  C_12 
REMARK       I    between atoms: C_12  and  N_13 
REMARK    4  A    between atoms: N_13  and  C_14 
REMARK    5  A    between atoms: C_14  and  C_15 
ROOT
HETATM    1  C   UNL     1      43.202 -10.328   8.017  1.00  0.00     0.175 A 
HETATM    2  S   UNL     1      42.884 -11.409   6.751  1.00  0.00    -0.044 SA
HETATM    3  C   UNL     1      42.089 -10.145   5.884  1.00  0.00     0.100 A 
HETATM    4  C   UNL     1      42.084  -8.993   6.664  1.00  0.00     0.056 A 
HETATM    5  C   UNL     1      41.547  -7.646   6.327  1.00  0.00     0.072 C 
HETATM    6  N   UNL     1      42.722  -9.117   7.896  1.00  0.00    -0.228 NA
ENDROOT
BRANCH   1   7
HETATM    7  N   UNL     1      43.958 -10.829   9.034  1.00  0.00    -0.287 N 
HETATM    8  C   UNL     1      43.791 -10.580  10.368  1.00  0.00     0.326 C 
HETATM    9  N   UNL     1      42.729  -9.789  10.717  1.00  0.00    -0.309 N 
HETATM   10  O   UNL     1      44.615 -11.066  11.141  1.00  0.00    -0.247 OA
HETATM   11  H   UNL     1      42.104  -9.552   9.951  1.00  0.00     0.170 HD
HETATM   12  H   UNL     1      44.780 -11.363   8.794  1.00  0.00     0.172 HD
BRANCH   9  13
HETATM   13  C   UNL     1      42.405  -9.263  11.982  1.00  0.00     0.036 A 
HETATM   14  C   UNL     1      41.370  -9.741  12.785  1.00  0.00     0.030 A 
HETATM   15  C   UNL     1      41.139  -9.185  14.049  1.00  0.00     0.009 A 
HETATM   16  C   UNL     1      41.939  -8.146  14.532  1.00  0.00    -0.062 A 
HETATM   17  C   UNL     1      41.670  -7.551  15.882  1.00  0.00     0.048 C 
HETATM   18  C   UNL     1      42.966  -7.654  13.720  1.00  0.00     0.009 A 
HETATM   19  C   UNL     1      43.199  -8.214  12.459  1.00  0.00     0.030 A 
ENDBRANCH   9  13
ENDBRANCH   1   7
BRANCH   3  20
HETATM   20  C   UNL     1      41.625 -10.417   4.533  1.00  0.00     0.260 C 
HETATM   21  N   UNL     1      41.080 -11.666   4.325  1.00  0.00    -0.352 N 
HETATM   22  H   UNL     1      41.223 -12.399   5.003  1.00  0.00     0.163 HD
HETATM   23  O   UNL     1      41.690  -9.598   3.617  1.00  0.00    -0.267 OA
BRANCH  21  24
HETATM   24  C   UNL     1      40.456 -12.039   3.077  1.00  0.00     0.163 C 
BRANCH  24  25
HETATM   25  C   UNL     1      40.637 -13.500   2.760  1.00  0.00    -0.019 A 
HETATM   26  C   UNL     1      40.880 -13.968   1.459  1.00  0.00     0.042 A 
HETATM   27 CL   UNL     1      40.933 -12.894   0.104  1.00  0.00    -0.084 Cl
HETATM   28  C   UNL     1      41.083 -15.330   1.216  1.00  0.00     0.024 A 
HETATM   29  C   UNL     1      41.041 -16.243   2.271  1.00  0.00     0.002 A 
HETATM   30  C   UNL     1      40.783 -15.796   3.564  1.00  0.00     0.001 A 
HETATM   31  C   UNL     1      40.577 -14.437   3.806  1.00  0.00     0.010 A 
ENDBRANCH  24  25
ENDBRANCH  21  24
ENDBRANCH   3  20
TORSDOF 5
ENDMDL
