MODEL 1
REMARK VINA RESULT:      -9.2      0.000      0.000
REMARK  7 active torsions:
REMARK  status: ('A' for Active; 'I' for Inactive)
REMARK    1  A    between atoms: N_7  and  C_8 
REMARK    2  A    between atoms: C_8  and  C_9 
REMARK       I    between atoms: C_9  and  N_10 
REMARK    3  A    between atoms: N_10  and  C_11 
REMARK    4  A    between atoms: C_11  and  C_12 
REMARK    5  A    between atoms: C_12  and  C_13 
REMARK    6  A    between atoms: C_12  and  C_23 
REMARK    7  A    between atoms: C_26  and  O_27 
ROOT
HETATM    1  C   UNL     1      41.580 -12.185   5.993  1.00  0.00     0.136 C 
ENDROOT
BRANCH   1   2
HETATM    2  N   UNL     1      40.760 -11.394   6.906  1.00  0.00    -0.359 N 
HETATM    3  C   UNL     1      40.876 -10.013   6.814  1.00  0.00     0.236 C 
HETATM    4  O   UNL     1      41.787  -9.477   6.182  1.00  0.00    -0.272 OA
HETATM    5  H   UNL     1      39.853 -11.768   7.182  1.00  0.00     0.162 HD
BRANCH   3   6
HETATM    6  C   UNL     1      39.697  -9.198   7.326  1.00  0.00     0.239 C 
BRANCH   6   7
HETATM    7  N   UNL     1      39.583  -9.107   8.761  1.00  0.00    -0.259 N 
HETATM    8  C   UNL     1      38.960 -10.041   9.531  1.00  0.00     0.326 C 
HETATM    9  N   UNL     1      39.189  -9.738  10.854  1.00  0.00    -0.324 N 
HETATM   10  O   UNL     1      38.333 -11.017   9.161  1.00  0.00    -0.247 OA
HETATM   11  C   UNL     1      40.193  -8.706  11.007  1.00  0.00     0.119 C 
HETATM   12  H   UNL     1      38.907 -10.398  11.569  1.00  0.00     0.165 HD
HETATM   13  C   UNL     1      39.809  -7.622  12.030  1.00  0.00     0.019 C 
HETATM   14  C   UNL     1      40.255  -8.212   9.544  1.00  0.00     0.257 C 
HETATM   15  C   UNL     1      41.564  -9.335  11.330  1.00  0.00     0.041 C 
HETATM   16  C   UNL     1      38.413  -7.036  11.797  1.00  0.00     0.013 C 
HETATM   17  C   UNL     1      39.909  -8.161  13.470  1.00  0.00     0.007 C 
HETATM   18  C   UNL     1      41.278  -8.769  13.766  1.00  0.00     0.001 C 
HETATM   19  C   UNL     1      41.645  -9.854  12.762  1.00  0.00     0.003 C 
HETATM   20  O   UNL     1      40.882  -7.245   9.131  1.00  0.00    -0.270 OA
ENDBRANCH   6   7
ENDBRANCH   3   6
ENDBRANCH   1   2
BRANCH   1  21
HETATM   21  C   UNL     1      42.775 -12.944   6.610  1.00  0.00     0.071 C 
BRANCH  21  22
HETATM   22  C   UNL     1      44.039 -12.099   6.581  1.00  0.00    -0.020 A 
HETATM   23  C   UNL     1      44.507 -11.206   7.606  1.00  0.00    -0.001 A 
HETATM   24  C   UNL     1      45.699 -10.632   7.156  1.00  0.00     0.042 A 
HETATM   25  C   UNL     1      44.033 -10.832   8.882  1.00  0.00     0.014 A 
HETATM   26  C   UNL     1      46.435  -9.710   7.910  1.00  0.00     0.030 A 
HETATM   27  N   UNL     1      45.951 -11.146   5.909  1.00  0.00    -0.365 N 
HETATM   28  C   UNL     1      45.943  -9.361   9.169  1.00  0.00     0.002 A 
HETATM   29  C   UNL     1      44.759  -9.913   9.651  1.00  0.00     0.001 A 
HETATM   30  H   UNL     1      46.752 -10.906   5.341  1.00  0.00     0.165 HD
HETATM   31  C   UNL     1      44.966 -12.024   5.552  1.00  0.00     0.097 A 
ENDBRANCH  21  22
BRANCH  21  32
HETATM   32  C   UNL     1      43.187 -14.250   5.940  1.00  0.00    -0.048 A 
HETATM   33  C   UNL     1      42.757 -14.509   4.627  1.00  0.00     0.011 A 
HETATM   34  C   UNL     1      43.074 -15.711   3.991  1.00  0.00     0.037 A 
HETATM   35  C   UNL     1      43.828 -16.685   4.646  1.00  0.00     0.068 A 
HETATM   36  C   UNL     1      44.265 -16.440   5.947  1.00  0.00     0.037 A 
HETATM   37  C   UNL     1      43.945 -15.236   6.589  1.00  0.00     0.011 A 
BRANCH  35  38
HETATM   38  O   UNL     1      44.058 -17.817   3.915  1.00  0.00    -0.356 OA
HETATM   39  C   UNL     1      43.287 -17.987   2.734  1.00  0.00     0.210 C 
ENDBRANCH  35  38
ENDBRANCH  21  32
ENDBRANCH   1  21
TORSDOF 7
ENDMDL
MODEL 2
REMARK VINA RESULT:      -9.1      4.902      9.479
REMARK  7 active torsions:
REMARK  status: ('A' for Active; 'I' for Inactive)
REMARK    1  A    between atoms: N_7  and  C_8 
REMARK    2  A    between atoms: C_8  and  C_9 
REMARK       I    between atoms: C_9  and  N_10 
REMARK    3  A    between atoms: N_10  and  C_11 
REMARK    4  A    between atoms: C_11  and  C_12 
REMARK    5  A    between atoms: C_12  and  C_13 
REMARK    6  A    between atoms: C_12  and  C_23 
REMARK    7  A    between atoms: C_26  and  O_27 
ROOT
HETATM    1  C   UNL     1      41.120 -10.575   4.017  1.00  0.00     0.136 C 
ENDROOT
BRANCH   1   2
HETATM    2  N   UNL     1      40.268 -10.642   2.833  1.00  0.00    -0.359 N 
HETATM    3  C   UNL     1      40.010  -9.445   2.179  1.00  0.00     0.236 C 
HETATM    4  O   UNL     1      40.269  -8.355   2.689  1.00  0.00    -0.272 OA
HETATM    5  H   UNL     1      40.305 -11.486   2.263  1.00  0.00     0.162 HD
BRANCH   3   6
HETATM    6  C   UNL     1      39.613  -9.545   0.713  1.00  0.00     0.239 C 
BRANCH   6   7
HETATM    7  N   UNL     1      39.282 -10.870   0.249  1.00  0.00    -0.259 N 
HETATM    8  C   UNL     1      38.058 -11.444   0.413  1.00  0.00     0.326 C 
HETATM    9  N   UNL     1      38.032 -12.624  -0.296  1.00  0.00    -0.324 N 
HETATM   10  O   UNL     1      37.105 -11.009   1.035  1.00  0.00    -0.247 OA
HETATM   11  C   UNL     1      39.181 -12.757  -1.167  1.00  0.00     0.119 C 
HETATM   12  H   UNL     1      37.157 -13.124  -0.394  1.00  0.00     0.165 HD
HETATM   13  C   UNL     1      39.831 -14.151  -1.119  1.00  0.00     0.019 C 
HETATM   14  C   UNL     1      40.056 -11.623  -0.586  1.00  0.00     0.257 C 
HETATM   15  C   UNL     1      38.812 -12.349  -2.608  1.00  0.00     0.041 C 
HETATM   16  C   UNL     1      40.130 -14.633   0.304  1.00  0.00     0.013 C 
HETATM   17  C   UNL     1      38.955 -15.193  -1.843  1.00  0.00     0.007 C 
HETATM   18  C   UNL     1      38.613 -14.770  -3.270  1.00  0.00     0.001 C 
HETATM   19  C   UNL     1      37.954 -13.397  -3.309  1.00  0.00     0.003 C 
HETATM   20  O   UNL     1      41.214 -11.371  -0.894  1.00  0.00    -0.270 OA
ENDBRANCH   6   7
ENDBRANCH   3   6
ENDBRANCH   1   2
BRANCH   1  21
HETATM   21  C   UNL     1      42.300 -11.568   4.083  1.00  0.00     0.071 C 
BRANCH  21  22
HETATM   22  C   UNL     1      41.808 -13.006   4.139  1.00  0.00    -0.020 A 
HETATM   23  C   UNL     1      42.277 -14.113   3.350  1.00  0.00    -0.001 A 
HETATM   24  C   UNL     1      41.540 -15.240   3.721  1.00  0.00     0.042 A 
HETATM   25  C   UNL     1      43.265 -14.267   2.354  1.00  0.00     0.014 A 
HETATM   26  C   UNL     1      41.739 -16.504   3.153  1.00  0.00     0.030 A 
HETATM   27  N   UNL     1      40.655 -14.844   4.693  1.00  0.00    -0.365 N 
HETATM   28  C   UNL     1      42.726 -16.627   2.172  1.00  0.00     0.002 A 
HETATM   29  C   UNL     1      43.480 -15.525   1.777  1.00  0.00     0.001 A 
HETATM   30  H   UNL     1      39.993 -15.457   5.148  1.00  0.00     0.165 HD
HETATM   31  C   UNL     1      40.804 -13.510   4.952  1.00  0.00     0.097 A 
ENDBRANCH  21  22
BRANCH  21  32
HETATM   32  C   UNL     1      43.238 -11.451   5.280  1.00  0.00    -0.048 A 
HETATM   33  C   UNL     1      42.721 -11.013   6.511  1.00  0.00     0.011 A 
HETATM   34  C   UNL     1      43.553 -10.849   7.622  1.00  0.00     0.037 A 
HETATM   35  C   UNL     1      44.918 -11.119   7.533  1.00  0.00     0.068 A 
HETATM   36  C   UNL     1      45.444 -11.558   6.320  1.00  0.00     0.037 A 
HETATM   37  C   UNL     1      44.613 -11.720   5.203  1.00  0.00     0.011 A 
BRANCH  35  38
HETATM   38  O   UNL     1      45.619 -10.908   8.689  1.00  0.00    -0.356 OA
HETATM   39  C   UNL     1      44.981 -10.131   9.694  1.00  0.00     0.210 C 
ENDBRANCH  35  38
ENDBRANCH  21  32
ENDBRANCH   1  21
TORSDOF 7
ENDMDL
MODEL 3
REMARK VINA RESULT:      -9.1      2.692      4.781
REMARK  7 active torsions:
REMARK  status: ('A' for Active; 'I' for Inactive)
REMARK    1  A    between atoms: N_7  and  C_8 
REMARK    2  A    between atoms: C_8  and  C_9 
REMARK       I    between atoms: C_9  and  N_10 
REMARK    3  A    between atoms: N_10  and  C_11 
REMARK    4  A    between atoms: C_11  and  C_12 
REMARK    5  A    between atoms: C_12  and  C_13 
REMARK    6  A    between atoms: C_12  and  C_23 
REMARK    7  A    between atoms: C_26  and  O_27 
ROOT
HETATM    1  C   UNL     1      42.568 -14.276   6.035  1.00  0.00     0.136 C 
ENDROOT
BRANCH   1   2
HETATM    2  N   UNL     1      42.400 -12.865   6.370  1.00  0.00    -0.359 N 
HETATM    3  C   UNL     1      43.559 -12.123   6.556  1.00  0.00     0.236 C 
HETATM    4  O   UNL     1      44.661 -12.659   6.680  1.00  0.00    -0.272 OA
HETATM    5  H   UNL     1      41.590 -12.375   5.991  1.00  0.00     0.162 HD
BRANCH   3   6
HETATM    6  C   UNL     1      43.440 -10.619   6.363  1.00  0.00     0.239 C 
BRANCH   6   7
HETATM    7  N   UNL     1      43.047  -9.873   7.533  1.00  0.00    -0.259 N 
HETATM    8  C   UNL     1      41.758  -9.748   7.953  1.00  0.00     0.326 C 
HETATM    9  N   UNL     1      41.757  -9.130   9.183  1.00  0.00    -0.324 N 
HETATM   10  O   UNL     1      40.749 -10.136   7.392  1.00  0.00    -0.247 OA
HETATM   11  C   UNL     1      43.090  -9.038   9.742  1.00  0.00     0.119 C 
HETATM   12  H   UNL     1      40.893  -9.070   9.707  1.00  0.00     0.165 HD
HETATM   13  C   UNL     1      43.409  -7.659  10.346  1.00  0.00     0.019 C 
HETATM   14  C   UNL     1      43.907  -9.387   8.477  1.00  0.00     0.257 C 
HETATM   15  C   UNL     1      43.326 -10.174  10.759  1.00  0.00     0.041 C 
HETATM   16  C   UNL     1      43.102  -6.496   9.397  1.00  0.00     0.013 C 
HETATM   17  C   UNL     1      42.659  -7.452  11.677  1.00  0.00     0.007 C 
HETATM   18  C   UNL     1      42.917  -8.584  12.668  1.00  0.00     0.001 C 
HETATM   19  C   UNL     1      42.583  -9.945  12.072  1.00  0.00     0.003 C 
HETATM   20  O   UNL     1      45.125  -9.340   8.364  1.00  0.00    -0.270 OA
ENDBRANCH   6   7
ENDBRANCH   3   6
ENDBRANCH   1   2
BRANCH   1  21
HETATM   21  C   UNL     1      42.795 -14.618   4.547  1.00  0.00     0.071 C 
BRANCH  21  22
HETATM   22  C   UNL     1      41.536 -14.379   3.728  1.00  0.00    -0.020 A 
HETATM   23  C   UNL     1      41.294 -13.303   2.806  1.00  0.00    -0.001 A 
HETATM   24  C   UNL     1      40.007 -13.470   2.288  1.00  0.00     0.042 A 
HETATM   25  C   UNL     1      42.050 -12.199   2.356  1.00  0.00     0.014 A 
HETATM   26  C   UNL     1      39.442 -12.598   1.351  1.00  0.00     0.030 A 
HETATM   27  N   UNL     1      39.480 -14.596   2.868  1.00  0.00    -0.365 N 
HETATM   28  C   UNL     1      40.215 -11.516   0.921  1.00  0.00     0.002 A 
HETATM   29  C   UNL     1      41.502 -11.318   1.415  1.00  0.00     0.001 A 
HETATM   30  H   UNL     1      38.556 -14.960   2.678  1.00  0.00     0.165 HD
HETATM   31  C   UNL     1      40.383 -15.150   3.732  1.00  0.00     0.097 A 
ENDBRANCH  21  22
BRANCH  21  32
HETATM   32  C   UNL     1      43.184 -16.055   4.218  1.00  0.00    -0.048 A 
HETATM   33  C   UNL     1      43.152 -16.481   2.880  1.00  0.00     0.011 A 
HETATM   34  C   UNL     1      43.459 -17.801   2.538  1.00  0.00     0.037 A 
HETATM   35  C   UNL     1      43.805 -18.727   3.521  1.00  0.00     0.068 A 
HETATM   36  C   UNL     1      43.845 -18.317   4.853  1.00  0.00     0.037 A 
HETATM   37  C   UNL     1      43.535 -16.996   5.199  1.00  0.00     0.011 A 
BRANCH  35  38
HETATM   38  O   UNL     1      44.071 -19.984   3.054  1.00  0.00    -0.356 OA
HETATM   39  C   UNL     1      43.480 -20.347   1.813  1.00  0.00     0.210 C 
ENDBRANCH  35  38
ENDBRANCH  21  32
ENDBRANCH   1  21
TORSDOF 7
ENDMDL
MODEL 4
REMARK VINA RESULT:      -9.0      4.470      8.946
REMARK  7 active torsions:
REMARK  status: ('A' for Active; 'I' for Inactive)
REMARK    1  A    between atoms: N_7  and  C_8 
REMARK    2  A    between atoms: C_8  and  C_9 
REMARK       I    between atoms: C_9  and  N_10 
REMARK    3  A    between atoms: N_10  and  C_11 
REMARK    4  A    between atoms: C_11  and  C_12 
REMARK    5  A    between atoms: C_12  and  C_13 
REMARK    6  A    between atoms: C_12  and  C_23 
REMARK    7  A    between atoms: C_26  and  O_27 
ROOT
HETATM    1  C   UNL     1      40.455 -11.455   4.813  1.00  0.00     0.136 C 
ENDROOT
BRANCH   1   2
HETATM    2  N   UNL     1      39.697 -10.764   3.773  1.00  0.00    -0.359 N 
HETATM    3  C   UNL     1      40.197  -9.543   3.341  1.00  0.00     0.236 C 
HETATM    4  O   UNL     1      41.082  -8.947   3.956  1.00  0.00    -0.272 OA
HETATM    5  H   UNL     1      39.195 -11.330   3.090  1.00  0.00     0.162 HD
BRANCH   3   6
HETATM    6  C   UNL     1      39.771  -9.089   1.953  1.00  0.00     0.239 C 
BRANCH   6   7
HETATM    7  N   UNL     1      39.814 -10.104   0.928  1.00  0.00    -0.259 N 
HETATM    8  C   UNL     1      40.925 -10.394   0.197  1.00  0.00     0.326 C 
HETATM    9  N   UNL     1      40.671 -11.519  -0.555  1.00  0.00    -0.324 N 
HETATM   10  O   UNL     1      41.996  -9.814   0.203  1.00  0.00    -0.247 OA
HETATM   11  C   UNL     1      39.437 -12.166  -0.158  1.00  0.00     0.119 C 
HETATM   12  H   UNL     1      41.428 -11.956  -1.065  1.00  0.00     0.165 HD
HETATM   13  C   UNL     1      38.556 -12.590  -1.347  1.00  0.00     0.019 C 
HETATM   14  C   UNL     1      38.840 -11.035   0.710  1.00  0.00     0.257 C 
HETATM   15  C   UNL     1      39.731 -13.351   0.784  1.00  0.00     0.041 C 
HETATM   16  C   UNL     1      38.315 -11.462  -2.356  1.00  0.00     0.013 C 
HETATM   17  C   UNL     1      39.156 -13.811  -2.072  1.00  0.00     0.007 C 
HETATM   18  C   UNL     1      39.428 -14.972  -1.118  1.00  0.00     0.001 C 
HETATM   19  C   UNL     1      40.315 -14.552   0.046  1.00  0.00     0.003 C 
HETATM   20  O   UNL     1      37.721 -11.017   1.207  1.00  0.00    -0.270 OA
ENDBRANCH   6   7
ENDBRANCH   3   6
ENDBRANCH   1   2
BRANCH   1  21
HETATM   21  C   UNL     1      41.800 -12.085   4.392  1.00  0.00     0.071 C 
BRANCH  21  22
HETATM   22  C   UNL     1      41.724 -13.603   4.398  1.00  0.00    -0.020 A 
HETATM   23  C   UNL     1      42.327 -14.505   3.453  1.00  0.00    -0.001 A 
HETATM   24  C   UNL     1      41.990 -15.806   3.835  1.00  0.00     0.042 A 
HETATM   25  C   UNL     1      43.133 -14.339   2.307  1.00  0.00     0.014 A 
HETATM   26  C   UNL     1      42.416 -16.941   3.135  1.00  0.00     0.030 A 
HETATM   27  N   UNL     1      41.213 -15.710   4.962  1.00  0.00    -0.365 N 
HETATM   28  C   UNL     1      43.215 -16.746   2.007  1.00  0.00     0.002 A 
HETATM   29  C   UNL     1      43.571 -15.464   1.597  1.00  0.00     0.001 A 
HETATM   30  H   UNL     1      40.825 -16.499   5.459  1.00  0.00     0.165 HD
HETATM   31  C   UNL     1      41.045 -14.399   5.310  1.00  0.00     0.097 A 
ENDBRANCH  21  22
BRANCH  21  32
HETATM   32  C   UNL     1      43.014 -11.772   5.261  1.00  0.00    -0.048 A 
HETATM   33  C   UNL     1      42.820 -11.464   6.618  1.00  0.00     0.011 A 
HETATM   34  C   UNL     1      43.899 -11.128   7.440  1.00  0.00     0.037 A 
HETATM   35  C   UNL     1      45.196 -11.091   6.930  1.00  0.00     0.068 A 
HETATM   36  C   UNL     1      45.404 -11.398   5.587  1.00  0.00     0.037 A 
HETATM   37  C   UNL     1      44.323 -11.732   4.759  1.00  0.00     0.011 A 
BRANCH  35  38
HETATM   38  O   UNL     1      46.157 -10.738   7.837  1.00  0.00    -0.356 OA
HETATM   39  C   UNL     1      46.263  -9.357   8.154  1.00  0.00     0.210 C 
ENDBRANCH  35  38
ENDBRANCH  21  32
ENDBRANCH   1  21
TORSDOF 7
ENDMDL
MODEL 5
REMARK VINA RESULT:      -8.9      2.384      5.110
REMARK  7 active torsions:
REMARK  status: ('A' for Active; 'I' for Inactive)
REMARK    1  A    between atoms: N_7  and  C_8 
REMARK    2  A    between atoms: C_8  and  C_9 
REMARK       I    between atoms: C_9  and  N_10 
REMARK    3  A    between atoms: N_10  and  C_11 
REMARK    4  A    between atoms: C_11  and  C_12 
REMARK    5  A    between atoms: C_12  and  C_13 
REMARK    6  A    between atoms: C_12  and  C_23 
REMARK    7  A    between atoms: C_26  and  O_27 
ROOT
HETATM    1  C   UNL     1      40.298 -12.248   5.572  1.00  0.00     0.136 C 
ENDROOT
BRANCH   1   2
HETATM    2  N   UNL     1      40.120 -10.810   5.757  1.00  0.00    -0.359 N 
HETATM    3  C   UNL     1      39.011 -10.404   6.487  1.00  0.00     0.236 C 
HETATM    4  O   UNL     1      38.092 -11.178   6.759  1.00  0.00    -0.272 OA
HETATM    5  H   UNL     1      40.955 -10.227   5.815  1.00  0.00     0.162 HD
BRANCH   3   6
HETATM    6  C   UNL     1      39.093  -9.031   7.138  1.00  0.00     0.239 C 
BRANCH   6   7
HETATM    7  N   UNL     1      39.926  -8.951   8.313  1.00  0.00    -0.259 N 
HETATM    8  C   UNL     1      39.698  -9.660   9.452  1.00  0.00     0.326 C 
HETATM    9  N   UNL     1      40.770  -9.484  10.298  1.00  0.00    -0.324 N 
HETATM   10  O   UNL     1      38.746 -10.375   9.710  1.00  0.00    -0.247 OA
HETATM   11  C   UNL     1      41.879  -8.829   9.635  1.00  0.00     0.119 C 
HETATM   12  H   UNL     1      40.833 -10.040  11.141  1.00  0.00     0.165 HD
HETATM   13  C   UNL     1      42.521  -7.709  10.473  1.00  0.00     0.019 C 
HETATM   14  C   UNL     1      41.146  -8.338   8.366  1.00  0.00     0.257 C 
HETATM   15  C   UNL     1      42.922  -9.870   9.179  1.00  0.00     0.041 C 
HETATM   16  C   UNL     1      41.505  -6.703  11.021  1.00  0.00     0.013 C 
HETATM   17  C   UNL     1      43.348  -8.294  11.635  1.00  0.00     0.007 C 
HETATM   18  C   UNL     1      44.379  -9.313  11.156  1.00  0.00     0.001 C 
HETATM   19  C   UNL     1      43.735 -10.429  10.343  1.00  0.00     0.003 C 
HETATM   20  O   UNL     1      41.608  -7.610   7.498  1.00  0.00    -0.270 OA
ENDBRANCH   6   7
ENDBRANCH   3   6
ENDBRANCH   1   2
BRANCH   1  21
HETATM   21  C   UNL     1      41.520 -12.698   4.744  1.00  0.00     0.071 C 
BRANCH  21  22
HETATM   22  C   UNL     1      41.591 -14.214   4.647  1.00  0.00    -0.020 A 
HETATM   23  C   UNL     1      42.235 -14.987   3.619  1.00  0.00    -0.001 A 
HETATM   24  C   UNL     1      42.044 -16.337   3.922  1.00  0.00     0.042 A 
HETATM   25  C   UNL     1      42.970 -14.666   2.457  1.00  0.00     0.014 A 
HETATM   26  C   UNL     1      42.546 -17.376   3.129  1.00  0.00     0.030 A 
HETATM   27  N   UNL     1      41.312 -16.393   5.081  1.00  0.00    -0.365 N 
HETATM   28  C   UNL     1      43.272 -17.029   1.987  1.00  0.00     0.002 A 
HETATM   29  C   UNL     1      43.482 -15.694   1.654  1.00  0.00     0.001 A 
HETATM   30  H   UNL     1      41.025 -17.248   5.537  1.00  0.00     0.165 HD
HETATM   31  C   UNL     1      41.034 -15.131   5.526  1.00  0.00     0.097 A 
ENDBRANCH  21  22
BRANCH  21  32
HETATM   32  C   UNL     1      42.895 -12.295   5.263  1.00  0.00    -0.048 A 
HETATM   33  C   UNL     1      43.224 -12.561   6.603  1.00  0.00     0.011 A 
HETATM   34  C   UNL     1      44.456 -12.169   7.132  1.00  0.00     0.037 A 
HETATM   35  C   UNL     1      45.391 -11.504   6.340  1.00  0.00     0.068 A 
HETATM   36  C   UNL     1      45.080 -11.237   5.007  1.00  0.00     0.037 A 
HETATM   37  C   UNL     1      43.844 -11.625   4.475  1.00  0.00     0.011 A 
BRANCH  35  38
HETATM   38  O   UNL     1      46.550 -11.168   6.982  1.00  0.00    -0.356 OA
HETATM   39  C   UNL     1      46.508 -10.025   7.826  1.00  0.00     0.210 C 
ENDBRANCH  35  38
ENDBRANCH  21  32
ENDBRANCH   1  21
TORSDOF 7
ENDMDL
MODEL 6
REMARK VINA RESULT:      -8.9      2.522      5.999
REMARK  7 active torsions:
REMARK  status: ('A' for Active; 'I' for Inactive)
REMARK    1  A    between atoms: N_7  and  C_8 
REMARK    2  A    between atoms: C_8  and  C_9 
REMARK       I    between atoms: C_9  and  N_10 
REMARK    3  A    between atoms: N_10  and  C_11 
REMARK    4  A    between atoms: C_11  and  C_12 
REMARK    5  A    between atoms: C_12  and  C_13 
REMARK    6  A    between atoms: C_12  and  C_23 
REMARK    7  A    between atoms: C_26  and  O_27 
ROOT
HETATM    1  C   UNL     1      43.961 -11.804   5.845  1.00  0.00     0.136 C 
ENDROOT
BRANCH   1   2
HETATM    2  N   UNL     1      44.414 -11.694   7.229  1.00  0.00    -0.359 N 
HETATM    3  C   UNL     1      45.682 -11.166   7.433  1.00  0.00     0.236 C 
HETATM    4  O   UNL     1      46.484 -11.025   6.510  1.00  0.00    -0.272 OA
HETATM    5  H   UNL     1      43.714 -11.518   7.950  1.00  0.00     0.162 HD
BRANCH   3   6
HETATM    6  C   UNL     1      45.948 -10.552   8.800  1.00  0.00     0.239 C 
BRANCH   6   7
HETATM    7  N   UNL     1      44.895  -9.715   9.320  1.00  0.00    -0.259 N 
HETATM    8  C   UNL     1      44.720  -8.413   8.966  1.00  0.00     0.326 C 
HETATM    9  N   UNL     1      43.532  -7.971   9.503  1.00  0.00    -0.324 N 
HETATM   10  O   UNL     1      45.439  -7.726   8.263  1.00  0.00    -0.247 OA
HETATM   11  C   UNL     1      42.745  -9.059  10.045  1.00  0.00     0.119 C 
HETATM   12  H   UNL     1      43.175  -7.061   9.236  1.00  0.00     0.165 HD
HETATM   13  C   UNL     1      42.143  -8.754  11.428  1.00  0.00     0.019 C 
HETATM   14  C   UNL     1      43.830 -10.161  10.049  1.00  0.00     0.257 C 
HETATM   15  C   UNL     1      41.664  -9.494   9.035  1.00  0.00     0.041 C 
HETATM   16  C   UNL     1      43.171  -8.231  12.435  1.00  0.00     0.013 C 
HETATM   17  C   UNL     1      40.977  -7.752  11.313  1.00  0.00     0.007 C 
HETATM   18  C   UNL     1      39.917  -8.210  10.315  1.00  0.00     0.001 C 
HETATM   19  C   UNL     1      40.516  -8.494   8.944  1.00  0.00     0.003 C 
HETATM   20  O   UNL     1      43.722 -11.282  10.529  1.00  0.00    -0.270 OA
ENDBRANCH   6   7
ENDBRANCH   3   6
ENDBRANCH   1   2
BRANCH   1  21
HETATM   21  C   UNL     1      42.676 -12.622   5.595  1.00  0.00     0.071 C 
BRANCH  21  22
HETATM   22  C   UNL     1      42.702 -13.285   4.227  1.00  0.00    -0.020 A 
HETATM   23  C   UNL     1      42.924 -14.677   3.943  1.00  0.00    -0.001 A 
HETATM   24  C   UNL     1      42.873 -14.840   2.556  1.00  0.00     0.042 A 
HETATM   25  C   UNL     1      43.159 -15.821   4.736  1.00  0.00     0.014 A 
HETATM   26  C   UNL     1      43.044 -16.078   1.926  1.00  0.00     0.030 A 
HETATM   27  N   UNL     1      42.634 -13.603   2.011  1.00  0.00    -0.365 N 
HETATM   28  C   UNL     1      43.273 -17.193   2.737  1.00  0.00     0.002 A 
HETATM   29  C   UNL     1      43.329 -17.068   4.122  1.00  0.00     0.001 A 
HETATM   30  H   UNL     1      42.548 -13.421   1.021  1.00  0.00     0.165 HD
HETATM   31  C   UNL     1      42.530 -12.664   2.998  1.00  0.00     0.097 A 
ENDBRANCH  21  22
BRANCH  21  32
HETATM   32  C   UNL     1      41.355 -11.859   5.612  1.00  0.00    -0.048 A 
HETATM   33  C   UNL     1      41.366 -10.471   5.399  1.00  0.00     0.011 A 
HETATM   34  C   UNL     1      40.185  -9.727   5.450  1.00  0.00     0.037 A 
HETATM   35  C   UNL     1      38.965 -10.348   5.714  1.00  0.00     0.068 A 
HETATM   36  C   UNL     1      38.938 -11.725   5.924  1.00  0.00     0.037 A 
HETATM   37  C   UNL     1      40.122 -12.473   5.877  1.00  0.00     0.011 A 
BRANCH  35  38
HETATM   38  O   UNL     1      37.889  -9.504   5.747  1.00  0.00    -0.356 OA
HETATM   39  C   UNL     1      38.120  -8.154   5.369  1.00  0.00     0.210 C 
ENDBRANCH  35  38
ENDBRANCH  21  32
ENDBRANCH   1  21
TORSDOF 7
ENDMDL
MODEL 7
REMARK VINA RESULT:      -8.9      4.236      8.919
REMARK  7 active torsions:
REMARK  status: ('A' for Active; 'I' for Inactive)
REMARK    1  A    between atoms: N_7  and  C_8 
REMARK    2  A    between atoms: C_8  and  C_9 
REMARK       I    between atoms: C_9  and  N_10 
REMARK    3  A    between atoms: N_10  and  C_11 
REMARK    4  A    between atoms: C_11  and  C_12 
REMARK    5  A    between atoms: C_12  and  C_13 
REMARK    6  A    between atoms: C_12  and  C_23 
REMARK    7  A    between atoms: C_26  and  O_27 
ROOT
HETATM    1  C   UNL     1      40.698 -12.908   5.333  1.00  0.00     0.136 C 
ENDROOT
BRANCH   1   2
HETATM    2  N   UNL     1      39.769 -12.339   4.361  1.00  0.00    -0.359 N 
HETATM    3  C   UNL     1      39.729 -10.954   4.270  1.00  0.00     0.236 C 
HETATM    4  O   UNL     1      40.253 -10.230   5.117  1.00  0.00    -0.272 OA
HETATM    5  H   UNL     1      39.582 -12.867   3.509  1.00  0.00     0.162 HD
BRANCH   3   6
HETATM    6  C   UNL     1      39.217 -10.375   2.959  1.00  0.00     0.239 C 
BRANCH   6   7
HETATM    7  N   UNL     1      39.188 -11.292   1.846  1.00  0.00    -0.259 N 
HETATM    8  C   UNL     1      38.062 -11.588   1.139  1.00  0.00     0.326 C 
HETATM    9  N   UNL     1      38.420 -12.347   0.048  1.00  0.00    -0.324 N 
HETATM   10  O   UNL     1      36.921 -11.231   1.368  1.00  0.00    -0.247 OA
HETATM   11  C   UNL     1      39.855 -12.380  -0.141  1.00  0.00     0.119 C 
HETATM   12  H   UNL     1      37.727 -12.553  -0.661  1.00  0.00     0.165 HD
HETATM   13  C   UNL     1      40.403 -13.787  -0.443  1.00  0.00     0.019 C 
HETATM   14  C   UNL     1      40.291 -11.804   1.226  1.00  0.00     0.257 C 
HETATM   15  C   UNL     1      40.279 -11.360  -1.217  1.00  0.00     0.041 C 
HETATM   16  C   UNL     1      39.930 -14.849   0.553  1.00  0.00     0.013 C 
HETATM   17  C   UNL     1      40.040 -14.224  -1.876  1.00  0.00     0.007 C 
HETATM   18  C   UNL     1      40.479 -13.201  -2.922  1.00  0.00     0.001 C 
HETATM   19  C   UNL     1      39.919 -11.816  -2.627  1.00  0.00     0.003 C 
HETATM   20  O   UNL     1      41.438 -11.722   1.645  1.00  0.00    -0.270 OA
ENDBRANCH   6   7
ENDBRANCH   3   6
ENDBRANCH   1   2
BRANCH   1  21
HETATM   21  C   UNL     1      42.167 -13.064   4.885  1.00  0.00     0.071 C 
BRANCH  21  22
HETATM   22  C   UNL     1      42.615 -14.514   4.959  1.00  0.00    -0.020 A 
HETATM   23  C   UNL     1      42.891 -15.393   3.854  1.00  0.00    -0.001 A 
HETATM   24  C   UNL     1      43.261 -16.633   4.382  1.00  0.00     0.042 A 
HETATM   25  C   UNL     1      42.865 -15.252   2.450  1.00  0.00     0.014 A 
HETATM   26  C   UNL     1      43.605 -17.730   3.583  1.00  0.00     0.030 A 
HETATM   27  N   UNL     1      43.213 -16.523   5.749  1.00  0.00    -0.365 N 
HETATM   28  C   UNL     1      43.574 -17.560   2.197  1.00  0.00     0.002 A 
HETATM   29  C   UNL     1      43.210 -16.339   1.636  1.00  0.00     0.001 A 
HETATM   30  H   UNL     1      43.433 -17.271   6.391  1.00  0.00     0.165 HD
HETATM   31  C   UNL     1      42.827 -15.262   6.108  1.00  0.00     0.097 A 
ENDBRANCH  21  22
BRANCH  21  32
HETATM   32  C   UNL     1      43.220 -12.309   5.689  1.00  0.00    -0.048 A 
HETATM   33  C   UNL     1      44.455 -12.013   5.088  1.00  0.00     0.011 A 
HETATM   34  C   UNL     1      45.464 -11.361   5.802  1.00  0.00     0.037 A 
HETATM   35  C   UNL     1      45.267 -10.989   7.131  1.00  0.00     0.068 A 
HETATM   36  C   UNL     1      44.045 -11.273   7.740  1.00  0.00     0.037 A 
HETATM   37  C   UNL     1      43.033 -11.929   7.027  1.00  0.00     0.011 A 
BRANCH  35  38
HETATM   38  O   UNL     1      46.337 -10.370   7.716  1.00  0.00    -0.356 OA
HETATM   39  C   UNL     1      46.099  -9.099   8.307  1.00  0.00     0.210 C 
ENDBRANCH  35  38
ENDBRANCH  21  32
ENDBRANCH   1  21
TORSDOF 7
ENDMDL
MODEL 8
REMARK VINA RESULT:      -8.8      2.724      4.880
REMARK  7 active torsions:
REMARK  status: ('A' for Active; 'I' for Inactive)
REMARK    1  A    between atoms: N_7  and  C_8 
REMARK    2  A    between atoms: C_8  and  C_9 
REMARK       I    between atoms: C_9  and  N_10 
REMARK    3  A    between atoms: N_10  and  C_11 
REMARK    4  A    between atoms: C_11  and  C_12 
REMARK    5  A    between atoms: C_12  and  C_13 
REMARK    6  A    between atoms: C_12  and  C_23 
REMARK    7  A    between atoms: C_26  and  O_27 
ROOT
HETATM    1  C   UNL     1      43.360 -14.172   6.349  1.00  0.00     0.136 C 
ENDROOT
BRANCH   1   2
HETATM    2  N   UNL     1      42.977 -12.840   6.808  1.00  0.00    -0.359 N 
HETATM    3  C   UNL     1      43.981 -11.881   6.856  1.00  0.00     0.236 C 
HETATM    4  O   UNL     1      45.171 -12.180   6.760  1.00  0.00    -0.272 OA
HETATM    5  H   UNL     1      42.032 -12.515   6.602  1.00  0.00     0.162 HD
BRANCH   3   6
HETATM    6  C   UNL     1      43.534 -10.428   6.795  1.00  0.00     0.239 C 
BRANCH   6   7
HETATM    7  N   UNL     1      43.567  -9.716   8.049  1.00  0.00    -0.259 N 
HETATM    8  C   UNL     1      44.682  -9.114   8.548  1.00  0.00     0.326 C 
HETATM    9  N   UNL     1      44.323  -8.383   9.658  1.00  0.00    -0.324 N 
HETATM   10  O   UNL     1      45.814  -9.150   8.101  1.00  0.00    -0.247 OA
HETATM   11  C   UNL     1      42.885  -8.281   9.797  1.00  0.00     0.119 C 
HETATM   12  H   UNL     1      45.001  -7.764  10.085  1.00  0.00     0.165 HD
HETATM   13  C   UNL     1      42.387  -8.526  11.232  1.00  0.00     0.019 C 
HETATM   14  C   UNL     1      42.467  -9.369   8.781  1.00  0.00     0.257 C 
HETATM   15  C   UNL     1      42.386  -6.931   9.242  1.00  0.00     0.041 C 
HETATM   16  C   UNL     1      42.935  -9.814  11.853  1.00  0.00     0.013 C 
HETATM   17  C   UNL     1      42.724  -7.329  12.145  1.00  0.00     0.007 C 
HETATM   18  C   UNL     1      42.211  -6.008  11.578  1.00  0.00     0.001 C 
HETATM   19  C   UNL     1      42.721  -5.763  10.164  1.00  0.00     0.003 C 
HETATM   20  O   UNL     1      41.331  -9.781   8.586  1.00  0.00    -0.270 OA
ENDBRANCH   6   7
ENDBRANCH   3   6
ENDBRANCH   1   2
BRANCH   1  21
HETATM   21  C   UNL     1      43.233 -14.452   4.836  1.00  0.00     0.071 C 
BRANCH  21  22
HETATM   22  C   UNL     1      41.869 -14.033   4.311  1.00  0.00    -0.020 A 
HETATM   23  C   UNL     1      41.587 -12.978   3.375  1.00  0.00    -0.001 A 
HETATM   24  C   UNL     1      40.203 -12.939   3.186  1.00  0.00     0.042 A 
HETATM   25  C   UNL     1      42.379 -12.052   2.664  1.00  0.00     0.014 A 
HETATM   26  C   UNL     1      39.575 -12.028   2.328  1.00  0.00     0.030 A 
HETATM   27  N   UNL     1      39.658 -13.923   3.971  1.00  0.00    -0.365 N 
HETATM   28  C   UNL     1      40.385 -11.125   1.635  1.00  0.00     0.002 A 
HETATM   29  C   UNL     1      41.768 -11.135   1.799  1.00  0.00     0.001 A 
HETATM   30  H   UNL     1      38.669 -14.125   4.033  1.00  0.00     0.165 HD
HETATM   31  C   UNL     1      40.642 -14.585   4.650  1.00  0.00     0.097 A 
ENDBRANCH  21  22
BRANCH  21  32
HETATM   32  C   UNL     1      43.375 -15.901   4.385  1.00  0.00    -0.048 A 
HETATM   33  C   UNL     1      43.686 -16.885   5.339  1.00  0.00     0.011 A 
HETATM   34  C   UNL     1      43.868 -18.218   4.963  1.00  0.00     0.037 A 
HETATM   35  C   UNL     1      43.746 -18.603   3.628  1.00  0.00     0.068 A 
HETATM   36  C   UNL     1      43.435 -17.639   2.672  1.00  0.00     0.037 A 
HETATM   37  C   UNL     1      43.254 -16.300   3.045  1.00  0.00     0.011 A 
BRANCH  35  38
HETATM   38  O   UNL     1      43.960 -19.933   3.395  1.00  0.00    -0.356 OA
HETATM   39  C   UNL     1      44.019 -20.783   4.532  1.00  0.00     0.210 C 
ENDBRANCH  35  38
ENDBRANCH  21  32
ENDBRANCH   1  21
TORSDOF 7
ENDMDL
MODEL 9
REMARK VINA RESULT:      -8.6      3.073      5.750
REMARK  7 active torsions:
REMARK  status: ('A' for Active; 'I' for Inactive)
REMARK    1  A    between atoms: N_7  and  C_8 
REMARK    2  A    between atoms: C_8  and  C_9 
REMARK       I    between atoms: C_9  and  N_10 
REMARK    3  A    between atoms: N_10  and  C_11 
REMARK    4  A    between atoms: C_11  and  C_12 
REMARK    5  A    between atoms: C_12  and  C_13 
REMARK    6  A    between atoms: C_12  and  C_23 
REMARK    7  A    between atoms: C_26  and  O_27 
ROOT
HETATM    1  C   UNL     1      41.905 -14.123   4.702  1.00  0.00     0.136 C 
ENDROOT
BRANCH   1   2
HETATM    2  N   UNL     1      40.903 -13.086   4.469  1.00  0.00    -0.359 N 
HETATM    3  C   UNL     1      39.944 -12.909   5.458  1.00  0.00     0.236 C 
HETATM    4  O   UNL     1      39.783 -13.728   6.363  1.00  0.00    -0.272 OA
HETATM    5  H   UNL     1      41.181 -12.262   3.937  1.00  0.00     0.162 HD
BRANCH   3   6
HETATM    6  C   UNL     1      39.265 -11.548   5.507  1.00  0.00     0.239 C 
BRANCH   6   7
HETATM    7  N   UNL     1      39.916 -10.560   6.332  1.00  0.00    -0.259 N 
HETATM    8  C   UNL     1      39.598 -10.334   7.636  1.00  0.00     0.326 C 
HETATM    9  N   UNL     1      40.522  -9.461   8.166  1.00  0.00    -0.324 N 
HETATM   10  O   UNL     1      38.688 -10.825   8.279  1.00  0.00    -0.247 OA
HETATM   11  C   UNL     1      41.648  -9.262   7.277  1.00  0.00     0.119 C 
HETATM   12  H   UNL     1      40.517  -9.279   9.162  1.00  0.00     0.165 HD
HETATM   13  C   UNL     1      42.064  -7.787   7.133  1.00  0.00     0.019 C 
HETATM   14  C   UNL     1      41.056  -9.888   5.994  1.00  0.00     0.257 C 
HETATM   15  C   UNL     1      42.834 -10.150   7.707  1.00  0.00     0.041 C 
HETATM   16  C   UNL     1      40.894  -6.857   6.796  1.00  0.00     0.013 C 
HETATM   17  C   UNL     1      42.771  -7.286   8.408  1.00  0.00     0.007 C 
HETATM   18  C   UNL     1      43.946  -8.176   8.806  1.00  0.00     0.001 C 
HETATM   19  C   UNL     1      43.525  -9.631   8.964  1.00  0.00     0.003 C 
HETATM   20  O   UNL     1      41.566  -9.878   4.881  1.00  0.00    -0.270 OA
ENDBRANCH   6   7
ENDBRANCH   3   6
ENDBRANCH   1   2
BRANCH   1  21
HETATM   21  C   UNL     1      42.457 -14.850   3.457  1.00  0.00     0.071 C 
BRANCH  21  22
HETATM   22  C   UNL     1      41.380 -15.028   2.399  1.00  0.00    -0.020 A 
HETATM   23  C   UNL     1      41.090 -14.146   1.301  1.00  0.00    -0.001 A 
HETATM   24  C   UNL     1      40.019 -14.693   0.591  1.00  0.00     0.042 A 
HETATM   25  C   UNL     1      41.641 -12.933   0.838  1.00  0.00     0.014 A 
HETATM   26  C   UNL     1      39.474 -14.093  -0.551  1.00  0.00     0.030 A 
HETATM   27  N   UNL     1      39.663 -15.857   1.225  1.00  0.00    -0.365 N 
HETATM   28  C   UNL     1      40.042 -12.894  -0.988  1.00  0.00     0.002 A 
HETATM   29  C   UNL     1      41.111 -12.321  -0.305  1.00  0.00     0.001 A 
HETATM   30  H   UNL     1      38.913 -16.465   0.927  1.00  0.00     0.165 HD
HETATM   31  C   UNL     1      40.468 -16.070   2.308  1.00  0.00     0.097 A 
ENDBRANCH  21  22
BRANCH  21  32
HETATM   32  C   UNL     1      43.010 -16.256   3.665  1.00  0.00    -0.048 A 
HETATM   33  C   UNL     1      43.190 -16.731   4.975  1.00  0.00     0.011 A 
HETATM   34  C   UNL     1      43.734 -17.997   5.211  1.00  0.00     0.037 A 
HETATM   35  C   UNL     1      44.111 -18.818   4.149  1.00  0.00     0.068 A 
HETATM   36  C   UNL     1      43.934 -18.361   2.844  1.00  0.00     0.037 A 
HETATM   37  C   UNL     1      43.392 -17.091   2.604  1.00  0.00     0.011 A 
BRANCH  35  38
HETATM   38  O   UNL     1      44.639 -20.024   4.518  1.00  0.00    -0.356 OA
HETATM   39  C   UNL     1      43.899 -20.787   5.462  1.00  0.00     0.210 C 
ENDBRANCH  35  38
ENDBRANCH  21  32
ENDBRANCH   1  21
TORSDOF 7
ENDMDL
MODEL 10
REMARK VINA RESULT:      -8.5      3.001      5.517
REMARK  7 active torsions:
REMARK  status: ('A' for Active; 'I' for Inactive)
REMARK    1  A    between atoms: N_7  and  C_8 
REMARK    2  A    between atoms: C_8  and  C_9 
REMARK       I    between atoms: C_9  and  N_10 
REMARK    3  A    between atoms: N_10  and  C_11 
REMARK    4  A    between atoms: C_11  and  C_12 
REMARK    5  A    between atoms: C_12  and  C_13 
REMARK    6  A    between atoms: C_12  and  C_23 
REMARK    7  A    between atoms: C_26  and  O_27 
ROOT
HETATM    1  C   UNL     1      42.701 -12.075   6.039  1.00  0.00     0.136 C 
ENDROOT
BRANCH   1   2
HETATM    2  N   UNL     1      42.653 -11.142   7.161  1.00  0.00    -0.359 N 
HETATM    3  C   UNL     1      43.815 -11.001   7.909  1.00  0.00     0.236 C 
HETATM    4  O   UNL     1      44.758 -11.786   7.801  1.00  0.00    -0.272 OA
HETATM    5  H   UNL     1      42.050 -10.324   7.079  1.00  0.00     0.162 HD
BRANCH   3   6
HETATM    6  C   UNL     1      43.966  -9.703   8.689  1.00  0.00     0.239 C 
BRANCH   6   7
HETATM    7  N   UNL     1      43.328  -9.680   9.982  1.00  0.00    -0.259 N 
HETATM    8  C   UNL     1      43.757 -10.408  11.050  1.00  0.00     0.326 C 
HETATM    9  N   UNL     1      43.041 -10.017  12.159  1.00  0.00    -0.324 N 
HETATM   10  O   UNL     1      44.644 -11.241  11.079  1.00  0.00    -0.247 OA
HETATM   11  C   UNL     1      42.262  -8.822  11.907  1.00  0.00     0.119 C 
HETATM   12  H   UNL     1      43.313 -10.362  13.072  1.00  0.00     0.165 HD
HETATM   13  C   UNL     1      40.821  -8.903  12.443  1.00  0.00     0.019 C 
HETATM   14  C   UNL     1      42.370  -8.785  10.366  1.00  0.00     0.257 C 
HETATM   15  C   UNL     1      43.000  -7.578  12.442  1.00  0.00     0.041 C 
HETATM   16  C   UNL     1      40.083 -10.173  12.008  1.00  0.00     0.013 C 
HETATM   17  C   UNL     1      40.797  -8.792  13.980  1.00  0.00     0.007 C 
HETATM   18  C   UNL     1      41.526  -7.548  14.482  1.00  0.00     0.001 C 
HETATM   19  C   UNL     1      42.956  -7.483  13.963  1.00  0.00     0.003 C 
HETATM   20  O   UNL     1      41.781  -8.018   9.616  1.00  0.00    -0.270 OA
ENDBRANCH   6   7
ENDBRANCH   3   6
ENDBRANCH   1   2
BRANCH   1  21
HETATM   21  C   UNL     1      41.358 -12.681   5.579  1.00  0.00     0.071 C 
BRANCH  21  22
HETATM   22  C   UNL     1      41.526 -14.129   5.144  1.00  0.00    -0.020 A 
HETATM   23  C   UNL     1      42.204 -14.607   3.969  1.00  0.00    -0.001 A 
HETATM   24  C   UNL     1      42.105 -16.000   3.961  1.00  0.00     0.042 A 
HETATM   25  C   UNL     1      42.898 -13.987   2.909  1.00  0.00     0.014 A 
HETATM   26  C   UNL     1      42.661 -16.800   2.956  1.00  0.00     0.030 A 
HETATM   27  N   UNL     1      41.396 -16.364   5.079  1.00  0.00    -0.365 N 
HETATM   28  C   UNL     1      43.345 -16.158   1.920  1.00  0.00     0.002 A 
HETATM   29  C   UNL     1      43.463 -14.771   1.895  1.00  0.00     0.001 A 
HETATM   30  H   UNL     1      41.173 -17.316   5.331  1.00  0.00     0.165 HD
HETATM   31  C   UNL     1      41.044 -15.254   5.796  1.00  0.00     0.097 A 
ENDBRANCH  21  22
BRANCH  21  32
HETATM   32  C   UNL     1      40.668 -12.016   4.394  1.00  0.00    -0.048 A 
HETATM   33  C   UNL     1      39.450 -12.542   3.930  1.00  0.00     0.011 A 
HETATM   34  C   UNL     1      38.806 -11.990   2.820  1.00  0.00     0.037 A 
HETATM   35  C   UNL     1      39.358 -10.902   2.145  1.00  0.00     0.068 A 
HETATM   36  C   UNL     1      40.564 -10.368   2.596  1.00  0.00     0.037 A 
HETATM   37  C   UNL     1      41.214 -10.921   3.707  1.00  0.00     0.011 A 
BRANCH  35  38
HETATM   38  O   UNL     1      38.633 -10.467   1.071  1.00  0.00    -0.356 OA
HETATM   39  C   UNL     1      37.376 -11.092   0.849  1.00  0.00     0.210 C 
ENDBRANCH  35  38
ENDBRANCH  21  32
ENDBRANCH   1  21
TORSDOF 7
ENDMDL
