MODEL 1
REMARK VINA RESULT:      -8.7      0.000      0.000
REMARK  9 active torsions:
REMARK  status: ('A' for Active; 'I' for Inactive)
REMARK    1  A    between atoms: C_2  and  C_3 
REMARK    2  A    between atoms: C_6  and  C_7 
REMARK    3  A    between atoms: C_7  and  C_8 
REMARK    4  A    between atoms: C_8  and  N_9 
REMARK    5  A    between atoms: N_9  and  C_11 
REMARK    6  A    between atoms: N_9  and  C_25 
REMARK    7  A    between atoms: C_11  and  C_12 
REMARK       I    between atoms: C_12  and  N_13 
REMARK    8  A    between atoms: N_13  and  C_14 
REMARK    9  A    between atoms: C_17  and  N_18 
REMARK       I    between atoms: N_18  and  C_19 
ROOT
HETATM    1  N   UNL     1      42.564 -12.135   6.615  1.00  0.00    -0.056 N 
HETATM    2  H   UNL     1      42.239 -12.499   7.526  1.00  0.00     0.280 HD
ENDROOT
BRANCH   1   3
HETATM    3  C   UNL     1      43.621 -13.160   6.126  1.00  0.00     0.319 C 
BRANCH   3   4
HETATM    4  C   UNL     1      43.423 -14.501   6.815  1.00  0.00     0.187 C 
HETATM    5  O   UNL     1      43.318 -14.481   8.048  1.00  0.00    -0.290 OA
BRANCH   4   6
HETATM    6  C   UNL     1      43.501 -15.753   6.070  1.00  0.00     0.039 A 
HETATM    7  C   UNL     1      43.292 -16.060   4.678  1.00  0.00     0.006 A 
HETATM    8  C   UNL     1      43.628 -17.407   4.497  1.00  0.00     0.049 A 
HETATM    9  C   UNL     1      42.860 -15.339   3.540  1.00  0.00     0.015 A 
HETATM   10  C   UNL     1      43.614 -18.058   3.246  1.00  0.00    -0.031 A 
HETATM   11  N   UNL     1      43.943 -17.919   5.734  1.00  0.00    -0.364 N 
HETATM   12  C   UNL     1      43.200 -17.291   2.146  1.00  0.00     0.009 A 
HETATM   13  C   UNL     1      42.824 -15.961   2.288  1.00  0.00     0.002 A 
HETATM   14  C   UNL     1      43.873 -16.939   6.680  1.00  0.00     0.104 A 
HETATM   15  H   UNL     1      44.196 -18.883   5.907  1.00  0.00     0.165 HD
BRANCH  10  16
HETATM   16  C   UNL     1      43.988 -19.507   3.051  1.00  0.00     0.036 C 
HETATM   17  C   UNL     1      43.235 -20.131   1.886  1.00  0.00     0.010 C 
ENDBRANCH  10  16
ENDBRANCH   4   6
ENDBRANCH   3   4
ENDBRANCH   1   3
BRANCH   1  18
HETATM   18  C   UNL     1      43.211 -10.766   6.931  1.00  0.00     0.338 C 
BRANCH  18  19
HETATM   19  C   UNL     1      43.484 -10.541   8.426  1.00  0.00     0.248 C 
HETATM   20  N   UNL     1      42.660  -9.599   9.010  1.00  0.00    -0.326 N 
HETATM   21  H   UNL     1      42.143  -8.962   8.414  1.00  0.00     0.169 HD
HETATM   22  O   UNL     1      44.333 -11.222   8.998  1.00  0.00    -0.271 OA
BRANCH  20  23
HETATM   23  C   UNL     1      42.512  -9.358  10.395  1.00  0.00     0.034 A 
HETATM   24  C   UNL     1      41.290  -9.696  10.981  1.00  0.00     0.032 A 
HETATM   25  C   UNL     1      41.069  -9.498  12.352  1.00  0.00     0.032 A 
HETATM   26  C   UNL     1      42.073  -8.971  13.163  1.00  0.00     0.034 A 
HETATM   27  C   UNL     1      43.302  -8.650  12.579  1.00  0.00     0.032 A 
HETATM   28  C   UNL     1      43.521  -8.840  11.208  1.00  0.00     0.032 A 
BRANCH  26  29
HETATM   29  N   UNL     1      41.929  -8.727  14.543  1.00  0.00    -0.328 N 
HETATM   30  C   UNL     1      41.317  -7.643  15.146  1.00  0.00     0.218 C 
HETATM   31  C   UNL     1      41.381  -7.699  16.652  1.00  0.00     0.117 C 
HETATM   32  O   UNL     1      40.742  -6.719  14.579  1.00  0.00    -0.274 OA
HETATM   33  H   UNL     1      42.324  -9.424  15.161  1.00  0.00     0.169 HD
ENDBRANCH  26  29
ENDBRANCH  20  23
ENDBRANCH  18  19
ENDBRANCH   1  18
BRANCH   1  34
HETATM   34  C   UNL     1      41.386 -12.016   5.679  1.00  0.00     0.231 C 
HETATM   35  C   UNL     1      40.261 -12.925   6.140  1.00  0.00     0.034 C 
ENDBRANCH   1  34
TORSDOF 9
ENDMDL
MODEL 2
REMARK VINA RESULT:      -8.6      6.410     10.087
REMARK  9 active torsions:
REMARK  status: ('A' for Active; 'I' for Inactive)
REMARK    1  A    between atoms: C_2  and  C_3 
REMARK    2  A    between atoms: C_6  and  C_7 
REMARK    3  A    between atoms: C_7  and  C_8 
REMARK    4  A    between atoms: C_8  and  N_9 
REMARK    5  A    between atoms: N_9  and  C_11 
REMARK    6  A    between atoms: N_9  and  C_25 
REMARK    7  A    between atoms: C_11  and  C_12 
REMARK       I    between atoms: C_12  and  N_13 
REMARK    8  A    between atoms: N_13  and  C_14 
REMARK    9  A    between atoms: C_17  and  N_18 
REMARK       I    between atoms: N_18  and  C_19 
ROOT
HETATM    1  N   UNL     1      40.264 -11.678  -0.673  1.00  0.00    -0.056 N 
HETATM    2  H   UNL     1      40.799 -11.976   0.159  1.00  0.00     0.280 HD
ENDROOT
BRANCH   1   3
HETATM    3  C   UNL     1      39.265 -10.613  -0.150  1.00  0.00     0.319 C 
BRANCH   3   4
HETATM    4  C   UNL     1      39.536 -10.300   1.313  1.00  0.00     0.187 C 
HETATM    5  O   UNL     1      39.588  -9.103   1.624  1.00  0.00    -0.290 OA
BRANCH   4   6
HETATM    6  C   UNL     1      39.862 -11.356   2.265  1.00  0.00     0.039 A 
HETATM    7  C   UNL     1      41.103 -11.742   2.888  1.00  0.00     0.006 A 
HETATM    8  C   UNL     1      40.804 -12.746   3.817  1.00  0.00     0.049 A 
HETATM    9  C   UNL     1      42.455 -11.343   2.775  1.00  0.00     0.015 A 
HETATM   10  C   UNL     1      41.758 -13.332   4.673  1.00  0.00    -0.031 A 
HETATM   11  N   UNL     1      39.461 -13.021   3.703  1.00  0.00    -0.364 N 
HETATM   12  C   UNL     1      43.081 -12.884   4.536  1.00  0.00     0.009 A 
HETATM   13  C   UNL     1      43.427 -11.915   3.603  1.00  0.00     0.002 A 
HETATM   14  C   UNL     1      38.889 -12.195   2.781  1.00  0.00     0.104 A 
HETATM   15  H   UNL     1      38.974 -13.731   4.236  1.00  0.00     0.165 HD
BRANCH  10  16
HETATM   16  C   UNL     1      41.432 -14.407   5.682  1.00  0.00     0.036 C 
HETATM   17  C   UNL     1      42.686 -14.952   6.349  1.00  0.00     0.010 C 
ENDBRANCH  10  16
ENDBRANCH   4   6
ENDBRANCH   3   4
ENDBRANCH   1   3
BRANCH   1  18
HETATM   18  C   UNL     1      39.528 -12.949  -1.161  1.00  0.00     0.338 C 
BRANCH  18  19
HETATM   19  C   UNL     1      40.033 -14.245  -0.509  1.00  0.00     0.248 C 
HETATM   20  N   UNL     1      41.113 -14.064   0.333  1.00  0.00    -0.326 N 
HETATM   21  H   UNL     1      41.644 -13.201   0.273  1.00  0.00     0.169 HD
HETATM   22  O   UNL     1      39.439 -15.300  -0.715  1.00  0.00    -0.271 OA
BRANCH  20  23
HETATM   23  C   UNL     1      41.633 -15.011   1.245  1.00  0.00     0.034 A 
HETATM   24  C   UNL     1      43.015 -15.011   1.456  1.00  0.00     0.032 A 
HETATM   25  C   UNL     1      43.605 -15.913   2.353  1.00  0.00     0.032 A 
HETATM   26  C   UNL     1      42.823 -16.821   3.064  1.00  0.00     0.034 A 
HETATM   27  C   UNL     1      41.439 -16.807   2.866  1.00  0.00     0.032 A 
HETATM   28  C   UNL     1      40.848 -15.912   1.964  1.00  0.00     0.032 A 
BRANCH  26  29
HETATM   29  N   UNL     1      43.337 -17.768   3.972  1.00  0.00    -0.328 N 
HETATM   30  C   UNL     1      43.841 -19.023   3.682  1.00  0.00     0.218 C 
HETATM   31  C   UNL     1      44.273 -19.778   4.915  1.00  0.00     0.117 C 
HETATM   32  O   UNL     1      43.977 -19.516   2.567  1.00  0.00    -0.274 OA
HETATM   33  H   UNL     1      43.330 -17.498   4.948  1.00  0.00     0.169 HD
ENDBRANCH  26  29
ENDBRANCH  20  23
ENDBRANCH  18  19
ENDBRANCH   1  18
BRANCH   1  34
HETATM   34  C   UNL     1      41.219 -11.130  -1.706  1.00  0.00     0.231 C 
HETATM   35  C   UNL     1      40.871 -11.679  -3.079  1.00  0.00     0.034 C 
ENDBRANCH   1  34
TORSDOF 9
ENDMDL
MODEL 3
REMARK VINA RESULT:      -8.5      4.540      8.473
REMARK  9 active torsions:
REMARK  status: ('A' for Active; 'I' for Inactive)
REMARK    1  A    between atoms: C_2  and  C_3 
REMARK    2  A    between atoms: C_6  and  C_7 
REMARK    3  A    between atoms: C_7  and  C_8 
REMARK    4  A    between atoms: C_8  and  N_9 
REMARK    5  A    between atoms: N_9  and  C_11 
REMARK    6  A    between atoms: N_9  and  C_25 
REMARK    7  A    between atoms: C_11  and  C_12 
REMARK       I    between atoms: C_12  and  N_13 
REMARK    8  A    between atoms: N_13  and  C_14 
REMARK    9  A    between atoms: C_17  and  N_18 
REMARK       I    between atoms: N_18  and  C_19 
ROOT
HETATM    1  N   UNL     1      44.143 -12.382   6.242  1.00  0.00    -0.056 N 
HETATM    2  H   UNL     1      44.868 -13.105   6.108  1.00  0.00     0.280 HD
ENDROOT
BRANCH   1   3
HETATM    3  C   UNL     1      42.819 -13.169   6.433  1.00  0.00     0.319 C 
BRANCH   3   4
HETATM    4  C   UNL     1      43.101 -14.572   6.947  1.00  0.00     0.187 C 
HETATM    5  O   UNL     1      43.218 -14.700   8.172  1.00  0.00    -0.290 OA
BRANCH   4   6
HETATM    6  C   UNL     1      43.364 -15.674   6.029  1.00  0.00     0.039 A 
HETATM    7  C   UNL     1      42.740 -16.067   4.791  1.00  0.00     0.006 A 
HETATM    8  C   UNL     1      43.487 -17.131   4.271  1.00  0.00     0.049 A 
HETATM    9  C   UNL     1      41.623 -15.630   4.042  1.00  0.00     0.015 A 
HETATM   10  C   UNL     1      43.220 -17.744   3.030  1.00  0.00    -0.031 A 
HETATM   11  N   UNL     1      44.466 -17.430   5.190  1.00  0.00    -0.364 N 
HETATM   12  C   UNL     1      42.113 -17.257   2.316  1.00  0.00     0.009 A 
HETATM   13  C   UNL     1      41.325 -16.227   2.812  1.00  0.00     0.002 A 
HETATM   14  C   UNL     1      44.403 -16.565   6.242  1.00  0.00     0.104 A 
HETATM   15  H   UNL     1      45.136 -18.181   5.088  1.00  0.00     0.165 HD
BRANCH  10  16
HETATM   16  C   UNL     1      44.033 -18.884   2.465  1.00  0.00     0.036 C 
HETATM   17  C   UNL     1      43.171 -20.105   2.184  1.00  0.00     0.010 C 
ENDBRANCH  10  16
ENDBRANCH   4   6
ENDBRANCH   3   4
ENDBRANCH   1   3
BRANCH   1  18
HETATM   18  C   UNL     1      44.129 -11.568   4.927  1.00  0.00     0.338 C 
BRANCH  18  19
HETATM   19  C   UNL     1      43.306 -12.218   3.806  1.00  0.00     0.248 C 
HETATM   20  N   UNL     1      42.063 -11.645   3.618  1.00  0.00    -0.326 N 
HETATM   21  H   UNL     1      41.682 -11.050   4.347  1.00  0.00     0.169 HD
HETATM   22  O   UNL     1      43.799 -13.123   3.136  1.00  0.00    -0.271 OA
BRANCH  20  23
HETATM   23  C   UNL     1      41.195 -11.864   2.524  1.00  0.00     0.034 A 
HETATM   24  C   UNL     1      39.979 -12.501   2.784  1.00  0.00     0.032 A 
HETATM   25  C   UNL     1      39.060 -12.745   1.753  1.00  0.00     0.032 A 
HETATM   26  C   UNL     1      39.336 -12.343   0.447  1.00  0.00     0.034 A 
HETATM   27  C   UNL     1      40.544 -11.688   0.192  1.00  0.00     0.032 A 
HETATM   28  C   UNL     1      41.468 -11.451   1.219  1.00  0.00     0.032 A 
BRANCH  26  29
HETATM   29  N   UNL     1      38.475 -12.561  -0.647  1.00  0.00    -0.328 N 
HETATM   30  C   UNL     1      38.574 -13.549  -1.610  1.00  0.00     0.218 C 
HETATM   31  C   UNL     1      37.489 -13.456  -2.655  1.00  0.00     0.117 C 
HETATM   32  O   UNL     1      39.407 -14.447  -1.652  1.00  0.00    -0.274 OA
HETATM   33  H   UNL     1      37.700 -11.917  -0.738  1.00  0.00     0.169 HD
ENDBRANCH  26  29
ENDBRANCH  20  23
ENDBRANCH  18  19
ENDBRANCH   1  18
BRANCH   1  34
HETATM   34  C   UNL     1      44.501 -11.538   7.442  1.00  0.00     0.231 C 
HETATM   35  C   UNL     1      45.901 -10.972   7.280  1.00  0.00     0.034 C 
ENDBRANCH   1  34
TORSDOF 9
ENDMDL
MODEL 4
REMARK VINA RESULT:      -8.3      4.583      8.851
REMARK  9 active torsions:
REMARK  status: ('A' for Active; 'I' for Inactive)
REMARK    1  A    between atoms: C_2  and  C_3 
REMARK    2  A    between atoms: C_6  and  C_7 
REMARK    3  A    between atoms: C_7  and  C_8 
REMARK    4  A    between atoms: C_8  and  N_9 
REMARK    5  A    between atoms: N_9  and  C_11 
REMARK    6  A    between atoms: N_9  and  C_25 
REMARK    7  A    between atoms: C_11  and  C_12 
REMARK       I    between atoms: C_12  and  N_13 
REMARK    8  A    between atoms: N_13  and  C_14 
REMARK    9  A    between atoms: C_17  and  N_18 
REMARK       I    between atoms: N_18  and  C_19 
ROOT
HETATM    1  N   UNL     1      42.604 -11.311   5.868  1.00  0.00    -0.056 N 
HETATM    2  H   UNL     1      43.053 -11.216   4.943  1.00  0.00     0.280 HD
ENDROOT
BRANCH   1   3
HETATM    3  C   UNL     1      42.378 -12.835   6.051  1.00  0.00     0.319 C 
BRANCH   3   4
HETATM    4  C   UNL     1      43.120 -13.618   4.980  1.00  0.00     0.187 C 
HETATM    5  O   UNL     1      43.420 -13.001   3.950  1.00  0.00    -0.290 OA
BRANCH   4   6
HETATM    6  C   UNL     1      43.335 -15.055   5.106  1.00  0.00     0.039 A 
HETATM    7  C   UNL     1      43.287 -16.124   4.140  1.00  0.00     0.006 A 
HETATM    8  C   UNL     1      43.704 -17.290   4.794  1.00  0.00     0.049 A 
HETATM    9  C   UNL     1      42.943 -16.233   2.773  1.00  0.00     0.015 A 
HETATM   10  C   UNL     1      43.852 -18.538   4.154  1.00  0.00    -0.031 A 
HETATM   11  N   UNL     1      43.912 -16.965   6.114  1.00  0.00    -0.364 N 
HETATM   12  C   UNL     1      43.519 -18.586   2.791  1.00  0.00     0.009 A 
HETATM   13  C   UNL     1      43.067 -17.461   2.114  1.00  0.00     0.002 A 
HETATM   14  C   UNL     1      43.696 -15.633   6.311  1.00  0.00     0.104 A 
HETATM   15  H   UNL     1      44.191 -17.626   6.829  1.00  0.00     0.165 HD
BRANCH  10  16
HETATM   16  C   UNL     1      44.313 -19.791   4.857  1.00  0.00     0.036 C 
HETATM   17  C   UNL     1      43.909 -21.044   4.097  1.00  0.00     0.010 C 
ENDBRANCH  10  16
ENDBRANCH   4   6
ENDBRANCH   3   4
ENDBRANCH   1   3
BRANCH   1  18
HETATM   18  C   UNL     1      41.261 -10.552   5.750  1.00  0.00     0.338 C 
BRANCH  18  19
HETATM   19  C   UNL     1      40.327 -11.115   4.668  1.00  0.00     0.248 C 
HETATM   20  N   UNL     1      40.908 -11.206   3.418  1.00  0.00    -0.326 N 
HETATM   21  H   UNL     1      41.761 -10.688   3.234  1.00  0.00     0.169 HD
HETATM   22  O   UNL     1      39.197 -11.488   4.975  1.00  0.00    -0.271 OA
BRANCH  20  23
HETATM   23  C   UNL     1      40.387 -11.897   2.300  1.00  0.00     0.034 A 
HETATM   24  C   UNL     1      40.800 -13.218   2.110  1.00  0.00     0.032 A 
HETATM   25  C   UNL     1      40.320 -13.974   1.031  1.00  0.00     0.032 A 
HETATM   26  C   UNL     1      39.409 -13.425   0.130  1.00  0.00     0.034 A 
HETATM   27  C   UNL     1      38.982 -12.109   0.332  1.00  0.00     0.032 A 
HETATM   28  C   UNL     1      39.466 -11.350   1.406  1.00  0.00     0.032 A 
BRANCH  26  29
HETATM   29  N   UNL     1      38.889 -14.110  -0.987  1.00  0.00    -0.328 N 
HETATM   30  C   UNL     1      39.391 -14.118  -2.276  1.00  0.00     0.218 C 
HETATM   31  C   UNL     1      38.552 -14.938  -3.224  1.00  0.00     0.117 C 
HETATM   32  O   UNL     1      40.414 -13.565  -2.665  1.00  0.00    -0.274 OA
HETATM   33  H   UNL     1      38.051 -14.653  -0.825  1.00  0.00     0.169 HD
ENDBRANCH  26  29
ENDBRANCH  20  23
ENDBRANCH  18  19
ENDBRANCH   1  18
BRANCH   1  34
HETATM   34  C   UNL     1      43.511 -10.722   6.922  1.00  0.00     0.231 C 
HETATM   35  C   UNL     1      44.760 -11.572   7.068  1.00  0.00     0.034 C 
ENDBRANCH   1  34
TORSDOF 9
ENDMDL
MODEL 5
REMARK VINA RESULT:      -8.2      4.480      6.976
REMARK  9 active torsions:
REMARK  status: ('A' for Active; 'I' for Inactive)
REMARK    1  A    between atoms: C_2  and  C_3 
REMARK    2  A    between atoms: C_6  and  C_7 
REMARK    3  A    between atoms: C_7  and  C_8 
REMARK    4  A    between atoms: C_8  and  N_9 
REMARK    5  A    between atoms: N_9  and  C_11 
REMARK    6  A    between atoms: N_9  and  C_25 
REMARK    7  A    between atoms: C_11  and  C_12 
REMARK       I    between atoms: C_12  and  N_13 
REMARK    8  A    between atoms: N_13  and  C_14 
REMARK    9  A    between atoms: C_17  and  N_18 
REMARK       I    between atoms: N_18  and  C_19 
ROOT
HETATM    1  N   UNL     1      39.711 -14.012  -0.326  1.00  0.00    -0.056 N 
HETATM    2  H   UNL     1      38.939 -14.640  -0.048  1.00  0.00     0.280 HD
ENDROOT
BRANCH   1   3
HETATM    3  C   UNL     1      40.957 -14.547   0.427  1.00  0.00     0.319 C 
BRANCH   3   4
HETATM    4  C   UNL     1      40.572 -15.689   1.354  1.00  0.00     0.187 C 
HETATM    5  O   UNL     1      39.530 -16.298   1.079  1.00  0.00    -0.290 OA
BRANCH   4   6
HETATM    6  C   UNL     1      41.315 -15.952   2.581  1.00  0.00     0.039 A 
HETATM    7  C   UNL     1      42.341 -16.913   2.898  1.00  0.00     0.006 A 
HETATM    8  C   UNL     1      42.788 -16.627   4.194  1.00  0.00     0.049 A 
HETATM    9  C   UNL     1      42.951 -17.996   2.224  1.00  0.00     0.015 A 
HETATM   10  C   UNL     1      43.840 -17.317   4.831  1.00  0.00    -0.031 A 
HETATM   11  N   UNL     1      42.013 -15.597   4.675  1.00  0.00    -0.364 N 
HETATM   12  C   UNL     1      44.426 -18.369   4.109  1.00  0.00     0.009 A 
HETATM   13  C   UNL     1      43.989 -18.708   2.835  1.00  0.00     0.002 A 
HETATM   14  C   UNL     1      41.132 -15.186   3.719  1.00  0.00     0.104 A 
HETATM   15  H   UNL     1      42.097 -15.205   5.604  1.00  0.00     0.165 HD
BRANCH  10  16
HETATM   16  C   UNL     1      44.329 -17.000   6.223  1.00  0.00     0.036 C 
HETATM   17  C   UNL     1      43.333 -17.442   7.284  1.00  0.00     0.010 C 
ENDBRANCH  10  16
ENDBRANCH   4   6
ENDBRANCH   3   4
ENDBRANCH   1   3
BRANCH   1  18
HETATM   18  C   UNL     1      39.301 -12.611   0.186  1.00  0.00     0.338 C 
BRANCH  18  19
HETATM   19  C   UNL     1      40.417 -11.881   0.950  1.00  0.00     0.248 C 
HETATM   20  N   UNL     1      40.428 -12.139   2.307  1.00  0.00    -0.326 N 
HETATM   21  H   UNL     1      39.605 -12.548   2.736  1.00  0.00     0.169 HD
HETATM   22  O   UNL     1      41.228 -11.196   0.331  1.00  0.00    -0.271 OA
BRANCH  20  23
HETATM   23  C   UNL     1      41.463 -11.812   3.213  1.00  0.00     0.034 A 
HETATM   24  C   UNL     1      41.098 -11.180   4.405  1.00  0.00     0.032 A 
HETATM   25  C   UNL     1      42.065 -10.834   5.360  1.00  0.00     0.032 A 
HETATM   26  C   UNL     1      43.411 -11.125   5.145  1.00  0.00     0.034 A 
HETATM   27  C   UNL     1      43.772 -11.775   3.961  1.00  0.00     0.032 A 
HETATM   28  C   UNL     1      42.808 -12.115   3.002  1.00  0.00     0.032 A 
BRANCH  26  29
HETATM   29  N   UNL     1      44.446 -10.799   6.045  1.00  0.00    -0.328 N 
HETATM   30  C   UNL     1      44.707 -11.381   7.272  1.00  0.00     0.218 C 
HETATM   31  C   UNL     1      45.881 -10.751   7.979  1.00  0.00     0.117 C 
HETATM   32  O   UNL     1      44.109 -12.327   7.774  1.00  0.00    -0.274 OA
HETATM   33  H   UNL     1      45.063 -10.049   5.760  1.00  0.00     0.169 HD
ENDBRANCH  26  29
ENDBRANCH  20  23
ENDBRANCH  18  19
ENDBRANCH   1  18
BRANCH   1  34
HETATM   34  C   UNL     1      39.869 -14.055  -1.827  1.00  0.00     0.231 C 
HETATM   35  C   UNL     1      38.738 -14.856  -2.447  1.00  0.00     0.034 C 
ENDBRANCH   1  34
TORSDOF 9
ENDMDL
MODEL 6
REMARK VINA RESULT:      -8.2      1.599      2.489
REMARK  9 active torsions:
REMARK  status: ('A' for Active; 'I' for Inactive)
REMARK    1  A    between atoms: C_2  and  C_3 
REMARK    2  A    between atoms: C_6  and  C_7 
REMARK    3  A    between atoms: C_7  and  C_8 
REMARK    4  A    between atoms: C_8  and  N_9 
REMARK    5  A    between atoms: N_9  and  C_11 
REMARK    6  A    between atoms: N_9  and  C_25 
REMARK    7  A    between atoms: C_11  and  C_12 
REMARK       I    between atoms: C_12  and  N_13 
REMARK    8  A    between atoms: N_13  and  C_14 
REMARK    9  A    between atoms: C_17  and  N_18 
REMARK       I    between atoms: N_18  and  C_19 
ROOT
HETATM    1  N   UNL     1      43.812 -11.792   6.847  1.00  0.00    -0.056 N 
HETATM    2  H   UNL     1      42.886 -11.345   6.747  1.00  0.00     0.280 HD
ENDROOT
BRANCH   1   3
HETATM    3  C   UNL     1      43.519 -13.314   6.927  1.00  0.00     0.319 C 
BRANCH   3   4
HETATM    4  C   UNL     1      42.563 -13.732   5.821  1.00  0.00     0.187 C 
HETATM    5  O   UNL     1      41.444 -13.202   5.826  1.00  0.00    -0.290 OA
BRANCH   4   6
HETATM    6  C   UNL     1      42.901 -14.807   4.896  1.00  0.00     0.039 A 
HETATM    7  C   UNL     1      43.235 -16.192   5.109  1.00  0.00     0.006 A 
HETATM    8  C   UNL     1      43.342 -16.791   3.848  1.00  0.00     0.049 A 
HETATM    9  C   UNL     1      43.453 -17.015   6.239  1.00  0.00     0.015 A 
HETATM   10  C   UNL     1      43.594 -18.164   3.650  1.00  0.00    -0.031 A 
HETATM   11  N   UNL     1      43.167 -15.800   2.910  1.00  0.00    -0.364 N 
HETATM   12  C   UNL     1      43.779 -18.940   4.805  1.00  0.00     0.009 A 
HETATM   13  C   UNL     1      43.717 -18.378   6.074  1.00  0.00     0.002 A 
HETATM   14  C   UNL     1      42.901 -14.612   3.525  1.00  0.00     0.104 A 
HETATM   15  H   UNL     1      43.223 -15.943   1.909  1.00  0.00     0.165 HD
BRANCH  10  16
HETATM   16  C   UNL     1      43.697 -18.810   2.289  1.00  0.00     0.036 C 
HETATM   17  C   UNL     1      43.464 -20.311   2.360  1.00  0.00     0.010 C 
ENDBRANCH  10  16
ENDBRANCH   4   6
ENDBRANCH   3   4
ENDBRANCH   1   3
BRANCH   1  18
HETATM   18  C   UNL     1      44.382 -11.257   8.182  1.00  0.00     0.338 C 
BRANCH  18  19
HETATM   19  C   UNL     1      43.469 -10.236   8.879  1.00  0.00     0.248 C 
HETATM   20  N   UNL     1      43.214 -10.526  10.205  1.00  0.00    -0.326 N 
HETATM   21  H   UNL     1      43.405 -11.461  10.549  1.00  0.00     0.169 HD
HETATM   22  O   UNL     1      43.089  -9.242   8.264  1.00  0.00    -0.271 OA
BRANCH  20  23
HETATM   23  C   UNL     1      42.620  -9.661  11.152  1.00  0.00     0.034 A 
HETATM   24  C   UNL     1      43.472  -8.855  11.911  1.00  0.00     0.032 A 
HETATM   25  C   UNL     1      42.959  -7.963  12.864  1.00  0.00     0.032 A 
HETATM   26  C   UNL     1      41.584  -7.853  13.065  1.00  0.00     0.034 A 
HETATM   27  C   UNL     1      40.732  -8.647  12.291  1.00  0.00     0.032 A 
HETATM   28  C   UNL     1      41.243  -9.544  11.344  1.00  0.00     0.032 A 
BRANCH  26  29
HETATM   29  N   UNL     1      40.987  -6.994  14.010  1.00  0.00    -0.328 N 
HETATM   30  C   UNL     1      40.812  -7.225  15.362  1.00  0.00     0.218 C 
HETATM   31  C   UNL     1      40.101  -6.092  16.061  1.00  0.00     0.117 C 
HETATM   32  O   UNL     1      41.194  -8.206  15.992  1.00  0.00    -0.274 OA
HETATM   33  H   UNL     1      40.645  -6.111  13.654  1.00  0.00     0.169 HD
ENDBRANCH  26  29
ENDBRANCH  20  23
ENDBRANCH  18  19
ENDBRANCH   1  18
BRANCH   1  34
HETATM   34  C   UNL     1      44.672 -11.422   5.662  1.00  0.00     0.231 C 
HETATM   35  C   UNL     1      46.120 -11.276   6.095  1.00  0.00     0.034 C 
ENDBRANCH   1  34
TORSDOF 9
ENDMDL
MODEL 7
REMARK VINA RESULT:      -8.1      1.719      2.146
REMARK  9 active torsions:
REMARK  status: ('A' for Active; 'I' for Inactive)
REMARK    1  A    between atoms: C_2  and  C_3 
REMARK    2  A    between atoms: C_6  and  C_7 
REMARK    3  A    between atoms: C_7  and  C_8 
REMARK    4  A    between atoms: C_8  and  N_9 
REMARK    5  A    between atoms: N_9  and  C_11 
REMARK    6  A    between atoms: N_9  and  C_25 
REMARK    7  A    between atoms: C_11  and  C_12 
REMARK       I    between atoms: C_12  and  N_13 
REMARK    8  A    between atoms: N_13  and  C_14 
REMARK    9  A    between atoms: C_17  and  N_18 
REMARK       I    between atoms: N_18  and  C_19 
ROOT
HETATM    1  N   UNL     1      42.826 -11.669   4.788  1.00  0.00    -0.056 N 
HETATM    2  H   UNL     1      42.179 -11.610   5.591  1.00  0.00     0.280 HD
ENDROOT
BRANCH   1   3
HETATM    3  C   UNL     1      42.602 -13.085   4.194  1.00  0.00     0.319 C 
BRANCH   3   4
HETATM    4  C   UNL     1      42.052 -14.027   5.253  1.00  0.00     0.187 C 
HETATM    5  O   UNL     1      41.307 -13.528   6.106  1.00  0.00    -0.290 OA
BRANCH   4   6
HETATM    6  C   UNL     1      42.498 -15.413   5.338  1.00  0.00     0.039 A 
HETATM    7  C   UNL     1      42.836 -16.380   4.324  1.00  0.00     0.006 A 
HETATM    8  C   UNL     1      43.326 -17.515   4.983  1.00  0.00     0.049 A 
HETATM    9  C   UNL     1      42.790 -16.418   2.911  1.00  0.00     0.015 A 
HETATM   10  C   UNL     1      43.821 -18.655   4.318  1.00  0.00    -0.031 A 
HETATM   11  N   UNL     1      43.210 -17.284   6.334  1.00  0.00    -0.364 N 
HETATM   12  C   UNL     1      43.773 -18.632   2.915  1.00  0.00     0.009 A 
HETATM   13  C   UNL     1      43.263 -17.541   2.223  1.00  0.00     0.002 A 
HETATM   14  C   UNL     1      42.719 -16.031   6.556  1.00  0.00     0.104 A 
HETATM   15  H   UNL     1      43.462 -17.951   7.052  1.00  0.00     0.165 HD
BRANCH  10  16
HETATM   16  C   UNL     1      44.359 -19.873   5.029  1.00  0.00     0.036 C 
HETATM   17  C   UNL     1      43.917 -21.161   4.352  1.00  0.00     0.010 C 
ENDBRANCH  10  16
ENDBRANCH   4   6
ENDBRANCH   3   4
ENDBRANCH   1   3
BRANCH   1  18
HETATM   18  C   UNL     1      44.242 -11.530   5.394  1.00  0.00     0.338 C 
BRANCH  18  19
HETATM   19  C   UNL     1      44.252 -11.436   6.927  1.00  0.00     0.248 C 
HETATM   20  N   UNL     1      44.244 -10.141   7.409  1.00  0.00    -0.326 N 
HETATM   21  H   UNL     1      44.486  -9.382   6.781  1.00  0.00     0.169 HD
HETATM   22  O   UNL     1      44.206 -12.464   7.599  1.00  0.00    -0.271 OA
BRANCH  20  23
HETATM   23  C   UNL     1      44.010  -9.746   8.746  1.00  0.00     0.034 A 
HETATM   24  C   UNL     1      42.702  -9.399   9.095  1.00  0.00     0.032 A 
HETATM   25  C   UNL     1      42.387  -9.007  10.403  1.00  0.00     0.032 A 
HETATM   26  C   UNL     1      43.371  -8.968  11.389  1.00  0.00     0.034 A 
HETATM   27  C   UNL     1      44.676  -9.334  11.043  1.00  0.00     0.032 A 
HETATM   28  C   UNL     1      44.994  -9.718   9.734  1.00  0.00     0.032 A 
BRANCH  26  29
HETATM   29  N   UNL     1      43.142  -8.572  12.722  1.00  0.00    -0.328 N 
HETATM   30  C   UNL     1      42.735  -7.329  13.172  1.00  0.00     0.218 C 
HETATM   31  C   UNL     1      42.625  -7.259  14.675  1.00  0.00     0.117 C 
HETATM   32  O   UNL     1      42.451  -6.358  12.478  1.00  0.00    -0.274 OA
HETATM   33  H   UNL     1      43.299  -9.279  13.429  1.00  0.00     0.169 HD
ENDBRANCH  26  29
ENDBRANCH  20  23
ENDBRANCH  18  19
ENDBRANCH   1  18
BRANCH   1  34
HETATM   34  C   UNL     1      42.504 -10.565   3.809  1.00  0.00     0.231 C 
HETATM   35  C   UNL     1      41.655  -9.503   4.484  1.00  0.00     0.034 C 
ENDBRANCH   1  34
TORSDOF 9
ENDMDL
MODEL 8
REMARK VINA RESULT:      -8.1      4.744      9.032
REMARK  9 active torsions:
REMARK  status: ('A' for Active; 'I' for Inactive)
REMARK    1  A    between atoms: C_2  and  C_3 
REMARK    2  A    between atoms: C_6  and  C_7 
REMARK    3  A    between atoms: C_7  and  C_8 
REMARK    4  A    between atoms: C_8  and  N_9 
REMARK    5  A    between atoms: N_9  and  C_11 
REMARK    6  A    between atoms: N_9  and  C_25 
REMARK    7  A    between atoms: C_11  and  C_12 
REMARK       I    between atoms: C_12  and  N_13 
REMARK    8  A    between atoms: N_13  and  C_14 
REMARK    9  A    between atoms: C_17  and  N_18 
REMARK       I    between atoms: N_18  and  C_19 
ROOT
HETATM    1  N   UNL     1      41.280 -10.620   5.655  1.00  0.00    -0.056 N 
HETATM    2  H   UNL     1      41.237 -11.619   5.914  1.00  0.00     0.280 HD
ENDROOT
BRANCH   1   3
HETATM    3  C   UNL     1      40.161 -10.431   4.596  1.00  0.00     0.319 C 
BRANCH   3   4
HETATM    4  C   UNL     1      39.699 -11.777   4.061  1.00  0.00     0.187 C 
HETATM    5  O   UNL     1      39.261 -12.583   4.892  1.00  0.00    -0.290 OA
BRANCH   4   6
HETATM    6  C   UNL     1      39.901 -12.145   2.664  1.00  0.00     0.039 A 
HETATM    7  C   UNL     1      39.891 -13.420   1.993  1.00  0.00     0.006 A 
HETATM    8  C   UNL     1      40.015 -13.166   0.621  1.00  0.00     0.049 A 
HETATM    9  C   UNL     1      39.780 -14.771   2.396  1.00  0.00     0.015 A 
HETATM   10  C   UNL     1      39.979 -14.169  -0.369  1.00  0.00    -0.031 A 
HETATM   11  N   UNL     1      40.181 -11.809   0.472  1.00  0.00    -0.364 N 
HETATM   12  C   UNL     1      39.844 -15.491   0.084  1.00  0.00     0.009 A 
HETATM   13  C   UNL     1      39.753 -15.789   1.438  1.00  0.00     0.002 A 
HETATM   14  C   UNL     1      40.113 -11.189   1.685  1.00  0.00     0.104 A 
HETATM   15  H   UNL     1      40.326 -11.345  -0.416  1.00  0.00     0.165 HD
BRANCH  10  16
HETATM   16  C   UNL     1      40.102 -13.892  -1.848  1.00  0.00     0.036 C 
HETATM   17  C   UNL     1      38.806 -14.190  -2.585  1.00  0.00     0.010 C 
ENDBRANCH  10  16
ENDBRANCH   4   6
ENDBRANCH   3   4
ENDBRANCH   1   3
BRANCH   1  18
HETATM   18  C   UNL     1      42.682 -10.419   5.035  1.00  0.00     0.338 C 
BRANCH  18  19
HETATM   19  C   UNL     1      43.206 -11.650   4.278  1.00  0.00     0.248 C 
HETATM   20  N   UNL     1      42.738 -12.852   4.773  1.00  0.00    -0.326 N 
HETATM   21  H   UNL     1      42.323 -12.874   5.698  1.00  0.00     0.169 HD
HETATM   22  O   UNL     1      43.923 -11.497   3.292  1.00  0.00    -0.271 OA
BRANCH  20  23
HETATM   23  C   UNL     1      42.848 -14.115   4.147  1.00  0.00     0.034 A 
HETATM   24  C   UNL     1      42.439 -15.233   4.878  1.00  0.00     0.032 A 
HETATM   25  C   UNL     1      42.507 -16.519   4.324  1.00  0.00     0.032 A 
HETATM   26  C   UNL     1      42.972 -16.707   3.023  1.00  0.00     0.034 A 
HETATM   27  C   UNL     1      43.362 -15.585   2.286  1.00  0.00     0.032 A 
HETATM   28  C   UNL     1      43.303 -14.300   2.841  1.00  0.00     0.032 A 
BRANCH  26  29
HETATM   29  N   UNL     1      43.086 -17.965   2.397  1.00  0.00    -0.328 N 
HETATM   30  C   UNL     1      43.826 -19.053   2.823  1.00  0.00     0.218 C 
HETATM   31  C   UNL     1      43.737 -20.226   1.879  1.00  0.00     0.117 C 
HETATM   32  O   UNL     1      44.479 -19.131   3.858  1.00  0.00    -0.274 OA
HETATM   33  H   UNL     1      42.569 -18.080   1.534  1.00  0.00     0.169 HD
ENDBRANCH  26  29
ENDBRANCH  20  23
ENDBRANCH  18  19
ENDBRANCH   1  18
BRANCH   1  34
HETATM   34  C   UNL     1      41.067  -9.778   6.890  1.00  0.00     0.231 C 
HETATM   35  C   UNL     1      39.685  -9.149   6.860  1.00  0.00     0.034 C 
ENDBRANCH   1  34
TORSDOF 9
ENDMDL
MODEL 9
REMARK VINA RESULT:      -8.0      1.866     11.325
REMARK  9 active torsions:
REMARK  status: ('A' for Active; 'I' for Inactive)
REMARK    1  A    between atoms: C_2  and  C_3 
REMARK    2  A    between atoms: C_6  and  C_7 
REMARK    3  A    between atoms: C_7  and  C_8 
REMARK    4  A    between atoms: C_8  and  N_9 
REMARK    5  A    between atoms: N_9  and  C_11 
REMARK    6  A    between atoms: N_9  and  C_25 
REMARK    7  A    between atoms: C_11  and  C_12 
REMARK       I    between atoms: C_12  and  N_13 
REMARK    8  A    between atoms: N_13  and  C_14 
REMARK    9  A    between atoms: C_17  and  N_18 
REMARK       I    between atoms: N_18  and  C_19 
ROOT
HETATM    1  N   UNL     1      42.895 -10.241   9.402  1.00  0.00    -0.056 N 
HETATM    2  H   UNL     1      42.226 -11.019   9.282  1.00  0.00     0.280 HD
ENDROOT
BRANCH   1   3
HETATM    3  C   UNL     1      42.021  -9.008   9.755  1.00  0.00     0.319 C 
BRANCH   3   4
HETATM    4  C   UNL     1      40.833  -9.423  10.608  1.00  0.00     0.187 C 
HETATM    5  O   UNL     1      39.829  -9.821  10.003  1.00  0.00    -0.290 OA
BRANCH   4   6
HETATM    6  C   UNL     1      40.831  -9.221  12.052  1.00  0.00     0.039 A 
HETATM    7  C   UNL     1      41.690  -8.452  12.918  1.00  0.00     0.006 A 
HETATM    8  C   UNL     1      41.143  -8.518  14.206  1.00  0.00     0.049 A 
HETATM    9  C   UNL     1      42.873  -7.696  12.752  1.00  0.00     0.015 A 
HETATM   10  C   UNL     1      41.671  -7.831  15.318  1.00  0.00    -0.031 A 
HETATM   11  N   UNL     1      40.054  -9.355  14.144  1.00  0.00    -0.364 N 
HETATM   12  C   UNL     1      42.834  -7.077  15.094  1.00  0.00     0.009 A 
HETATM   13  C   UNL     1      43.428  -7.014  13.840  1.00  0.00     0.002 A 
HETATM   14  C   UNL     1      39.858  -9.779  12.863  1.00  0.00     0.104 A 
HETATM   15  H   UNL     1      39.482  -9.610  14.940  1.00  0.00     0.165 HD
BRANCH  10  16
HETATM   16  C   UNL     1      41.074  -7.893  16.703  1.00  0.00     0.036 C 
HETATM   17  C   UNL     1      40.041  -6.798  16.920  1.00  0.00     0.010 C 
ENDBRANCH  10  16
ENDBRANCH   4   6
ENDBRANCH   3   4
ENDBRANCH   1   3
BRANCH   1  18
HETATM   18  C   UNL     1      43.576 -10.073   8.023  1.00  0.00     0.338 C 
BRANCH  18  19
HETATM   19  C   UNL     1      44.027 -11.398   7.391  1.00  0.00     0.248 C 
HETATM   20  N   UNL     1      42.985 -12.194   6.955  1.00  0.00    -0.326 N 
HETATM   21  H   UNL     1      42.047 -12.001   7.289  1.00  0.00     0.169 HD
HETATM   22  O   UNL     1      45.226 -11.633   7.262  1.00  0.00    -0.271 OA
BRANCH  20  23
HETATM   23  C   UNL     1      43.091 -13.336   6.129  1.00  0.00     0.034 A 
HETATM   24  C   UNL     1      43.323 -14.564   6.755  1.00  0.00     0.032 A 
HETATM   25  C   UNL     1      43.430 -15.744   6.006  1.00  0.00     0.032 A 
HETATM   26  C   UNL     1      43.294 -15.719   4.619  1.00  0.00     0.034 A 
HETATM   27  C   UNL     1      43.044 -14.493   3.996  1.00  0.00     0.032 A 
HETATM   28  C   UNL     1      42.944 -13.311   4.742  1.00  0.00     0.032 A 
BRANCH  26  29
HETATM   29  N   UNL     1      43.403 -16.855   3.792  1.00  0.00    -0.328 N 
HETATM   30  C   UNL     1      42.462 -17.338   2.900  1.00  0.00     0.218 C 
HETATM   31  C   UNL     1      42.909 -18.601   2.207  1.00  0.00     0.117 C 
HETATM   32  O   UNL     1      41.379 -16.829   2.633  1.00  0.00    -0.274 OA
HETATM   33  H   UNL     1      44.266 -17.378   3.865  1.00  0.00     0.169 HD
ENDBRANCH  26  29
ENDBRANCH  20  23
ENDBRANCH  18  19
ENDBRANCH   1  18
BRANCH   1  34
HETATM   34  C   UNL     1      43.877 -10.595  10.493  1.00  0.00     0.231 C 
HETATM   35  C   UNL     1      45.083  -9.675  10.426  1.00  0.00     0.034 C 
ENDBRANCH   1  34
TORSDOF 9
ENDMDL
MODEL 10
REMARK VINA RESULT:      -7.8      1.576      2.178
REMARK  9 active torsions:
REMARK  status: ('A' for Active; 'I' for Inactive)
REMARK    1  A    between atoms: C_2  and  C_3 
REMARK    2  A    between atoms: C_6  and  C_7 
REMARK    3  A    between atoms: C_7  and  C_8 
REMARK    4  A    between atoms: C_8  and  N_9 
REMARK    5  A    between atoms: N_9  and  C_11 
REMARK    6  A    between atoms: N_9  and  C_25 
REMARK    7  A    between atoms: C_11  and  C_12 
REMARK       I    between atoms: C_12  and  N_13 
REMARK    8  A    between atoms: N_13  and  C_14 
REMARK    9  A    between atoms: C_17  and  N_18 
REMARK       I    between atoms: N_18  and  C_19 
ROOT
HETATM    1  N   UNL     1      42.188 -10.457   7.337  1.00  0.00    -0.056 N 
HETATM    2  H   UNL     1      41.759 -11.150   7.972  1.00  0.00     0.280 HD
ENDROOT
BRANCH   1   3
HETATM    3  C   UNL     1      42.453 -11.229   6.018  1.00  0.00     0.319 C 
BRANCH   3   4
HETATM    4  C   UNL     1      41.579 -12.470   5.941  1.00  0.00     0.187 C 
HETATM    5  O   UNL     1      40.383 -12.325   6.225  1.00  0.00    -0.290 OA
BRANCH   4   6
HETATM    6  C   UNL     1      42.155 -13.786   5.688  1.00  0.00     0.039 A 
HETATM    7  C   UNL     1      41.898 -14.769   4.666  1.00  0.00     0.006 A 
HETATM    8  C   UNL     1      42.837 -15.795   4.834  1.00  0.00     0.049 A 
HETATM    9  C   UNL     1      40.974 -14.902   3.604  1.00  0.00     0.015 A 
HETATM   10  C   UNL     1      42.944 -16.909   3.977  1.00  0.00    -0.031 A 
HETATM   11  N   UNL     1      43.573 -15.494   5.956  1.00  0.00    -0.364 N 
HETATM   12  C   UNL     1      42.017 -16.981   2.925  1.00  0.00     0.009 A 
HETATM   13  C   UNL     1      41.047 -16.003   2.743  1.00  0.00     0.002 A 
HETATM   14  C   UNL     1      43.176 -14.296   6.472  1.00  0.00     0.104 A 
HETATM   15  H   UNL     1      44.307 -16.080   6.334  1.00  0.00     0.165 HD
BRANCH  10  16
HETATM   16  C   UNL     1      43.964 -18.008   4.153  1.00  0.00     0.036 C 
HETATM   17  C   UNL     1      44.012 -18.930   2.944  1.00  0.00     0.010 C 
ENDBRANCH  10  16
ENDBRANCH   4   6
ENDBRANCH   3   4
ENDBRANCH   1   3
BRANCH   1  18
HETATM   18  C   UNL     1      43.511 -10.041   8.022  1.00  0.00     0.338 C 
BRANCH  18  19
HETATM   19  C   UNL     1      43.472 -10.143   9.555  1.00  0.00     0.248 C 
HETATM   20  N   UNL     1      42.924  -9.038  10.176  1.00  0.00    -0.326 N 
HETATM   21  H   UNL     1      42.830  -8.175   9.650  1.00  0.00     0.169 HD
HETATM   22  O   UNL     1      43.855 -11.173  10.105  1.00  0.00    -0.271 OA
BRANCH  20  23
HETATM   23  C   UNL     1      42.538  -8.944  11.532  1.00  0.00     0.034 A 
HETATM   24  C   UNL     1      43.301  -8.118  12.363  1.00  0.00     0.032 A 
HETATM   25  C   UNL     1      42.976  -7.965  13.719  1.00  0.00     0.032 A 
HETATM   26  C   UNL     1      41.875  -8.623  14.263  1.00  0.00     0.034 A 
HETATM   27  C   UNL     1      41.101  -9.434  13.427  1.00  0.00     0.032 A 
HETATM   28  C   UNL     1      41.429  -9.595  12.074  1.00  0.00     0.032 A 
BRANCH  26  29
HETATM   29  N   UNL     1      41.488  -8.535  15.616  1.00  0.00    -0.328 N 
HETATM   30  C   UNL     1      40.866  -7.472  16.244  1.00  0.00     0.218 C 
HETATM   31  C   UNL     1      40.633  -7.718  17.714  1.00  0.00     0.117 C 
HETATM   32  O   UNL     1      40.493  -6.429  15.718  1.00  0.00    -0.274 OA
HETATM   33  H   UNL     1      41.695  -9.342  16.191  1.00  0.00     0.169 HD
ENDBRANCH  26  29
ENDBRANCH  20  23
ENDBRANCH  18  19
ENDBRANCH   1  18
BRANCH   1  34
HETATM   34  C   UNL     1      41.240  -9.295   7.157  1.00  0.00     0.231 C 
HETATM   35  C   UNL     1      40.064  -9.431   8.107  1.00  0.00     0.034 C 
ENDBRANCH   1  34
TORSDOF 9
ENDMDL
