MODEL 1
REMARK VINA RESULT:      -8.6      0.000      0.000
REMARK  5 active torsions:
REMARK  status: ('A' for Active; 'I' for Inactive)
REMARK    1  A    between atoms: O_2  and  C_3 
REMARK    2  A    between atoms: C_7  and  C_8 
REMARK    3  A    between atoms: C_8  and  N_9 
REMARK       I    between atoms: N_9  and  C_10 
REMARK       I    between atoms: C_10  and  N_12 
REMARK    4  A    between atoms: N_12  and  C_13 
REMARK    5  A    between atoms: C_16  and  C_19 
ROOT
HETATM    1  N   UNL     1      43.583 -11.575   8.055  1.00  0.00    -0.339 N 
HETATM    2  C   UNL     1      43.971 -12.548   7.156  1.00  0.00     0.320 C 
HETATM    3  O   UNL     1      44.967 -12.425   6.456  1.00  0.00    -0.247 OA
HETATM    4  N   UNL     1      43.123 -13.632   7.201  1.00  0.00    -0.309 N 
HETATM    5  H   UNL     1      42.595 -11.494   8.236  1.00  0.00     0.164 HD
HETATM    6  H   UNL     1      42.419 -13.605   7.922  1.00  0.00     0.170 HD
ENDROOT
BRANCH   4   7
HETATM    7  C   UNL     1      43.215 -14.823   6.452  1.00  0.00     0.036 A 
HETATM    8  C   UNL     1      42.899 -14.918   5.097  1.00  0.00     0.030 A 
HETATM    9  C   UNL     1      43.040 -16.133   4.414  1.00  0.00     0.014 A 
HETATM   10  C   UNL     1      43.494 -17.288   5.067  1.00  0.00    -0.026 A 
HETATM   11  C   UNL     1      43.794 -17.188   6.433  1.00  0.00     0.014 A 
HETATM   12  C   UNL     1      43.658 -15.972   7.116  1.00  0.00     0.030 A 
BRANCH  10  13
HETATM   13  C   UNL     1      43.654 -18.555   4.338  1.00  0.00    -0.023 A 
HETATM   14  C   UNL     1      43.512 -18.612   2.946  1.00  0.00     0.031 A 
HETATM   15  C   UNL     1      43.667 -19.828   2.300  1.00  0.00     0.117 A 
HETATM   16  N   UNL     1      43.950 -20.984   2.934  1.00  0.00    -0.273 NA
HETATM   17  C   UNL     1      44.081 -20.918   4.275  1.00  0.00     0.117 A 
HETATM   18  C   UNL     1      43.947 -19.748   5.008  1.00  0.00     0.031 A 
ENDBRANCH  10  13
ENDBRANCH   4   7
BRANCH   1  19
HETATM   19  C   UNL     1      44.340 -10.342   8.122  1.00  0.00     0.163 C 
BRANCH  19  20
HETATM   20  C   UNL     1      43.902  -9.465   9.266  1.00  0.00    -0.038 A 
HETATM   21  C   UNL     1      43.688  -8.092   9.083  1.00  0.00     0.009 A 
HETATM   22  C   UNL     1      43.214  -7.303  10.131  1.00  0.00     0.003 A 
HETATM   23  C   UNL     1      42.925  -7.879  11.370  1.00  0.00     0.037 A 
HETATM   24  C   UNL     1      43.108  -9.248  11.562  1.00  0.00     0.068 A 
HETATM   25  C   UNL     1      43.608 -10.030  10.516  1.00  0.00     0.045 A 
BRANCH  24  26
HETATM   26  O   UNL     1      42.844  -9.935  12.716  1.00  0.00    -0.356 OA
HETATM   27  C   UNL     1      42.036  -9.264  13.676  1.00  0.00     0.210 C 
ENDBRANCH  24  26
ENDBRANCH  19  20
ENDBRANCH   1  19
TORSDOF 5
ENDMDL
MODEL 2
REMARK VINA RESULT:      -8.6      1.052      1.995
REMARK  5 active torsions:
REMARK  status: ('A' for Active; 'I' for Inactive)
REMARK    1  A    between atoms: O_2  and  C_3 
REMARK    2  A    between atoms: C_7  and  C_8 
REMARK    3  A    between atoms: C_8  and  N_9 
REMARK       I    between atoms: N_9  and  C_10 
REMARK       I    between atoms: C_10  and  N_12 
REMARK    4  A    between atoms: N_12  and  C_13 
REMARK    5  A    between atoms: C_16  and  C_19 
ROOT
HETATM    1  N   UNL     1      43.313 -11.438   7.817  1.00  0.00    -0.339 N 
HETATM    2  C   UNL     1      43.869 -12.504   7.138  1.00  0.00     0.320 C 
HETATM    3  O   UNL     1      45.037 -12.503   6.774  1.00  0.00    -0.247 OA
HETATM    4  N   UNL     1      42.956 -13.522   6.980  1.00  0.00    -0.309 N 
HETATM    5  H   UNL     1      42.328 -11.278   7.680  1.00  0.00     0.164 HD
HETATM    6  H   UNL     1      42.072 -13.392   7.446  1.00  0.00     0.170 HD
ENDROOT
BRANCH   4   7
HETATM    7  C   UNL     1      43.166 -14.774   6.364  1.00  0.00     0.036 A 
HETATM    8  C   UNL     1      43.567 -15.920   7.049  1.00  0.00     0.030 A 
HETATM    9  C   UNL     1      43.731 -17.136   6.372  1.00  0.00     0.014 A 
HETATM   10  C   UNL     1      43.506 -17.238   4.992  1.00  0.00    -0.026 A 
HETATM   11  C   UNL     1      43.119 -16.077   4.309  1.00  0.00     0.014 A 
HETATM   12  C   UNL     1      42.949 -14.861   4.985  1.00  0.00     0.030 A 
BRANCH  10  13
HETATM   13  C   UNL     1      43.665 -18.522   4.292  1.00  0.00    -0.023 A 
HETATM   14  C   UNL     1      43.500 -18.614   2.904  1.00  0.00     0.031 A 
HETATM   15  C   UNL     1      43.656 -19.844   2.286  1.00  0.00     0.117 A 
HETATM   16  N   UNL     1      43.959 -20.982   2.944  1.00  0.00    -0.273 NA
HETATM   17  C   UNL     1      44.113 -20.881   4.280  1.00  0.00     0.117 A 
HETATM   18  C   UNL     1      43.980 -19.695   4.986  1.00  0.00     0.031 A 
ENDBRANCH  10  13
ENDBRANCH   4   7
BRANCH   1  19
HETATM   19  C   UNL     1      44.118 -10.256   8.044  1.00  0.00     0.163 C 
BRANCH  19  20
HETATM   20  C   UNL     1      43.749  -9.551   9.324  1.00  0.00    -0.038 A 
HETATM   21  C   UNL     1      43.874 -10.192  10.564  1.00  0.00     0.009 A 
HETATM   22  C   UNL     1      43.597  -9.505  11.746  1.00  0.00     0.003 A 
HETATM   23  C   UNL     1      43.216  -8.162  11.707  1.00  0.00     0.037 A 
HETATM   24  C   UNL     1      43.112  -7.502  10.484  1.00  0.00     0.068 A 
HETATM   25  C   UNL     1      43.364  -8.202   9.300  1.00  0.00     0.045 A 
BRANCH  24  26
HETATM   26  O   UNL     1      42.768  -6.189  10.312  1.00  0.00    -0.356 OA
HETATM   27  C   UNL     1      42.110  -5.865   9.092  1.00  0.00     0.210 C 
ENDBRANCH  24  26
ENDBRANCH  19  20
ENDBRANCH   1  19
TORSDOF 5
ENDMDL
MODEL 3
REMARK VINA RESULT:      -7.9      7.472      9.015
REMARK  5 active torsions:
REMARK  status: ('A' for Active; 'I' for Inactive)
REMARK    1  A    between atoms: O_2  and  C_3 
REMARK    2  A    between atoms: C_7  and  C_8 
REMARK    3  A    between atoms: C_8  and  N_9 
REMARK       I    between atoms: N_9  and  C_10 
REMARK       I    between atoms: C_10  and  N_12 
REMARK    4  A    between atoms: N_12  and  C_13 
REMARK    5  A    between atoms: C_16  and  C_19 
ROOT
HETATM    1  N   UNL     1      40.029 -11.760  -0.427  1.00  0.00    -0.339 N 
HETATM    2  C   UNL     1      40.551 -13.035  -0.332  1.00  0.00     0.320 C 
HETATM    3  O   UNL     1      40.655 -13.768  -1.307  1.00  0.00    -0.247 OA
HETATM    4  N   UNL     1      40.948 -13.314   0.957  1.00  0.00    -0.309 N 
HETATM    5  H   UNL     1      39.550 -11.406   0.386  1.00  0.00     0.164 HD
HETATM    6  H   UNL     1      40.891 -12.546   1.607  1.00  0.00     0.170 HD
ENDROOT
BRANCH   4   7
HETATM    7  C   UNL     1      41.549 -14.498   1.430  1.00  0.00     0.036 A 
HETATM    8  C   UNL     1      42.925 -14.664   1.587  1.00  0.00     0.030 A 
HETATM    9  C   UNL     1      43.447 -15.863   2.088  1.00  0.00     0.014 A 
HETATM   10  C   UNL     1      42.611 -16.932   2.440  1.00  0.00    -0.026 A 
HETATM   11  C   UNL     1      41.231 -16.763   2.264  1.00  0.00     0.014 A 
HETATM   12  C   UNL     1      40.706 -15.563   1.768  1.00  0.00     0.030 A 
BRANCH  10  13
HETATM   13  C   UNL     1      43.167 -18.182   2.980  1.00  0.00    -0.023 A 
HETATM   14  C   UNL     1      43.134 -19.369   2.237  1.00  0.00     0.031 A 
HETATM   15  C   UNL     1      43.666 -20.525   2.785  1.00  0.00     0.117 A 
HETATM   16  N   UNL     1      44.222 -20.586   4.013  1.00  0.00    -0.273 NA
HETATM   17  C   UNL     1      44.245 -19.437   4.720  1.00  0.00     0.117 A 
HETATM   18  C   UNL     1      43.742 -18.232   4.255  1.00  0.00     0.031 A 
ENDBRANCH  10  13
ENDBRANCH   4   7
BRANCH   1  19
HETATM   19  C   UNL     1      39.525 -11.304  -1.705  1.00  0.00     0.163 C 
BRANCH  19  20
HETATM   20  C   UNL     1      40.384 -10.221  -2.304  1.00  0.00    -0.038 A 
HETATM   21  C   UNL     1      40.091  -9.680  -3.563  1.00  0.00     0.009 A 
HETATM   22  C   UNL     1      40.851  -8.628  -4.076  1.00  0.00     0.003 A 
HETATM   23  C   UNL     1      41.898  -8.086  -3.327  1.00  0.00     0.037 A 
HETATM   24  C   UNL     1      42.187  -8.595  -2.061  1.00  0.00     0.068 A 
HETATM   25  C   UNL     1      41.439  -9.667  -1.563  1.00  0.00     0.045 A 
BRANCH  24  26
HETATM   26  O   UNL     1      43.169  -8.142  -1.223  1.00  0.00    -0.356 OA
HETATM   27  C   UNL     1      43.225  -6.734  -1.025  1.00  0.00     0.210 C 
ENDBRANCH  24  26
ENDBRANCH  19  20
ENDBRANCH   1  19
TORSDOF 5
ENDMDL
MODEL 4
REMARK VINA RESULT:      -7.7      2.594      2.845
REMARK  5 active torsions:
REMARK  status: ('A' for Active; 'I' for Inactive)
REMARK    1  A    between atoms: O_2  and  C_3 
REMARK    2  A    between atoms: C_7  and  C_8 
REMARK    3  A    between atoms: C_8  and  N_9 
REMARK       I    between atoms: N_9  and  C_10 
REMARK       I    between atoms: C_10  and  N_12 
REMARK    4  A    between atoms: N_12  and  C_13 
REMARK    5  A    between atoms: C_16  and  C_19 
ROOT
HETATM    1  N   UNL     1      43.012 -11.493   7.447  1.00  0.00    -0.339 N 
HETATM    2  C   UNL     1      43.164 -12.431   6.446  1.00  0.00     0.320 C 
HETATM    3  O   UNL     1      43.480 -12.118   5.306  1.00  0.00    -0.247 OA
HETATM    4  N   UNL     1      42.951 -13.706   6.922  1.00  0.00    -0.309 N 
HETATM    5  H   UNL     1      42.342 -11.707   8.169  1.00  0.00     0.164 HD
HETATM    6  H   UNL     1      42.812 -13.781   7.918  1.00  0.00     0.170 HD
ENDROOT
BRANCH   4   7
HETATM    7  C   UNL     1      43.044 -14.916   6.204  1.00  0.00     0.036 A 
HETATM    8  C   UNL     1      42.082 -15.360   5.298  1.00  0.00     0.030 A 
HETATM    9  C   UNL     1      42.257 -16.563   4.602  1.00  0.00     0.014 A 
HETATM   10  C   UNL     1      43.395 -17.358   4.797  1.00  0.00    -0.026 A 
HETATM   11  C   UNL     1      44.350 -16.913   5.721  1.00  0.00     0.014 A 
HETATM   12  C   UNL     1      44.179 -15.707   6.414  1.00  0.00     0.030 A 
BRANCH  10  13
HETATM   13  C   UNL     1      43.579 -18.612   4.050  1.00  0.00    -0.023 A 
HETATM   14  C   UNL     1      43.326 -18.678   2.674  1.00  0.00     0.031 A 
HETATM   15  C   UNL     1      43.508 -19.880   2.010  1.00  0.00     0.117 A 
HETATM   16  N   UNL     1      43.918 -21.016   2.613  1.00  0.00    -0.273 NA
HETATM   17  C   UNL     1      44.155 -20.941   3.938  1.00  0.00     0.117 A 
HETATM   18  C   UNL     1      44.004 -19.783   4.687  1.00  0.00     0.031 A 
ENDBRANCH  10  13
ENDBRANCH   4   7
BRANCH   1  19
HETATM   19  C   UNL     1      43.164 -10.091   7.122  1.00  0.00     0.163 C 
BRANCH  19  20
HETATM   20  C   UNL     1      41.838  -9.402   6.930  1.00  0.00    -0.038 A 
HETATM   21  C   UNL     1      41.514  -8.782   5.716  1.00  0.00     0.009 A 
HETATM   22  C   UNL     1      40.255  -8.211   5.527  1.00  0.00     0.003 A 
HETATM   23  C   UNL     1      39.296  -8.272   6.538  1.00  0.00     0.037 A 
HETATM   24  C   UNL     1      39.592  -8.907   7.744  1.00  0.00     0.068 A 
HETATM   25  C   UNL     1      40.863  -9.455   7.939  1.00  0.00     0.045 A 
BRANCH  24  26
HETATM   26  O   UNL     1      38.736  -9.051   8.802  1.00  0.00    -0.356 OA
HETATM   27  C   UNL     1      39.262  -9.707   9.950  1.00  0.00     0.210 C 
ENDBRANCH  24  26
ENDBRANCH  19  20
ENDBRANCH   1  19
TORSDOF 5
ENDMDL
MODEL 5
REMARK VINA RESULT:      -7.5      4.077      4.967
REMARK  5 active torsions:
REMARK  status: ('A' for Active; 'I' for Inactive)
REMARK    1  A    between atoms: O_2  and  C_3 
REMARK    2  A    between atoms: C_7  and  C_8 
REMARK    3  A    between atoms: C_8  and  N_9 
REMARK       I    between atoms: N_9  and  C_10 
REMARK       I    between atoms: C_10  and  N_12 
REMARK    4  A    between atoms: N_12  and  C_13 
REMARK    5  A    between atoms: C_16  and  C_19 
ROOT
HETATM    1  N   UNL     1      41.801 -10.685   2.360  1.00  0.00    -0.339 N 
HETATM    2  C   UNL     1      41.605 -12.038   2.548  1.00  0.00     0.320 C 
HETATM    3  O   UNL     1      40.488 -12.537   2.558  1.00  0.00    -0.247 OA
HETATM    4  N   UNL     1      42.806 -12.701   2.676  1.00  0.00    -0.309 N 
HETATM    5  H   UNL     1      42.610 -10.279   2.803  1.00  0.00     0.164 HD
HETATM    6  H   UNL     1      43.631 -12.141   2.526  1.00  0.00     0.170 HD
ENDROOT
BRANCH   4   7
HETATM    7  C   UNL     1      43.005 -14.086   2.851  1.00  0.00     0.036 A 
HETATM    8  C   UNL     1      43.008 -14.721   4.093  1.00  0.00     0.030 A 
HETATM    9  C   UNL     1      43.188 -16.107   4.185  1.00  0.00     0.014 A 
HETATM   10  C   UNL     1      43.377 -16.896   3.041  1.00  0.00    -0.026 A 
HETATM   11  C   UNL     1      43.390 -16.247   1.799  1.00  0.00     0.014 A 
HETATM   12  C   UNL     1      43.205 -14.861   1.704  1.00  0.00     0.030 A 
BRANCH  10  13
HETATM   13  C   UNL     1      43.550 -18.353   3.147  1.00  0.00    -0.023 A 
HETATM   14  C   UNL     1      44.032 -18.940   4.324  1.00  0.00     0.031 A 
HETATM   15  C   UNL     1      44.183 -20.316   4.378  1.00  0.00     0.117 A 
HETATM   16  N   UNL     1      43.894 -21.145   3.353  1.00  0.00    -0.273 NA
HETATM   17  C   UNL     1      43.434 -20.567   2.225  1.00  0.00     0.117 A 
HETATM   18  C   UNL     1      43.247 -19.201   2.076  1.00  0.00     0.031 A 
ENDBRANCH  10  13
ENDBRANCH   4   7
BRANCH   1  19
HETATM   19  C   UNL     1      40.646  -9.820   2.241  1.00  0.00     0.163 C 
BRANCH  19  20
HETATM   20  C   UNL     1      40.119  -9.383   3.583  1.00  0.00    -0.038 A 
HETATM   21  C   UNL     1      38.773  -9.567   3.926  1.00  0.00     0.009 A 
HETATM   22  C   UNL     1      38.314  -9.223   5.198  1.00  0.00     0.003 A 
HETATM   23  C   UNL     1      39.197  -8.714   6.151  1.00  0.00     0.037 A 
HETATM   24  C   UNL     1      40.545  -8.548   5.836  1.00  0.00     0.068 A 
HETATM   25  C   UNL     1      40.995  -8.869   4.551  1.00  0.00     0.045 A 
BRANCH  24  26
HETATM   26  O   UNL     1      41.512  -8.080   6.683  1.00  0.00    -0.356 OA
HETATM   27  C   UNL     1      41.786  -8.880   7.827  1.00  0.00     0.210 C 
ENDBRANCH  24  26
ENDBRANCH  19  20
ENDBRANCH   1  19
TORSDOF 5
ENDMDL
MODEL 6
REMARK VINA RESULT:      -7.5      2.469      2.989
REMARK  5 active torsions:
REMARK  status: ('A' for Active; 'I' for Inactive)
REMARK    1  A    between atoms: O_2  and  C_3 
REMARK    2  A    between atoms: C_7  and  C_8 
REMARK    3  A    between atoms: C_8  and  N_9 
REMARK       I    between atoms: N_9  and  C_10 
REMARK       I    between atoms: C_10  and  N_12 
REMARK    4  A    between atoms: N_12  and  C_13 
REMARK    5  A    between atoms: C_16  and  C_19 
ROOT
HETATM    1  N   UNL     1      41.698 -11.207   5.919  1.00  0.00    -0.339 N 
HETATM    2  C   UNL     1      41.536 -12.529   5.556  1.00  0.00     0.320 C 
HETATM    3  O   UNL     1      40.430 -13.020   5.372  1.00  0.00    -0.247 OA
HETATM    4  N   UNL     1      42.752 -13.156   5.408  1.00  0.00    -0.309 N 
HETATM    5  H   UNL     1      42.504 -10.988   6.484  1.00  0.00     0.164 HD
HETATM    6  H   UNL     1      43.562 -12.561   5.488  1.00  0.00     0.170 HD
ENDROOT
BRANCH   4   7
HETATM    7  C   UNL     1      42.986 -14.492   5.020  1.00  0.00     0.036 A 
HETATM    8  C   UNL     1      43.316 -15.514   5.909  1.00  0.00     0.030 A 
HETATM    9  C   UNL     1      43.508 -16.824   5.451  1.00  0.00     0.014 A 
HETATM   10  C   UNL     1      43.384 -17.147   4.092  1.00  0.00    -0.026 A 
HETATM   11  C   UNL     1      43.068 -16.110   3.203  1.00  0.00     0.014 A 
HETATM   12  C   UNL     1      42.870 -14.801   3.660  1.00  0.00     0.030 A 
BRANCH  10  13
HETATM   13  C   UNL     1      43.572 -18.528   3.622  1.00  0.00    -0.023 A 
HETATM   14  C   UNL     1      44.019 -19.533   4.490  1.00  0.00     0.031 A 
HETATM   15  C   UNL     1      44.187 -20.819   4.005  1.00  0.00     0.117 A 
HETATM   16  N   UNL     1      43.946 -21.177   2.726  1.00  0.00    -0.273 NA
HETATM   17  C   UNL     1      43.519 -20.201   1.900  1.00  0.00     0.117 A 
HETATM   18  C   UNL     1      43.319 -18.886   2.293  1.00  0.00     0.031 A 
ENDBRANCH  10  13
ENDBRANCH   4   7
BRANCH   1  19
HETATM   19  C   UNL     1      40.522 -10.396   6.156  1.00  0.00     0.163 C 
BRANCH  19  20
HETATM   20  C   UNL     1      40.476  -9.853   7.560  1.00  0.00    -0.038 A 
HETATM   21  C   UNL     1      39.307  -9.932   8.328  1.00  0.00     0.009 A 
HETATM   22  C   UNL     1      39.298  -9.491   9.651  1.00  0.00     0.003 A 
HETATM   23  C   UNL     1      40.463  -8.986  10.233  1.00  0.00     0.037 A 
HETATM   24  C   UNL     1      41.642  -8.923   9.491  1.00  0.00     0.068 A 
HETATM   25  C   UNL     1      41.639  -9.342   8.157  1.00  0.00     0.045 A 
BRANCH  24  26
HETATM   26  O   UNL     1      42.849  -8.470   9.948  1.00  0.00    -0.356 OA
HETATM   27  C   UNL     1      42.831  -7.234  10.654  1.00  0.00     0.210 C 
ENDBRANCH  24  26
ENDBRANCH  19  20
ENDBRANCH   1  19
TORSDOF 5
ENDMDL
MODEL 7
REMARK VINA RESULT:      -7.5      2.169      2.576
REMARK  5 active torsions:
REMARK  status: ('A' for Active; 'I' for Inactive)
REMARK    1  A    between atoms: O_2  and  C_3 
REMARK    2  A    between atoms: C_7  and  C_8 
REMARK    3  A    between atoms: C_8  and  N_9 
REMARK       I    between atoms: N_9  and  C_10 
REMARK       I    between atoms: C_10  and  N_12 
REMARK    4  A    between atoms: N_12  and  C_13 
REMARK    5  A    between atoms: C_16  and  C_19 
ROOT
HETATM    1  N   UNL     1      41.582 -11.262   6.784  1.00  0.00    -0.339 N 
HETATM    2  C   UNL     1      41.921 -12.221   5.850  1.00  0.00     0.320 C 
HETATM    3  O   UNL     1      42.275 -11.925   4.716  1.00  0.00    -0.247 OA
HETATM    4  N   UNL     1      41.836 -13.487   6.385  1.00  0.00    -0.309 N 
HETATM    5  H   UNL     1      40.895 -11.525   7.473  1.00  0.00     0.164 HD
HETATM    6  H   UNL     1      41.638 -13.531   7.372  1.00  0.00     0.170 HD
ENDROOT
BRANCH   4   7
HETATM    7  C   UNL     1      42.131 -14.709   5.745  1.00  0.00     0.036 A 
HETATM    8  C   UNL     1      41.291 -15.325   4.819  1.00  0.00     0.030 A 
HETATM    9  C   UNL     1      41.665 -16.527   4.205  1.00  0.00     0.014 A 
HETATM   10  C   UNL     1      42.885 -17.151   4.505  1.00  0.00    -0.026 A 
HETATM   11  C   UNL     1      43.716 -16.532   5.449  1.00  0.00     0.014 A 
HETATM   12  C   UNL     1      43.346 -15.327   6.060  1.00  0.00     0.030 A 
BRANCH  10  13
HETATM   13  C   UNL     1      43.276 -18.405   3.844  1.00  0.00    -0.023 A 
HETATM   14  C   UNL     1      43.019 -18.617   2.483  1.00  0.00     0.031 A 
HETATM   15  C   UNL     1      43.401 -19.815   1.902  1.00  0.00     0.117 A 
HETATM   16  N   UNL     1      44.014 -20.812   2.572  1.00  0.00    -0.273 NA
HETATM   17  C   UNL     1      44.254 -20.598   3.882  1.00  0.00     0.117 A 
HETATM   18  C   UNL     1      43.912 -19.432   4.550  1.00  0.00     0.031 A 
ENDBRANCH  10  13
ENDBRANCH   4   7
BRANCH   1  19
HETATM   19  C   UNL     1      41.579  -9.869   6.388  1.00  0.00     0.163 C 
BRANCH  19  20
HETATM   20  C   UNL     1      42.490  -9.030   7.245  1.00  0.00    -0.038 A 
HETATM   21  C   UNL     1      42.051  -7.819   7.797  1.00  0.00     0.009 A 
HETATM   22  C   UNL     1      42.879  -7.087   8.647  1.00  0.00     0.003 A 
HETATM   23  C   UNL     1      44.149  -7.565   8.977  1.00  0.00     0.037 A 
HETATM   24  C   UNL     1      44.593  -8.781   8.457  1.00  0.00     0.068 A 
HETATM   25  C   UNL     1      43.768  -9.498   7.584  1.00  0.00     0.045 A 
BRANCH  24  26
HETATM   26  O   UNL     1      45.802  -9.366   8.717  1.00  0.00    -0.356 OA
HETATM   27  C   UNL     1      46.151 -10.476   7.898  1.00  0.00     0.210 C 
ENDBRANCH  24  26
ENDBRANCH  19  20
ENDBRANCH   1  19
TORSDOF 5
ENDMDL
MODEL 8
REMARK VINA RESULT:      -7.5      2.654     10.610
REMARK  5 active torsions:
REMARK  status: ('A' for Active; 'I' for Inactive)
REMARK    1  A    between atoms: O_2  and  C_3 
REMARK    2  A    between atoms: C_7  and  C_8 
REMARK    3  A    between atoms: C_8  and  N_9 
REMARK       I    between atoms: N_9  and  C_10 
REMARK       I    between atoms: C_10  and  N_12 
REMARK    4  A    between atoms: N_12  and  C_13 
REMARK    5  A    between atoms: C_16  and  C_19 
ROOT
HETATM    1  N   UNL     1      42.995 -13.684   4.253  1.00  0.00    -0.339 N 
HETATM    2  C   UNL     1      42.540 -13.039   5.385  1.00  0.00     0.320 C 
HETATM    3  O   UNL     1      41.552 -13.422   5.998  1.00  0.00    -0.247 OA
HETATM    4  N   UNL     1      43.355 -11.979   5.714  1.00  0.00    -0.309 N 
HETATM    5  H   UNL     1      43.463 -13.115   3.566  1.00  0.00     0.164 HD
HETATM    6  H   UNL     1      44.191 -11.883   5.159  1.00  0.00     0.170 HD
ENDROOT
BRANCH   4   7
HETATM    7  C   UNL     1      43.226 -11.108   6.816  1.00  0.00     0.036 A 
HETATM    8  C   UNL     1      42.263 -10.104   6.906  1.00  0.00     0.030 A 
HETATM    9  C   UNL     1      42.180  -9.294   8.046  1.00  0.00     0.014 A 
HETATM   10  C   UNL     1      43.061  -9.460   9.124  1.00  0.00    -0.026 A 
HETATM   11  C   UNL     1      44.036 -10.462   9.019  1.00  0.00     0.014 A 
HETATM   12  C   UNL     1      44.117 -11.276   7.882  1.00  0.00     0.030 A 
BRANCH  10  13
HETATM   13  C   UNL     1      42.957  -8.615  10.324  1.00  0.00    -0.023 A 
HETATM   14  C   UNL     1      43.353  -9.092  11.580  1.00  0.00     0.031 A 
HETATM   15  C   UNL     1      43.234  -8.264  12.685  1.00  0.00     0.117 A 
HETATM   16  N   UNL     1      42.751  -7.005  12.631  1.00  0.00    -0.273 NA
HETATM   17  C   UNL     1      42.370  -6.559  11.416  1.00  0.00     0.117 A 
HETATM   18  C   UNL     1      42.454  -7.311  10.255  1.00  0.00     0.031 A 
ENDBRANCH  10  13
ENDBRANCH   4   7
BRANCH   1  19
HETATM   19  C   UNL     1      42.240 -14.806   3.735  1.00  0.00     0.163 C 
BRANCH  19  20
HETATM   20  C   UNL     1      43.000 -16.102   3.839  1.00  0.00    -0.038 A 
HETATM   21  C   UNL     1      43.717 -16.429   4.998  1.00  0.00     0.009 A 
HETATM   22  C   UNL     1      44.358 -17.663   5.109  1.00  0.00     0.003 A 
HETATM   23  C   UNL     1      44.270 -18.597   4.075  1.00  0.00     0.037 A 
HETATM   24  C   UNL     1      43.540 -18.299   2.926  1.00  0.00     0.068 A 
HETATM   25  C   UNL     1      42.921 -17.050   2.808  1.00  0.00     0.045 A 
BRANCH  24  26
HETATM   26  O   UNL     1      43.361 -19.132   1.855  1.00  0.00    -0.356 OA
HETATM   27  C   UNL     1      43.596 -20.516   2.088  1.00  0.00     0.210 C 
ENDBRANCH  24  26
ENDBRANCH  19  20
ENDBRANCH   1  19
TORSDOF 5
ENDMDL
MODEL 9
REMARK VINA RESULT:      -7.4      6.311      8.710
REMARK  5 active torsions:
REMARK  status: ('A' for Active; 'I' for Inactive)
REMARK    1  A    between atoms: O_2  and  C_3 
REMARK    2  A    between atoms: C_7  and  C_8 
REMARK    3  A    between atoms: C_8  and  N_9 
REMARK       I    between atoms: N_9  and  C_10 
REMARK       I    between atoms: C_10  and  N_12 
REMARK    4  A    between atoms: N_12  and  C_13 
REMARK    5  A    between atoms: C_16  and  C_19 
ROOT
HETATM    1  N   UNL     1      41.104 -11.367   1.431  1.00  0.00    -0.339 N 
HETATM    2  C   UNL     1      41.017 -12.715   1.715  1.00  0.00     0.320 C 
HETATM    3  O   UNL     1      39.959 -13.327   1.639  1.00  0.00    -0.247 OA
HETATM    4  N   UNL     1      42.249 -13.235   2.043  1.00  0.00    -0.309 N 
HETATM    5  H   UNL     1      41.808 -10.845   1.928  1.00  0.00     0.164 HD
HETATM    6  H   UNL     1      43.029 -12.605   1.942  1.00  0.00     0.170 HD
ENDROOT
BRANCH   4   7
HETATM    7  C   UNL     1      42.556 -14.573   2.364  1.00  0.00     0.036 A 
HETATM    8  C   UNL     1      42.784 -15.569   1.415  1.00  0.00     0.030 A 
HETATM    9  C   UNL     1      43.111 -16.872   1.812  1.00  0.00     0.014 A 
HETATM   10  C   UNL     1      43.211 -17.218   3.167  1.00  0.00    -0.026 A 
HETATM   11  C   UNL     1      42.964 -16.215   4.114  1.00  0.00     0.014 A 
HETATM   12  C   UNL     1      42.643 -14.910   3.720  1.00  0.00     0.030 A 
BRANCH  10  13
HETATM   13  C   UNL     1      43.569 -18.586   3.574  1.00  0.00    -0.023 A 
HETATM   14  C   UNL     1      43.525 -19.647   2.661  1.00  0.00     0.031 A 
HETATM   15  C   UNL     1      43.867 -20.920   3.088  1.00  0.00     0.117 A 
HETATM   16  N   UNL     1      44.245 -21.212   4.350  1.00  0.00    -0.273 NA
HETATM   17  C   UNL     1      44.281 -20.183   5.220  1.00  0.00     0.117 A 
HETATM   18  C   UNL     1      43.960 -18.876   4.886  1.00  0.00     0.031 A 
ENDBRANCH  10  13
ENDBRANCH   4   7
BRANCH   1  19
HETATM   19  C   UNL     1      39.896 -10.641   1.100  1.00  0.00     0.163 C 
BRANCH  19  20
HETATM   20  C   UNL     1      39.673 -10.551  -0.387  1.00  0.00    -0.038 A 
HETATM   21  C   UNL     1      40.544  -9.818  -1.205  1.00  0.00     0.009 A 
HETATM   22  C   UNL     1      40.369  -9.801  -2.589  1.00  0.00     0.003 A 
HETATM   23  C   UNL     1      39.337 -10.535  -3.177  1.00  0.00     0.037 A 
HETATM   24  C   UNL     1      38.477 -11.290  -2.381  1.00  0.00     0.068 A 
HETATM   25  C   UNL     1      38.641 -11.283  -0.992  1.00  0.00     0.045 A 
BRANCH  24  26
HETATM   26  O   UNL     1      37.444 -12.065  -2.833  1.00  0.00    -0.356 OA
HETATM   27  C   UNL     1      37.480 -13.439  -2.464  1.00  0.00     0.210 C 
ENDBRANCH  24  26
ENDBRANCH  19  20
ENDBRANCH   1  19
TORSDOF 5
ENDMDL
MODEL 10
REMARK VINA RESULT:      -7.4      7.794     10.182
REMARK  5 active torsions:
REMARK  status: ('A' for Active; 'I' for Inactive)
REMARK    1  A    between atoms: O_2  and  C_3 
REMARK    2  A    between atoms: C_7  and  C_8 
REMARK    3  A    between atoms: C_8  and  N_9 
REMARK       I    between atoms: N_9  and  C_10 
REMARK       I    between atoms: C_10  and  N_12 
REMARK    4  A    between atoms: N_12  and  C_13 
REMARK    5  A    between atoms: C_16  and  C_19 
ROOT
HETATM    1  N   UNL     1      39.304 -12.257  -0.600  1.00  0.00    -0.339 N 
HETATM    2  C   UNL     1      39.788 -13.536  -0.407  1.00  0.00     0.320 C 
HETATM    3  O   UNL     1      39.562 -14.441  -1.199  1.00  0.00    -0.247 OA
HETATM    4  N   UNL     1      40.552 -13.611   0.736  1.00  0.00    -0.309 N 
HETATM    5  H   UNL     1      39.111 -11.717   0.229  1.00  0.00     0.164 HD
HETATM    6  H   UNL     1      40.723 -12.735   1.204  1.00  0.00     0.170 HD
ENDROOT
BRANCH   4   7
HETATM    7  C   UNL     1      41.230 -14.740   1.241  1.00  0.00     0.036 A 
HETATM    8  C   UNL     1      42.597 -14.962   1.080  1.00  0.00     0.030 A 
HETATM    9  C   UNL     1      43.206 -16.097   1.634  1.00  0.00     0.014 A 
HETATM   10  C   UNL     1      42.464 -17.043   2.355  1.00  0.00    -0.026 A 
HETATM   11  C   UNL     1      41.088 -16.819   2.498  1.00  0.00     0.014 A 
HETATM   12  C   UNL     1      40.478 -15.683   1.950  1.00  0.00     0.030 A 
BRANCH  10  13
HETATM   13  C   UNL     1      43.114 -18.223   2.946  1.00  0.00    -0.023 A 
HETATM   14  C   UNL     1      43.153 -19.445   2.262  1.00  0.00     0.031 A 
HETATM   15  C   UNL     1      43.772 -20.532   2.857  1.00  0.00     0.117 A 
HETATM   16  N   UNL     1      44.349 -20.493   4.076  1.00  0.00    -0.273 NA
HETATM   17  C   UNL     1      44.303 -19.312   4.725  1.00  0.00     0.117 A 
HETATM   18  C   UNL     1      43.710 -18.170   4.211  1.00  0.00     0.031 A 
ENDBRANCH  10  13
ENDBRANCH   4   7
BRANCH   1  19
HETATM   19  C   UNL     1      38.447 -11.997  -1.737  1.00  0.00     0.163 C 
BRANCH  19  20
HETATM   20  C   UNL     1      39.008 -10.932  -2.643  1.00  0.00    -0.038 A 
HETATM   21  C   UNL     1      40.382 -10.854  -2.903  1.00  0.00     0.009 A 
HETATM   22  C   UNL     1      40.881  -9.909  -3.799  1.00  0.00     0.003 A 
HETATM   23  C   UNL     1      40.011  -9.044  -4.466  1.00  0.00     0.037 A 
HETATM   24  C   UNL     1      38.638  -9.124  -4.239  1.00  0.00     0.068 A 
HETATM   25  C   UNL     1      38.145 -10.056  -3.319  1.00  0.00     0.045 A 
BRANCH  24  26
HETATM   26  O   UNL     1      37.683  -8.351  -4.841  1.00  0.00    -0.356 OA
HETATM   27  C   UNL     1      36.468  -9.008  -5.185  1.00  0.00     0.210 C 
ENDBRANCH  24  26
ENDBRANCH  19  20
ENDBRANCH   1  19
TORSDOF 5
ENDMDL
