MODEL 1
REMARK VINA RESULT:      -8.4      0.000      0.000
REMARK  7 active torsions:
REMARK  status: ('A' for Active; 'I' for Inactive)
REMARK    1  A    between atoms: O_2  and  C_3 
REMARK    2  A    between atoms: C_6  and  N_7 
REMARK       I    between atoms: N_7  and  C_8 
REMARK    3  A    between atoms: C_8  and  C_9 
REMARK    4  A    between atoms: C_9  and  C_10 
REMARK    5  A    between atoms: C_10  and  N_11 
REMARK    6  A    between atoms: C_10  and  C_20 
REMARK       I    between atoms: N_11  and  C_12 
REMARK    7  A    between atoms: C_12  and  C_13 
ROOT
HETATM    1  C   UNL     1      42.800 -15.777   4.164  1.00  0.00     0.126 C 
ENDROOT
BRANCH   1   2
HETATM    2  C   UNL     1      42.221 -15.708   5.575  1.00  0.00     0.133 C 
BRANCH   2   3
HETATM    3  C   UNL     1      42.669 -14.558   6.462  1.00  0.00     0.224 C 
HETATM    4  N   UNL     1      42.878 -13.340   5.851  1.00  0.00    -0.326 N 
HETATM    5  H   UNL     1      42.454 -13.173   4.944  1.00  0.00     0.169 HD
HETATM    6  O   UNL     1      42.900 -14.790   7.648  1.00  0.00    -0.273 OA
BRANCH   4   7
HETATM    7  C   UNL     1      43.536 -12.227   6.425  1.00  0.00     0.052 A 
HETATM    8  C   UNL     1      42.899 -11.093   6.927  1.00  0.00     0.149 A 
HETATM    9  N   UNL     1      43.540 -10.053   7.523  1.00  0.00    -0.235 NA
HETATM   10  C   UNL     1      44.881 -10.143   7.620  1.00  0.00     0.163 A 
HETATM   11  C   UNL     1      45.610 -11.219   7.144  1.00  0.00     0.060 A 
HETATM   12  C   UNL     1      44.925 -12.277   6.543  1.00  0.00     0.035 A 
BRANCH  10  13
HETATM   13  O   UNL     1      45.598  -9.130   8.223  1.00  0.00    -0.339 OA
HETATM   14  C   UNL     1      44.767  -8.088   8.728  1.00  0.00     0.211 C 
ENDBRANCH  10  13
ENDBRANCH   4   7
ENDBRANCH   2   3
ENDBRANCH   1   2
BRANCH   1  15
HETATM   15  N   UNL     1      41.871 -15.263   3.170  1.00  0.00    -0.348 N 
HETATM   16  C   UNL     1      42.143 -14.101   2.479  1.00  0.00     0.252 C 
HETATM   17  O   UNL     1      43.012 -13.302   2.807  1.00  0.00    -0.268 OA
HETATM   18  H   UNL     1      41.264 -15.935   2.717  1.00  0.00     0.163 HD
BRANCH  16  19
HETATM   19  C   UNL     1      41.326 -13.886   1.262  1.00  0.00     0.032 A 
HETATM   20  C   UNL     1      41.256 -12.624   0.657  1.00  0.00     0.017 A 
HETATM   21  C   UNL     1      40.455 -12.442  -0.470  1.00  0.00     0.001 A 
HETATM   22  C   UNL     1      39.725 -13.513  -0.989  1.00  0.00     0.000 A 
HETATM   23  C   UNL     1      39.802 -14.772  -0.391  1.00  0.00     0.001 A 
HETATM   24  C   UNL     1      40.610 -14.962   0.731  1.00  0.00     0.017 A 
ENDBRANCH  16  19
ENDBRANCH   1  15
BRANCH   1  25
HETATM   25  C   UNL     1      43.198 -17.201   3.794  1.00  0.00    -0.035 A 
HETATM   26  C   UNL     1      42.829 -17.728   2.546  1.00  0.00     0.009 A 
HETATM   27  C   UNL     1      43.187 -19.028   2.186  1.00  0.00     0.001 A 
HETATM   28  C   UNL     1      43.911 -19.823   3.072  1.00  0.00     0.000 A 
HETATM   29  C   UNL     1      44.275 -19.320   4.319  1.00  0.00     0.001 A 
HETATM   30  C   UNL     1      43.921 -18.019   4.679  1.00  0.00     0.009 A 
ENDBRANCH   1  25
TORSDOF 7
ENDMDL
MODEL 2
REMARK VINA RESULT:      -8.2      2.854      7.666
REMARK  7 active torsions:
REMARK  status: ('A' for Active; 'I' for Inactive)
REMARK    1  A    between atoms: O_2  and  C_3 
REMARK    2  A    between atoms: C_6  and  N_7 
REMARK       I    between atoms: N_7  and  C_8 
REMARK    3  A    between atoms: C_8  and  C_9 
REMARK    4  A    between atoms: C_9  and  C_10 
REMARK    5  A    between atoms: C_10  and  N_11 
REMARK    6  A    between atoms: C_10  and  C_20 
REMARK       I    between atoms: N_11  and  C_12 
REMARK    7  A    between atoms: C_12  and  C_13 
ROOT
HETATM    1  C   UNL     1      42.120 -15.484   2.987  1.00  0.00     0.126 C 
ENDROOT
BRANCH   1   2
HETATM    2  C   UNL     1      42.145 -15.220   1.484  1.00  0.00     0.133 C 
BRANCH   2   3
HETATM    3  C   UNL     1      40.809 -15.067   0.775  1.00  0.00     0.224 C 
HETATM    4  N   UNL     1      40.787 -14.289  -0.362  1.00  0.00    -0.326 N 
HETATM    5  H   UNL     1      41.662 -14.107  -0.843  1.00  0.00     0.169 HD
HETATM    6  O   UNL     1      39.812 -15.570   1.294  1.00  0.00    -0.273 OA
BRANCH   4   7
HETATM    7  C   UNL     1      39.628 -13.807  -1.015  1.00  0.00     0.052 A 
HETATM    8  C   UNL     1      38.921 -12.662  -0.649  1.00  0.00     0.149 A 
HETATM    9  N   UNL     1      37.839 -12.181  -1.317  1.00  0.00    -0.235 NA
HETATM   10  C   UNL     1      37.436 -12.877  -2.398  1.00  0.00     0.163 A 
HETATM   11  C   UNL     1      38.061 -14.031  -2.839  1.00  0.00     0.060 A 
HETATM   12  C   UNL     1      39.174 -14.498  -2.139  1.00  0.00     0.035 A 
BRANCH  10  13
HETATM   13  O   UNL     1      36.352 -12.443  -3.132  1.00  0.00    -0.339 OA
HETATM   14  C   UNL     1      36.175 -11.030  -3.075  1.00  0.00     0.211 C 
ENDBRANCH  10  13
ENDBRANCH   4   7
ENDBRANCH   2   3
ENDBRANCH   1   2
BRANCH   1  15
HETATM   15  N   UNL     1      42.655 -14.364   3.744  1.00  0.00    -0.348 N 
HETATM   16  C   UNL     1      41.824 -13.541   4.475  1.00  0.00     0.252 C 
HETATM   17  O   UNL     1      40.606 -13.518   4.351  1.00  0.00    -0.268 OA
HETATM   18  H   UNL     1      43.618 -14.435   4.050  1.00  0.00     0.163 HD
BRANCH  16  19
HETATM   19  C   UNL     1      42.507 -12.687   5.477  1.00  0.00     0.032 A 
HETATM   20  C   UNL     1      42.028 -11.404   5.771  1.00  0.00     0.017 A 
HETATM   21  C   UNL     1      42.707 -10.609   6.695  1.00  0.00     0.001 A 
HETATM   22  C   UNL     1      43.859 -11.091   7.319  1.00  0.00     0.000 A 
HETATM   23  C   UNL     1      44.329 -12.374   7.032  1.00  0.00     0.001 A 
HETATM   24  C   UNL     1      43.649 -13.177   6.116  1.00  0.00     0.017 A 
ENDBRANCH  16  19
ENDBRANCH   1  15
BRANCH   1  25
HETATM   25  C   UNL     1      42.892 -16.749   3.343  1.00  0.00    -0.035 A 
HETATM   26  C   UNL     1      42.958 -17.809   2.426  1.00  0.00     0.009 A 
HETATM   27  C   UNL     1      43.662 -18.975   2.733  1.00  0.00     0.001 A 
HETATM   28  C   UNL     1      44.302 -19.100   3.964  1.00  0.00     0.000 A 
HETATM   29  C   UNL     1      44.236 -18.063   4.890  1.00  0.00     0.001 A 
HETATM   30  C   UNL     1      43.535 -16.895   4.584  1.00  0.00     0.009 A 
ENDBRANCH   1  25
TORSDOF 7
ENDMDL
MODEL 3
REMARK VINA RESULT:      -8.2      1.510      5.026
REMARK  7 active torsions:
REMARK  status: ('A' for Active; 'I' for Inactive)
REMARK    1  A    between atoms: O_2  and  C_3 
REMARK    2  A    between atoms: C_6  and  N_7 
REMARK       I    between atoms: N_7  and  C_8 
REMARK    3  A    between atoms: C_8  and  C_9 
REMARK    4  A    between atoms: C_9  and  C_10 
REMARK    5  A    between atoms: C_10  and  N_11 
REMARK    6  A    between atoms: C_10  and  C_20 
REMARK       I    between atoms: N_11  and  C_12 
REMARK    7  A    between atoms: C_12  and  C_13 
ROOT
HETATM    1  C   UNL     1      41.510 -13.341   2.142  1.00  0.00     0.126 C 
ENDROOT
BRANCH   1   2
HETATM    2  C   UNL     1      42.301 -12.044   2.285  1.00  0.00     0.133 C 
BRANCH   2   3
HETATM    3  C   UNL     1      43.153 -11.876   3.533  1.00  0.00     0.224 C 
HETATM    4  N   UNL     1      42.509 -11.975   4.748  1.00  0.00    -0.326 N 
HETATM    5  H   UNL     1      41.608 -12.439   4.784  1.00  0.00     0.169 HD
HETATM    6  O   UNL     1      44.339 -11.579   3.396  1.00  0.00    -0.273 OA
BRANCH   4   7
HETATM    7  C   UNL     1      43.045 -11.598   6.003  1.00  0.00     0.052 A 
HETATM    8  C   UNL     1      43.952 -12.353   6.745  1.00  0.00     0.149 A 
HETATM    9  N   UNL     1      44.498 -11.955   7.925  1.00  0.00    -0.235 NA
HETATM   10  C   UNL     1      44.118 -10.750   8.392  1.00  0.00     0.163 A 
HETATM   11  C   UNL     1      43.216  -9.927   7.739  1.00  0.00     0.060 A 
HETATM   12  C   UNL     1      42.676 -10.358   6.526  1.00  0.00     0.035 A 
BRANCH  10  13
HETATM   13  O   UNL     1      44.639 -10.275   9.578  1.00  0.00    -0.339 OA
HETATM   14  C   UNL     1      43.756 -10.455  10.682  1.00  0.00     0.211 C 
ENDBRANCH  10  13
ENDBRANCH   4   7
ENDBRANCH   2   3
ENDBRANCH   1   2
BRANCH   1  15
HETATM   15  N   UNL     1      42.335 -14.512   2.392  1.00  0.00    -0.348 N 
HETATM   16  C   UNL     1      42.147 -15.285   3.518  1.00  0.00     0.252 C 
HETATM   17  O   UNL     1      41.484 -14.930   4.485  1.00  0.00    -0.268 OA
HETATM   18  H   UNL     1      42.743 -14.967   1.585  1.00  0.00     0.163 HD
BRANCH  16  19
HETATM   19  C   UNL     1      42.779 -16.625   3.475  1.00  0.00     0.032 A 
HETATM   20  C   UNL     1      43.575 -17.078   4.535  1.00  0.00     0.017 A 
HETATM   21  C   UNL     1      44.184 -18.331   4.455  1.00  0.00     0.001 A 
HETATM   22  C   UNL     1      44.001 -19.126   3.322  1.00  0.00     0.000 A 
HETATM   23  C   UNL     1      43.200 -18.677   2.271  1.00  0.00     0.001 A 
HETATM   24  C   UNL     1      42.580 -17.429   2.349  1.00  0.00     0.017 A 
ENDBRANCH  16  19
ENDBRANCH   1  15
BRANCH   1  25
HETATM   25  C   UNL     1      40.874 -13.457   0.761  1.00  0.00    -0.035 A 
HETATM   26  C   UNL     1      40.205 -14.636   0.397  1.00  0.00     0.009 A 
HETATM   27  C   UNL     1      39.614 -14.762  -0.861  1.00  0.00     0.001 A 
HETATM   28  C   UNL     1      39.691 -13.713  -1.776  1.00  0.00     0.000 A 
HETATM   29  C   UNL     1      40.361 -12.541  -1.435  1.00  0.00     0.001 A 
HETATM   30  C   UNL     1      40.950 -12.413  -0.176  1.00  0.00     0.009 A 
ENDBRANCH   1  25
TORSDOF 7
ENDMDL
MODEL 4
REMARK VINA RESULT:      -8.1      2.682      7.927
REMARK  7 active torsions:
REMARK  status: ('A' for Active; 'I' for Inactive)
REMARK    1  A    between atoms: O_2  and  C_3 
REMARK    2  A    between atoms: C_6  and  N_7 
REMARK       I    between atoms: N_7  and  C_8 
REMARK    3  A    between atoms: C_8  and  C_9 
REMARK    4  A    between atoms: C_9  and  C_10 
REMARK    5  A    between atoms: C_10  and  N_11 
REMARK    6  A    between atoms: C_10  and  C_20 
REMARK       I    between atoms: N_11  and  C_12 
REMARK    7  A    between atoms: C_12  and  C_13 
ROOT
HETATM    1  C   UNL     1      42.639 -13.085   3.953  1.00  0.00     0.126 C 
ENDROOT
BRANCH   1   2
HETATM    2  C   UNL     1      41.224 -12.514   3.916  1.00  0.00     0.133 C 
BRANCH   2   3
HETATM    3  C   UNL     1      40.288 -13.028   2.834  1.00  0.00     0.224 C 
HETATM    4  N   UNL     1      40.779 -13.063   1.546  1.00  0.00    -0.326 N 
HETATM    5  H   UNL     1      41.784 -13.045   1.408  1.00  0.00     0.169 HD
HETATM    6  O   UNL     1      39.130 -13.303   3.145  1.00  0.00    -0.273 OA
BRANCH   4   7
HETATM    7  C   UNL     1      40.012 -13.251   0.372  1.00  0.00     0.052 A 
HETATM    8  C   UNL     1      39.993 -14.415  -0.394  1.00  0.00     0.149 A 
HETATM    9  N   UNL     1      39.212 -14.601  -1.491  1.00  0.00    -0.235 NA
HETATM   10  C   UNL     1      38.415 -13.575  -1.847  1.00  0.00     0.163 A 
HETATM   11  C   UNL     1      38.365 -12.373  -1.163  1.00  0.00     0.060 A 
HETATM   12  C   UNL     1      39.173 -12.213  -0.035  1.00  0.00     0.035 A 
BRANCH  10  13
HETATM   13  O   UNL     1      37.586 -13.695  -2.944  1.00  0.00    -0.339 OA
HETATM   14  C   UNL     1      37.994 -14.729  -3.836  1.00  0.00     0.211 C 
ENDBRANCH  10  13
ENDBRANCH   4   7
ENDBRANCH   2   3
ENDBRANCH   1   2
BRANCH   1  15
HETATM   15  N   UNL     1      42.637 -14.538   4.018  1.00  0.00    -0.348 N 
HETATM   16  C   UNL     1      43.136 -15.295   2.979  1.00  0.00     0.252 C 
HETATM   17  O   UNL     1      43.369 -14.849   1.862  1.00  0.00    -0.268 OA
HETATM   18  H   UNL     1      42.653 -14.956   4.940  1.00  0.00     0.163 HD
BRANCH  16  19
HETATM   19  C   UNL     1      43.416 -16.713   3.310  1.00  0.00     0.032 A 
HETATM   20  C   UNL     1      43.843 -17.079   4.593  1.00  0.00     0.017 A 
HETATM   21  C   UNL     1      44.130 -18.416   4.870  1.00  0.00     0.001 A 
HETATM   22  C   UNL     1      43.992 -19.382   3.870  1.00  0.00     0.000 A 
HETATM   23  C   UNL     1      43.557 -19.016   2.595  1.00  0.00     0.001 A 
HETATM   24  C   UNL     1      43.260 -17.681   2.315  1.00  0.00     0.017 A 
ENDBRANCH  16  19
ENDBRANCH   1  15
BRANCH   1  25
HETATM   25  C   UNL     1      43.435 -12.528   5.128  1.00  0.00    -0.035 A 
HETATM   26  C   UNL     1      43.107 -12.911   6.438  1.00  0.00     0.009 A 
HETATM   27  C   UNL     1      43.826 -12.415   7.527  1.00  0.00     0.001 A 
HETATM   28  C   UNL     1      44.876 -11.523   7.322  1.00  0.00     0.000 A 
HETATM   29  C   UNL     1      45.206 -11.123   6.030  1.00  0.00     0.001 A 
HETATM   30  C   UNL     1      44.491 -11.621   4.939  1.00  0.00     0.009 A 
ENDBRANCH   1  25
TORSDOF 7
ENDMDL
MODEL 5
REMARK VINA RESULT:      -8.0      3.165      7.611
REMARK  7 active torsions:
REMARK  status: ('A' for Active; 'I' for Inactive)
REMARK    1  A    between atoms: O_2  and  C_3 
REMARK    2  A    between atoms: C_6  and  N_7 
REMARK       I    between atoms: N_7  and  C_8 
REMARK    3  A    between atoms: C_8  and  C_9 
REMARK    4  A    between atoms: C_9  and  C_10 
REMARK    5  A    between atoms: C_10  and  N_11 
REMARK    6  A    between atoms: C_10  and  C_20 
REMARK       I    between atoms: N_11  and  C_12 
REMARK    7  A    between atoms: C_12  and  C_13 
ROOT
HETATM    1  C   UNL     1      41.887 -14.748   3.418  1.00  0.00     0.126 C 
ENDROOT
BRANCH   1   2
HETATM    2  C   UNL     1      40.408 -14.378   3.477  1.00  0.00     0.133 C 
BRANCH   2   3
HETATM    3  C   UNL     1      39.813 -13.671   2.270  1.00  0.00     0.224 C 
HETATM    4  N   UNL     1      40.350 -13.975   1.038  1.00  0.00    -0.326 N 
HETATM    5  H   UNL     1      40.877 -14.836   0.937  1.00  0.00     0.169 HD
HETATM    6  O   UNL     1      38.951 -12.813   2.461  1.00  0.00    -0.273 OA
BRANCH   4   7
HETATM    7  C   UNL     1      40.132 -13.257  -0.162  1.00  0.00     0.052 A 
HETATM    8  C   UNL     1      39.206 -13.601  -1.144  1.00  0.00     0.149 A 
HETATM    9  N   UNL     1      38.972 -12.873  -2.268  1.00  0.00    -0.235 NA
HETATM   10  C   UNL     1      39.699 -11.749  -2.424  1.00  0.00     0.163 A 
HETATM   11  C   UNL     1      40.651 -11.323  -1.514  1.00  0.00     0.060 A 
HETATM   12  C   UNL     1      40.866 -12.087  -0.366  1.00  0.00     0.035 A 
BRANCH  10  13
HETATM   13  O   UNL     1      39.507 -10.954  -3.535  1.00  0.00    -0.339 OA
HETATM   14  C   UNL     1      38.578  -9.897  -3.306  1.00  0.00     0.211 C 
ENDBRANCH  10  13
ENDBRANCH   4   7
ENDBRANCH   2   3
ENDBRANCH   1   2
BRANCH   1  15
HETATM   15  N   UNL     1      42.089 -16.188   3.467  1.00  0.00    -0.348 N 
HETATM   16  C   UNL     1      42.990 -16.807   2.626  1.00  0.00     0.252 C 
HETATM   17  O   UNL     1      43.480 -16.270   1.639  1.00  0.00    -0.268 OA
HETATM   18  H   UNL     1      41.888 -16.650   4.345  1.00  0.00     0.163 HD
BRANCH  16  19
HETATM   19  C   UNL     1      43.370 -18.185   3.015  1.00  0.00     0.032 A 
HETATM   20  C   UNL     1      43.225 -19.251   2.118  1.00  0.00     0.017 A 
HETATM   21  C   UNL     1      43.562 -20.544   2.520  1.00  0.00     0.001 A 
HETATM   22  C   UNL     1      44.039 -20.771   3.812  1.00  0.00     0.000 A 
HETATM   23  C   UNL     1      44.192 -19.707   4.702  1.00  0.00     0.001 A 
HETATM   24  C   UNL     1      43.866 -18.410   4.302  1.00  0.00     0.017 A 
ENDBRANCH  16  19
ENDBRANCH   1  15
BRANCH   1  25
HETATM   25  C   UNL     1      42.673 -14.090   4.546  1.00  0.00    -0.035 A 
HETATM   26  C   UNL     1      43.019 -12.733   4.457  1.00  0.00     0.009 A 
HETATM   27  C   UNL     1      43.736 -12.111   5.481  1.00  0.00     0.001 A 
HETATM   28  C   UNL     1      44.124 -12.839   6.604  1.00  0.00     0.000 A 
HETATM   29  C   UNL     1      43.799 -14.190   6.703  1.00  0.00     0.001 A 
HETATM   30  C   UNL     1      43.079 -14.813   5.681  1.00  0.00     0.009 A 
ENDBRANCH   1  25
TORSDOF 7
ENDMDL
MODEL 6
REMARK VINA RESULT:      -7.7     15.772     17.802
REMARK  7 active torsions:
REMARK  status: ('A' for Active; 'I' for Inactive)
REMARK    1  A    between atoms: O_2  and  C_3 
REMARK    2  A    between atoms: C_6  and  N_7 
REMARK       I    between atoms: N_7  and  C_8 
REMARK    3  A    between atoms: C_8  and  C_9 
REMARK    4  A    between atoms: C_9  and  C_10 
REMARK    5  A    between atoms: C_10  and  N_11 
REMARK    6  A    between atoms: C_10  and  C_20 
REMARK       I    between atoms: N_11  and  C_12 
REMARK    7  A    between atoms: C_12  and  C_13 
ROOT
HETATM    1  C   UNL     1      44.632 -30.030   2.269  1.00  0.00     0.126 C 
ENDROOT
BRANCH   1   2
HETATM    2  C   UNL     1      44.038 -31.316   2.838  1.00  0.00     0.133 C 
BRANCH   2   3
HETATM    3  C   UNL     1      42.669 -31.227   3.493  1.00  0.00     0.224 C 
HETATM    4  N   UNL     1      42.173 -32.378   4.068  1.00  0.00    -0.326 N 
HETATM    5  H   UNL     1      42.822 -33.122   4.301  1.00  0.00     0.169 HD
HETATM    6  O   UNL     1      42.046 -30.169   3.404  1.00  0.00    -0.273 OA
BRANCH   4   7
HETATM    7  C   UNL     1      40.839 -32.585   4.490  1.00  0.00     0.052 A 
HETATM    8  C   UNL     1      40.296 -32.118   5.685  1.00  0.00     0.149 A 
HETATM    9  N   UNL     1      38.997 -32.279   6.054  1.00  0.00    -0.235 NA
HETATM   10  C   UNL     1      38.202 -32.944   5.195  1.00  0.00     0.163 A 
HETATM   11  C   UNL     1      38.643 -33.459   3.987  1.00  0.00     0.060 A 
HETATM   12  C   UNL     1      39.979 -33.271   3.630  1.00  0.00     0.035 A 
BRANCH  10  13
HETATM   13  O   UNL     1      36.869 -33.137   5.497  1.00  0.00    -0.339 OA
HETATM   14  C   UNL     1      36.036 -33.152   4.342  1.00  0.00     0.211 C 
ENDBRANCH  10  13
ENDBRANCH   4   7
ENDBRANCH   2   3
ENDBRANCH   1   2
BRANCH   1  15
HETATM   15  N   UNL     1      44.715 -30.066   0.817  1.00  0.00    -0.348 N 
HETATM   16  C   UNL     1      43.811 -29.375   0.038  1.00  0.00     0.252 C 
HETATM   17  O   UNL     1      42.761 -28.909   0.463  1.00  0.00    -0.268 OA
HETATM   18  H   UNL     1      45.626 -30.248   0.414  1.00  0.00     0.163 HD
BRANCH  16  19
HETATM   19  C   UNL     1      44.213 -29.189  -1.377  1.00  0.00     0.032 A 
HETATM   20  C   UNL     1      43.883 -30.144  -2.348  1.00  0.00     0.017 A 
HETATM   21  C   UNL     1      44.300 -29.960  -3.666  1.00  0.00     0.001 A 
HETATM   22  C   UNL     1      45.044 -28.830  -4.013  1.00  0.00     0.000 A 
HETATM   23  C   UNL     1      45.363 -27.875  -3.047  1.00  0.00     0.001 A 
HETATM   24  C   UNL     1      44.941 -28.049  -1.727  1.00  0.00     0.017 A 
ENDBRANCH  16  19
ENDBRANCH   1  15
BRANCH   1  25
HETATM   25  C   UNL     1      46.014 -29.751   2.846  1.00  0.00    -0.035 A 
HETATM   26  C   UNL     1      46.826 -28.762   2.269  1.00  0.00     0.009 A 
HETATM   27  C   UNL     1      48.094 -28.488   2.785  1.00  0.00     0.001 A 
HETATM   28  C   UNL     1      48.571 -29.206   3.880  1.00  0.00     0.000 A 
HETATM   29  C   UNL     1      47.784 -30.199   4.457  1.00  0.00     0.001 A 
HETATM   30  C   UNL     1      46.515 -30.471   3.944  1.00  0.00     0.009 A 
ENDBRANCH   1  25
TORSDOF 7
ENDMDL
MODEL 7
REMARK VINA RESULT:      -7.6      4.067      7.591
REMARK  7 active torsions:
REMARK  status: ('A' for Active; 'I' for Inactive)
REMARK    1  A    between atoms: O_2  and  C_3 
REMARK    2  A    between atoms: C_6  and  N_7 
REMARK       I    between atoms: N_7  and  C_8 
REMARK    3  A    between atoms: C_8  and  C_9 
REMARK    4  A    between atoms: C_9  and  C_10 
REMARK    5  A    between atoms: C_10  and  N_11 
REMARK    6  A    between atoms: C_10  and  C_20 
REMARK       I    between atoms: N_11  and  C_12 
REMARK    7  A    between atoms: C_12  and  C_13 
ROOT
HETATM    1  C   UNL     1      41.072 -15.178   2.120  1.00  0.00     0.126 C 
ENDROOT
BRANCH   1   2
HETATM    2  C   UNL     1      39.949 -15.206   1.087  1.00  0.00     0.133 C 
BRANCH   2   3
HETATM    3  C   UNL     1      39.958 -14.130   0.012  1.00  0.00     0.224 C 
HETATM    4  N   UNL     1      40.997 -13.225   0.040  1.00  0.00    -0.326 N 
HETATM    5  H   UNL     1      41.841 -13.470   0.547  1.00  0.00     0.169 HD
HETATM    6  O   UNL     1      39.004 -14.072  -0.764  1.00  0.00    -0.273 OA
BRANCH   4   7
HETATM    7  C   UNL     1      41.059 -12.012  -0.686  1.00  0.00     0.052 A 
HETATM    8  C   UNL     1      41.206 -10.747  -0.119  1.00  0.00     0.149 A 
HETATM    9  N   UNL     1      41.316  -9.594  -0.831  1.00  0.00    -0.235 NA
HETATM   10  C   UNL     1      41.272  -9.705  -2.173  1.00  0.00     0.163 A 
HETATM   11  C   UNL     1      41.119 -10.911  -2.836  1.00  0.00     0.060 A 
HETATM   12  C   UNL     1      41.015 -12.080  -2.079  1.00  0.00     0.035 A 
BRANCH  10  13
HETATM   13  O   UNL     1      41.389  -8.579  -2.961  1.00  0.00    -0.339 OA
HETATM   14  C   UNL     1      40.129  -8.014  -3.311  1.00  0.00     0.211 C 
ENDBRANCH  10  13
ENDBRANCH   4   7
ENDBRANCH   2   3
ENDBRANCH   1   2
BRANCH   1  15
HETATM   15  N   UNL     1      41.540 -16.515   2.449  1.00  0.00    -0.348 N 
HETATM   16  C   UNL     1      42.838 -16.898   2.181  1.00  0.00     0.252 C 
HETATM   17  O   UNL     1      43.594 -16.274   1.446  1.00  0.00    -0.268 OA
HETATM   18  H   UNL     1      41.067 -16.995   3.204  1.00  0.00     0.163 HD
BRANCH  16  19
HETATM   19  C   UNL     1      43.291 -18.122   2.882  1.00  0.00     0.032 A 
HETATM   20  C   UNL     1      43.789 -18.058   4.190  1.00  0.00     0.017 A 
HETATM   21  C   UNL     1      44.237 -19.221   4.816  1.00  0.00     0.001 A 
HETATM   22  C   UNL     1      44.192 -20.442   4.139  1.00  0.00     0.000 A 
HETATM   23  C   UNL     1      43.687 -20.505   2.839  1.00  0.00     0.001 A 
HETATM   24  C   UNL     1      43.228 -19.346   2.211  1.00  0.00     0.017 A 
ENDBRANCH  16  19
ENDBRANCH   1  15
BRANCH   1  25
HETATM   25  C   UNL     1      40.637 -14.468   3.397  1.00  0.00    -0.035 A 
HETATM   26  C   UNL     1      39.940 -13.252   3.317  1.00  0.00     0.009 A 
HETATM   27  C   UNL     1      39.531 -12.587   4.475  1.00  0.00     0.001 A 
HETATM   28  C   UNL     1      39.821 -13.124   5.727  1.00  0.00     0.000 A 
HETATM   29  C   UNL     1      40.522 -14.323   5.824  1.00  0.00     0.001 A 
HETATM   30  C   UNL     1      40.929 -14.991   4.668  1.00  0.00     0.009 A 
ENDBRANCH   1  25
TORSDOF 7
ENDMDL
MODEL 8
REMARK VINA RESULT:      -7.5     15.787     18.376
REMARK  7 active torsions:
REMARK  status: ('A' for Active; 'I' for Inactive)
REMARK    1  A    between atoms: O_2  and  C_3 
REMARK    2  A    between atoms: C_6  and  N_7 
REMARK       I    between atoms: N_7  and  C_8 
REMARK    3  A    between atoms: C_8  and  C_9 
REMARK    4  A    between atoms: C_9  and  C_10 
REMARK    5  A    between atoms: C_10  and  N_11 
REMARK    6  A    between atoms: C_10  and  C_20 
REMARK       I    between atoms: N_11  and  C_12 
REMARK    7  A    between atoms: C_12  and  C_13 
ROOT
HETATM    1  C   UNL     1      44.630 -28.657  -0.314  1.00  0.00     0.126 C 
ENDROOT
BRANCH   1   2
HETATM    2  C   UNL     1      46.009 -28.259   0.204  1.00  0.00     0.133 C 
BRANCH   2   3
HETATM    3  C   UNL     1      47.106 -29.311   0.159  1.00  0.00     0.224 C 
HETATM    4  N   UNL     1      48.386 -28.871  -0.103  1.00  0.00    -0.326 N 
HETATM    5  H   UNL     1      48.602 -27.891   0.043  1.00  0.00     0.169 HD
HETATM    6  O   UNL     1      46.786 -30.494   0.273  1.00  0.00    -0.273 OA
BRANCH   4   7
HETATM    7  C   UNL     1      49.489 -29.688  -0.446  1.00  0.00     0.052 A 
HETATM    8  C   UNL     1      50.308 -30.351   0.467  1.00  0.00     0.149 A 
HETATM    9  N   UNL     1      51.333 -31.175   0.123  1.00  0.00    -0.235 NA
HETATM   10  C   UNL     1      51.559 -31.342  -1.194  1.00  0.00     0.163 A 
HETATM   11  C   UNL     1      50.813 -30.721  -2.182  1.00  0.00     0.060 A 
HETATM   12  C   UNL     1      49.762 -29.887  -1.800  1.00  0.00     0.035 A 
BRANCH  10  13
HETATM   13  O   UNL     1      52.576 -32.172  -1.619  1.00  0.00    -0.339 OA
HETATM   14  C   UNL     1      52.815 -33.257  -0.727  1.00  0.00     0.211 C 
ENDBRANCH  10  13
ENDBRANCH   4   7
ENDBRANCH   2   3
ENDBRANCH   1   2
BRANCH   1  15
HETATM   15  N   UNL     1      44.083 -29.792   0.412  1.00  0.00    -0.348 N 
HETATM   16  C   UNL     1      42.811 -29.747   0.943  1.00  0.00     0.252 C 
HETATM   17  O   UNL     1      42.163 -28.716   1.073  1.00  0.00    -0.268 OA
HETATM   18  H   UNL     1      44.453 -30.706   0.182  1.00  0.00     0.163 HD
BRANCH  16  19
HETATM   19  C   UNL     1      42.241 -31.062   1.324  1.00  0.00     0.032 A 
HETATM   20  C   UNL     1      42.711 -32.245   0.740  1.00  0.00     0.017 A 
HETATM   21  C   UNL     1      42.137 -33.466   1.094  1.00  0.00     0.001 A 
HETATM   22  C   UNL     1      41.097 -33.505   2.024  1.00  0.00     0.000 A 
HETATM   23  C   UNL     1      40.636 -32.327   2.613  1.00  0.00     0.001 A 
HETATM   24  C   UNL     1      41.213 -31.103   2.270  1.00  0.00     0.017 A 
ENDBRANCH  16  19
ENDBRANCH   1  15
BRANCH   1  25
HETATM   25  C   UNL     1      44.666 -28.980  -1.803  1.00  0.00    -0.035 A 
HETATM   26  C   UNL     1      45.140 -28.024  -2.715  1.00  0.00     0.009 A 
HETATM   27  C   UNL     1      45.184 -28.302  -4.083  1.00  0.00     0.001 A 
HETATM   28  C   UNL     1      44.746 -29.536  -4.558  1.00  0.00     0.000 A 
HETATM   29  C   UNL     1      44.262 -30.492  -3.668  1.00  0.00     0.001 A 
HETATM   30  C   UNL     1      44.220 -30.217  -2.301  1.00  0.00     0.009 A 
ENDBRANCH   1  25
TORSDOF 7
ENDMDL
MODEL 9
REMARK VINA RESULT:      -7.4      2.778      8.296
REMARK  7 active torsions:
REMARK  status: ('A' for Active; 'I' for Inactive)
REMARK    1  A    between atoms: O_2  and  C_3 
REMARK    2  A    between atoms: C_6  and  N_7 
REMARK       I    between atoms: N_7  and  C_8 
REMARK    3  A    between atoms: C_8  and  C_9 
REMARK    4  A    between atoms: C_9  and  C_10 
REMARK    5  A    between atoms: C_10  and  N_11 
REMARK    6  A    between atoms: C_10  and  C_20 
REMARK       I    between atoms: N_11  and  C_12 
REMARK    7  A    between atoms: C_12  and  C_13 
ROOT
HETATM    1  C   UNL     1      41.144 -12.523   5.623  1.00  0.00     0.126 C 
ENDROOT
BRANCH   1   2
HETATM    2  C   UNL     1      40.450 -13.755   6.198  1.00  0.00     0.133 C 
BRANCH   2   3
HETATM    3  C   UNL     1      41.051 -15.113   5.877  1.00  0.00     0.224 C 
HETATM    4  N   UNL     1      42.145 -15.133   5.039  1.00  0.00    -0.326 N 
HETATM    5  H   UNL     1      42.678 -14.278   4.916  1.00  0.00     0.169 HD
HETATM    6  O   UNL     1      40.488 -16.119   6.309  1.00  0.00    -0.273 OA
BRANCH   4   7
HETATM    7  C   UNL     1      42.688 -16.278   4.411  1.00  0.00     0.052 A 
HETATM    8  C   UNL     1      43.562 -17.182   5.013  1.00  0.00     0.149 A 
HETATM    9  N   UNL     1      44.035 -18.307   4.415  1.00  0.00    -0.235 NA
HETATM   10  C   UNL     1      43.625 -18.542   3.153  1.00  0.00     0.163 A 
HETATM   11  C   UNL     1      42.768 -17.703   2.461  1.00  0.00     0.060 A 
HETATM   12  C   UNL     1      42.291 -16.558   3.102  1.00  0.00     0.035 A 
BRANCH  10  13
HETATM   13  O   UNL     1      44.055 -19.670   2.487  1.00  0.00    -0.339 OA
HETATM   14  C   UNL     1      43.839 -20.868   3.228  1.00  0.00     0.211 C 
ENDBRANCH  10  13
ENDBRANCH   4   7
ENDBRANCH   2   3
ENDBRANCH   1   2
BRANCH   1  15
HETATM   15  N   UNL     1      42.201 -12.038   6.496  1.00  0.00    -0.348 N 
HETATM   16  C   UNL     1      43.375 -11.533   5.977  1.00  0.00     0.252 C 
HETATM   17  O   UNL     1      43.723 -11.681   4.812  1.00  0.00    -0.268 OA
HETATM   18  H   UNL     1      41.924 -11.707   7.412  1.00  0.00     0.163 HD
BRANCH  16  19
HETATM   19  C   UNL     1      44.197 -10.747   6.927  1.00  0.00     0.032 A 
HETATM   20  C   UNL     1      43.616  -9.758   7.731  1.00  0.00     0.017 A 
HETATM   21  C   UNL     1      44.418  -9.011   8.595  1.00  0.00     0.001 A 
HETATM   22  C   UNL     1      45.793  -9.249   8.653  1.00  0.00     0.000 A 
HETATM   23  C   UNL     1      46.368 -10.241   7.857  1.00  0.00     0.001 A 
HETATM   24  C   UNL     1      45.570 -10.998   6.998  1.00  0.00     0.017 A 
ENDBRANCH  16  19
ENDBRANCH   1  15
BRANCH   1  25
HETATM   25  C   UNL     1      40.153 -11.397   5.357  1.00  0.00    -0.035 A 
HETATM   26  C   UNL     1      39.826 -10.496   6.383  1.00  0.00     0.009 A 
HETATM   27  C   UNL     1      38.923  -9.456   6.159  1.00  0.00     0.001 A 
HETATM   28  C   UNL     1      38.326  -9.307   4.909  1.00  0.00     0.000 A 
HETATM   29  C   UNL     1      38.630 -10.199   3.883  1.00  0.00     0.001 A 
HETATM   30  C   UNL     1      39.535 -11.237   4.105  1.00  0.00     0.009 A 
ENDBRANCH   1  25
TORSDOF 7
ENDMDL
MODEL 10
REMARK VINA RESULT:      -7.4     15.791     17.479
REMARK  7 active torsions:
REMARK  status: ('A' for Active; 'I' for Inactive)
REMARK    1  A    between atoms: O_2  and  C_3 
REMARK    2  A    between atoms: C_6  and  N_7 
REMARK       I    between atoms: N_7  and  C_8 
REMARK    3  A    between atoms: C_8  and  C_9 
REMARK    4  A    between atoms: C_9  and  C_10 
REMARK    5  A    between atoms: C_10  and  N_11 
REMARK    6  A    between atoms: C_10  and  C_20 
REMARK       I    between atoms: N_11  and  C_12 
REMARK    7  A    between atoms: C_12  and  C_13 
ROOT
HETATM    1  C   UNL     1      45.061 -30.335   2.211  1.00  0.00     0.126 C 
ENDROOT
BRANCH   1   2
HETATM    2  C   UNL     1      44.779 -31.759   2.683  1.00  0.00     0.133 C 
BRANCH   2   3
HETATM    3  C   UNL     1      43.389 -32.056   3.223  1.00  0.00     0.224 C 
HETATM    4  N   UNL     1      42.900 -31.211   4.196  1.00  0.00    -0.326 N 
HETATM    5  H   UNL     1      43.318 -30.292   4.296  1.00  0.00     0.169 HD
HETATM    6  O   UNL     1      42.815 -33.072   2.830  1.00  0.00    -0.273 OA
BRANCH   4   7
HETATM    7  C   UNL     1      41.766 -31.450   5.008  1.00  0.00     0.052 A 
HETATM    8  C   UNL     1      40.442 -31.335   4.588  1.00  0.00     0.149 A 
HETATM    9  N   UNL     1      39.363 -31.618   5.364  1.00  0.00    -0.235 NA
HETATM   10  C   UNL     1      39.612 -32.029   6.622  1.00  0.00     0.163 A 
HETATM   11  C   UNL     1      40.889 -32.166   7.142  1.00  0.00     0.060 A 
HETATM   12  C   UNL     1      41.979 -31.876   6.320  1.00  0.00     0.035 A 
BRANCH  10  13
HETATM   13  O   UNL     1      38.566 -32.345   7.464  1.00  0.00    -0.339 OA
HETATM   14  C   UNL     1      38.032 -33.644   7.221  1.00  0.00     0.211 C 
ENDBRANCH  10  13
ENDBRANCH   4   7
ENDBRANCH   2   3
ENDBRANCH   1   2
BRANCH   1  15
HETATM   15  N   UNL     1      45.081 -30.238   0.760  1.00  0.00    -0.348 N 
HETATM   16  C   UNL     1      44.060 -29.611   0.077  1.00  0.00     0.252 C 
HETATM   17  O   UNL     1      42.979 -29.328   0.578  1.00  0.00    -0.268 OA
HETATM   18  H   UNL     1      45.988 -30.261   0.311  1.00  0.00     0.163 HD
BRANCH  16  19
HETATM   19  C   UNL     1      44.368 -29.256  -1.329  1.00  0.00     0.032 A 
HETATM   20  C   UNL     1      45.153 -28.136  -1.631  1.00  0.00     0.017 A 
HETATM   21  C   UNL     1      45.403 -27.806  -2.963  1.00  0.00     0.001 A 
HETATM   22  C   UNL     1      44.869 -28.589  -3.989  1.00  0.00     0.000 A 
HETATM   23  C   UNL     1      44.095 -29.711  -3.686  1.00  0.00     0.001 A 
HETATM   24  C   UNL     1      43.850 -30.051  -2.355  1.00  0.00     0.017 A 
ENDBRANCH  16  19
ENDBRANCH   1  15
BRANCH   1  25
HETATM   25  C   UNL     1      46.379 -29.813   2.770  1.00  0.00    -0.035 A 
HETATM   26  C   UNL     1      46.981 -30.460   3.860  1.00  0.00     0.009 A 
HETATM   27  C   UNL     1      48.190 -29.999   4.385  1.00  0.00     0.001 A 
HETATM   28  C   UNL     1      48.809 -28.880   3.833  1.00  0.00     0.000 A 
HETATM   29  C   UNL     1      48.219 -28.218   2.758  1.00  0.00     0.001 A 
HETATM   30  C   UNL     1      47.012 -28.680   2.230  1.00  0.00     0.009 A 
ENDBRANCH   1  25
TORSDOF 7
ENDMDL
