MODEL 1
REMARK VINA RESULT:      -8.5      0.000      0.000
REMARK  2 active torsions:
REMARK  status: ('A' for Active; 'I' for Inactive)
REMARK    1  A    between atoms: C_11  and  N_12 
REMARK       I    between atoms: N_12  and  C_13 
REMARK    2  A    between atoms: C_13  and  C_14 
ROOT
HETATM    1  N   UNL     1      43.215 -14.560   4.316  1.00  0.00    -0.351 N 
HETATM    2  C   UNL     1      43.206 -15.629   3.432  1.00  0.00     0.273 C 
HETATM    3  O   UNL     1      42.965 -15.508   2.237  1.00  0.00    -0.266 OA
HETATM    4  H   UNL     1      43.200 -14.893   5.282  1.00  0.00     0.163 HD
ENDROOT
BRANCH   1   5
HETATM    5  C   UNL     1      42.708 -13.247   3.971  1.00  0.00     0.089 C 
HETATM    6  C   UNL     1      43.384 -12.086   4.711  1.00  0.00     0.063 C 
HETATM    7  C   UNL     1      43.030 -11.967   6.197  1.00  0.00     0.121 C 
HETATM    8  N   UNL     1      41.524 -12.016   6.362  1.00  0.00    -0.059 N 
HETATM    9  C   UNL     1      43.698 -13.015   7.092  1.00  0.00     0.046 C 
HETATM   10  C   UNL     1      43.468 -10.579   6.711  1.00  0.00     0.046 C 
HETATM   11  C   UNL     1      40.703 -13.041   5.609  1.00  0.00     0.121 C 
HETATM   12  H   UNL     1      41.166 -11.087   6.097  1.00  0.00     0.279 HD
HETATM   13  H   UNL     1      41.308 -12.091   7.367  1.00  0.00     0.279 HD
HETATM   14  C   UNL     1      40.699 -14.374   6.366  1.00  0.00     0.046 C 
HETATM   15  C   UNL     1      39.254 -12.508   5.611  1.00  0.00     0.046 C 
HETATM   16  C   UNL     1      41.190 -13.155   4.153  1.00  0.00     0.063 C 
ENDBRANCH   1   5
BRANCH   2  17
HETATM   17  C   UNL     1      43.528 -16.905   4.084  1.00  0.00     0.157 A 
HETATM   18  N   UNL     1      43.867 -16.943   5.394  1.00  0.00    -0.168 NA
HETATM   19  N   UNL     1      44.098 -18.253   5.622  1.00  0.00    -0.277 N 
HETATM   20  H   UNL     1      44.374 -18.544   6.553  1.00  0.00     0.189 HD
HETATM   21  C   UNL     1      43.924 -19.056   4.530  1.00  0.00     0.063 A 
HETATM   22  C   UNL     1      43.540 -18.204   3.501  1.00  0.00     0.028 A 
HETATM   23  C   UNL     1      44.066 -20.437   4.364  1.00  0.00     0.032 A 
HETATM   24  C   UNL     1      43.274 -18.749   2.229  1.00  0.00     0.016 A 
HETATM   25  C   UNL     1      43.407 -20.130   2.042  1.00  0.00     0.001 A 
HETATM   26  C   UNL     1      43.799 -20.957   3.093  1.00  0.00     0.002 A 
ENDBRANCH   2  17
TORSDOF 2
ENDMDL
MODEL 2
REMARK VINA RESULT:      -8.1      1.838      2.527
REMARK  2 active torsions:
REMARK  status: ('A' for Active; 'I' for Inactive)
REMARK    1  A    between atoms: C_11  and  N_12 
REMARK       I    between atoms: N_12  and  C_13 
REMARK    2  A    between atoms: C_13  and  C_14 
ROOT
HETATM    1  N   UNL     1      42.700 -15.649   4.691  1.00  0.00    -0.351 N 
HETATM    2  C   UNL     1      43.614 -16.145   5.610  1.00  0.00     0.273 C 
HETATM    3  O   UNL     1      44.324 -15.426   6.303  1.00  0.00    -0.266 OA
HETATM    4  H   UNL     1      42.388 -16.390   4.060  1.00  0.00     0.163 HD
ENDROOT
BRANCH   1   5
HETATM    5  C   UNL     1      42.665 -14.259   4.287  1.00  0.00     0.089 C 
HETATM    6  C   UNL     1      42.001 -13.315   5.298  1.00  0.00     0.063 C 
HETATM    7  C   UNL     1      40.478 -13.449   5.409  1.00  0.00     0.121 C 
HETATM    8  N   UNL     1      39.865 -13.407   4.024  1.00  0.00    -0.059 N 
HETATM    9  C   UNL     1      40.007 -14.697   6.162  1.00  0.00     0.046 C 
HETATM   10  C   UNL     1      39.917 -12.222   6.159  1.00  0.00     0.046 C 
HETATM   11  C   UNL     1      40.476 -14.202   2.890  1.00  0.00     0.121 C 
HETATM   12  H   UNL     1      39.859 -12.418   3.732  1.00  0.00     0.279 HD
HETATM   13  H   UNL     1      38.867 -13.651   4.101  1.00  0.00     0.279 HD
HETATM   14  C   UNL     1      39.970 -15.649   2.927  1.00  0.00     0.046 C 
HETATM   15  C   UNL     1      39.944 -13.564   1.590  1.00  0.00     0.046 C 
HETATM   16  C   UNL     1      42.010 -14.080   2.913  1.00  0.00     0.063 C 
ENDBRANCH   1   5
BRANCH   2  17
HETATM   17  C   UNL     1      43.622 -17.613   5.664  1.00  0.00     0.157 A 
HETATM   18  N   UNL     1      43.519 -18.259   6.849  1.00  0.00    -0.168 NA
HETATM   19  N   UNL     1      43.575 -19.562   6.503  1.00  0.00    -0.277 N 
HETATM   20  H   UNL     1      43.517 -20.263   7.234  1.00  0.00     0.189 HD
HETATM   21  C   UNL     1      43.708 -19.786   5.161  1.00  0.00     0.063 A 
HETATM   22  C   UNL     1      43.734 -18.525   4.576  1.00  0.00     0.028 A 
HETATM   23  C   UNL     1      43.803 -20.971   4.425  1.00  0.00     0.032 A 
HETATM   24  C   UNL     1      43.856 -18.427   3.177  1.00  0.00     0.016 A 
HETATM   25  C   UNL     1      43.949 -19.601   2.420  1.00  0.00     0.001 A 
HETATM   26  C   UNL     1      43.925 -20.850   3.036  1.00  0.00     0.002 A 
ENDBRANCH   2  17
TORSDOF 2
ENDMDL
MODEL 3
REMARK VINA RESULT:      -8.0      2.599      6.800
REMARK  2 active torsions:
REMARK  status: ('A' for Active; 'I' for Inactive)
REMARK    1  A    between atoms: C_11  and  N_12 
REMARK       I    between atoms: N_12  and  C_13 
REMARK    2  A    between atoms: C_13  and  C_14 
ROOT
HETATM    1  N   UNL     1      42.836 -13.398   3.567  1.00  0.00    -0.351 N 
HETATM    2  C   UNL     1      43.118 -12.057   3.788  1.00  0.00     0.273 C 
HETATM    3  O   UNL     1      43.421 -11.279   2.891  1.00  0.00    -0.266 OA
HETATM    4  H   UNL     1      42.841 -13.915   4.449  1.00  0.00     0.163 HD
ENDROOT
BRANCH   1   5
HETATM    5  C   UNL     1      43.106 -14.062   2.309  1.00  0.00     0.089 C 
HETATM    6  C   UNL     1      41.990 -13.931   1.264  1.00  0.00     0.063 C 
HETATM    7  C   UNL     1      40.723 -14.739   1.561  1.00  0.00     0.121 C 
HETATM    8  N   UNL     1      41.101 -16.170   1.888  1.00  0.00    -0.059 N 
HETATM    9  C   UNL     1      39.845 -14.154   2.671  1.00  0.00     0.046 C 
HETATM   10  C   UNL     1      39.859 -14.811   0.283  1.00  0.00     0.046 C 
HETATM   11  C   UNL     1      42.257 -16.462   2.822  1.00  0.00     0.121 C 
HETATM   12  H   UNL     1      41.311 -16.633   0.992  1.00  0.00     0.279 HD
HETATM   13  H   UNL     1      40.263 -16.659   2.233  1.00  0.00     0.279 HD
HETATM   14  C   UNL     1      41.789 -16.391   4.280  1.00  0.00     0.046 C 
HETATM   15  C   UNL     1      42.666 -17.924   2.543  1.00  0.00     0.046 C 
HETATM   16  C   UNL     1      43.449 -15.542   2.506  1.00  0.00     0.063 C 
ENDBRANCH   1   5
BRANCH   2  17
HETATM   17  C   UNL     1      42.998 -11.680   5.203  1.00  0.00     0.157 A 
HETATM   18  N   UNL     1      41.784 -11.602   5.795  1.00  0.00    -0.168 NA
HETATM   19  N   UNL     1      42.073 -11.225   7.058  1.00  0.00    -0.277 N 
HETATM   20  H   UNL     1      41.310 -11.096   7.714  1.00  0.00     0.189 HD
HETATM   21  C   UNL     1      43.406 -11.057   7.307  1.00  0.00     0.063 A 
HETATM   22  C   UNL     1      44.047 -11.357   6.110  1.00  0.00     0.028 A 
HETATM   23  C   UNL     1      44.091 -10.678   8.466  1.00  0.00     0.032 A 
HETATM   24  C   UNL     1      45.452 -11.282   6.054  1.00  0.00     0.016 A 
HETATM   25  C   UNL     1      46.158 -10.907   7.203  1.00  0.00     0.001 A 
HETATM   26  C   UNL     1      45.486 -10.608   8.387  1.00  0.00     0.002 A 
ENDBRANCH   2  17
TORSDOF 2
ENDMDL
MODEL 4
REMARK VINA RESULT:      -7.8      1.844      2.913
REMARK  2 active torsions:
REMARK  status: ('A' for Active; 'I' for Inactive)
REMARK    1  A    between atoms: C_11  and  N_12 
REMARK       I    between atoms: N_12  and  C_13 
REMARK    2  A    between atoms: C_13  and  C_14 
ROOT
HETATM    1  N   UNL     1      41.466 -14.359   4.936  1.00  0.00    -0.351 N 
HETATM    2  C   UNL     1      41.166 -15.385   5.820  1.00  0.00     0.273 C 
HETATM    3  O   UNL     1      40.161 -15.393   6.521  1.00  0.00    -0.266 OA
HETATM    4  H   UNL     1      42.439 -14.422   4.631  1.00  0.00     0.163 HD
ENDROOT
BRANCH   1   5
HETATM    5  C   UNL     1      40.761 -13.094   4.929  1.00  0.00     0.089 C 
HETATM    6  C   UNL     1      40.785 -12.356   3.584  1.00  0.00     0.063 C 
HETATM    7  C   UNL     1      42.137 -11.746   3.201  1.00  0.00     0.121 C 
HETATM    8  N   UNL     1      42.672 -10.934   4.364  1.00  0.00    -0.059 N 
HETATM    9  C   UNL     1      43.182 -12.765   2.737  1.00  0.00     0.046 C 
HETATM   10  C   UNL     1      41.929 -10.744   2.045  1.00  0.00     0.046 C 
HETATM   11  C   UNL     1      42.617 -11.485   5.773  1.00  0.00     0.121 C 
HETATM   12  H   UNL     1      42.155 -10.043   4.366  1.00  0.00     0.279 HD
HETATM   13  H   UNL     1      43.643 -10.660   4.152  1.00  0.00     0.279 HD
HETATM   14  C   UNL     1      43.819 -12.402   6.029  1.00  0.00     0.046 C 
HETATM   15  C   UNL     1      42.762 -10.267   6.710  1.00  0.00     0.046 C 
HETATM   16  C   UNL     1      41.258 -12.157   6.034  1.00  0.00     0.063 C 
ENDBRANCH   1   5
BRANCH   2  17
HETATM   17  C   UNL     1      42.172 -16.455   5.808  1.00  0.00     0.157 A 
HETATM   18  N   UNL     1      42.706 -16.911   6.965  1.00  0.00    -0.168 NA
HETATM   19  N   UNL     1      43.578 -17.858   6.558  1.00  0.00    -0.277 N 
HETATM   20  H   UNL     1      44.115 -18.358   7.258  1.00  0.00     0.189 HD
HETATM   21  C   UNL     1      43.631 -18.032   5.204  1.00  0.00     0.063 A 
HETATM   22  C   UNL     1      42.712 -17.131   4.678  1.00  0.00     0.028 A 
HETATM   23  C   UNL     1      44.394 -18.895   4.411  1.00  0.00     0.032 A 
HETATM   24  C   UNL     1      42.531 -17.082   3.282  1.00  0.00     0.016 A 
HETATM   25  C   UNL     1      43.283 -17.939   2.469  1.00  0.00     0.001 A 
HETATM   26  C   UNL     1      44.200 -18.827   3.027  1.00  0.00     0.002 A 
ENDBRANCH   2  17
TORSDOF 2
ENDMDL
MODEL 5
REMARK VINA RESULT:      -7.7      2.380      3.856
REMARK  2 active torsions:
REMARK  status: ('A' for Active; 'I' for Inactive)
REMARK    1  A    between atoms: C_11  and  N_12 
REMARK       I    between atoms: N_12  and  C_13 
REMARK    2  A    between atoms: C_13  and  C_14 
ROOT
HETATM    1  N   UNL     1      40.881 -14.901   4.170  1.00  0.00    -0.351 N 
HETATM    2  C   UNL     1      41.044 -15.309   5.487  1.00  0.00     0.273 C 
HETATM    3  O   UNL     1      40.400 -14.842   6.418  1.00  0.00    -0.266 OA
HETATM    4  H   UNL     1      41.658 -15.230   3.594  1.00  0.00     0.163 HD
ENDROOT
BRANCH   1   5
HETATM    5  C   UNL     1      40.119 -13.727   3.798  1.00  0.00     0.089 C 
HETATM    6  C   UNL     1      39.464 -13.802   2.413  1.00  0.00     0.063 C 
HETATM    7  C   UNL     1      40.434 -13.699   1.230  1.00  0.00     0.121 C 
HETATM    8  N   UNL     1      41.342 -12.501   1.424  1.00  0.00    -0.059 N 
HETATM    9  C   UNL     1      41.264 -14.962   0.981  1.00  0.00     0.046 C 
HETATM   10  C   UNL     1      39.630 -13.417  -0.058  1.00  0.00     0.046 C 
HETATM   11  C   UNL     1      41.977 -12.232   2.772  1.00  0.00     0.121 C 
HETATM   12  H   UNL     1      40.790 -11.667   1.177  1.00  0.00     0.279 HD
HETATM   13  H   UNL     1      42.083 -12.533   0.709  1.00  0.00     0.279 HD
HETATM   14  C   UNL     1      43.256 -13.062   2.929  1.00  0.00     0.046 C 
HETATM   15  C   UNL     1      42.395 -10.746   2.753  1.00  0.00     0.046 C 
HETATM   16  C   UNL     1      40.954 -12.447   3.901  1.00  0.00     0.063 C 
ENDBRANCH   1   5
BRANCH   2  17
HETATM   17  C   UNL     1      42.058 -16.363   5.631  1.00  0.00     0.157 A 
HETATM   18  N   UNL     1      42.518 -16.713   6.854  1.00  0.00    -0.168 NA
HETATM   19  N   UNL     1      43.422 -17.679   6.586  1.00  0.00    -0.277 N 
HETATM   20  H   UNL     1      43.916 -18.111   7.359  1.00  0.00     0.189 HD
HETATM   21  C   UNL     1      43.566 -17.965   5.258  1.00  0.00     0.063 A 
HETATM   22  C   UNL     1      42.677 -17.124   4.599  1.00  0.00     0.028 A 
HETATM   23  C   UNL     1      44.387 -18.881   4.592  1.00  0.00     0.032 A 
HETATM   24  C   UNL     1      42.588 -17.194   3.195  1.00  0.00     0.016 A 
HETATM   25  C   UNL     1      43.398 -18.105   2.508  1.00  0.00     0.001 A 
HETATM   26  C   UNL     1      44.284 -18.932   3.197  1.00  0.00     0.002 A 
ENDBRANCH   2  17
TORSDOF 2
ENDMDL
MODEL 6
REMARK VINA RESULT:      -7.6      4.382      6.794
REMARK  2 active torsions:
REMARK  status: ('A' for Active; 'I' for Inactive)
REMARK    1  A    between atoms: C_11  and  N_12 
REMARK       I    between atoms: N_12  and  C_13 
REMARK    2  A    between atoms: C_13  and  C_14 
ROOT
HETATM    1  N   UNL     1      40.565 -14.465   2.102  1.00  0.00    -0.351 N 
HETATM    2  C   UNL     1      39.619 -13.452   2.042  1.00  0.00     0.273 C 
HETATM    3  O   UNL     1      38.865 -13.184   2.970  1.00  0.00    -0.266 OA
HETATM    4  H   UNL     1      40.920 -14.680   1.168  1.00  0.00     0.163 HD
ENDROOT
BRANCH   1   5
HETATM    5  C   UNL     1      40.594 -15.455   3.159  1.00  0.00     0.089 C 
HETATM    6  C   UNL     1      41.133 -14.944   4.501  1.00  0.00     0.063 C 
HETATM    7  C   UNL     1      42.642 -14.681   4.538  1.00  0.00     0.121 C 
HETATM    8  N   UNL     1      43.378 -15.889   3.993  1.00  0.00    -0.059 N 
HETATM    9  C   UNL     1      43.081 -13.413   3.800  1.00  0.00     0.046 C 
HETATM   10  C   UNL     1      43.093 -14.538   6.007  1.00  0.00     0.046 C 
HETATM   11  C   UNL     1      42.898 -16.574   2.731  1.00  0.00     0.121 C 
HETATM   12  H   UNL     1      43.379 -16.598   4.741  1.00  0.00     0.279 HD
HETATM   13  H   UNL     1      44.372 -15.643   3.880  1.00  0.00     0.279 HD
HETATM   14  C   UNL     1      43.444 -15.848   1.496  1.00  0.00     0.046 C 
HETATM   15  C   UNL     1      43.527 -17.984   2.748  1.00  0.00     0.046 C 
HETATM   16  C   UNL     1      41.366 -16.712   2.744  1.00  0.00     0.063 C 
ENDBRANCH   1   5
BRANCH   2  17
HETATM   17  C   UNL     1      39.636 -12.738   0.759  1.00  0.00     0.157 A 
HETATM   18  N   UNL     1      39.801 -11.395   0.720  1.00  0.00    -0.168 NA
HETATM   19  N   UNL     1      39.749 -11.109  -0.598  1.00  0.00    -0.277 N 
HETATM   20  H   UNL     1      39.850 -10.143  -0.891  1.00  0.00     0.189 HD
HETATM   21  C   UNL     1      39.560 -12.196  -1.404  1.00  0.00     0.063 A 
HETATM   22  C   UNL     1      39.489 -13.287  -0.546  1.00  0.00     0.028 A 
HETATM   23  C   UNL     1      39.450 -12.309  -2.794  1.00  0.00     0.032 A 
HETATM   24  C   UNL     1      39.304 -14.572  -1.093  1.00  0.00     0.016 A 
HETATM   25  C   UNL     1      39.195 -14.708  -2.482  1.00  0.00     0.001 A 
HETATM   26  C   UNL     1      39.265 -13.594  -3.316  1.00  0.00     0.002 A 
ENDBRANCH   2  17
TORSDOF 2
ENDMDL
MODEL 7
REMARK VINA RESULT:      -7.4      4.510      6.859
REMARK  2 active torsions:
REMARK  status: ('A' for Active; 'I' for Inactive)
REMARK    1  A    between atoms: C_11  and  N_12 
REMARK       I    between atoms: N_12  and  C_13 
REMARK    2  A    between atoms: C_13  and  C_14 
ROOT
HETATM    1  N   UNL     1      41.811 -13.690   1.136  1.00  0.00    -0.351 N 
HETATM    2  C   UNL     1      41.310 -12.411   0.939  1.00  0.00     0.273 C 
HETATM    3  O   UNL     1      41.922 -11.397   1.253  1.00  0.00    -0.266 OA
HETATM    4  H   UNL     1      41.069 -14.385   1.032  1.00  0.00     0.163 HD
ENDROOT
BRANCH   1   5
HETATM    5  C   UNL     1      42.983 -13.962   1.943  1.00  0.00     0.089 C 
HETATM    6  C   UNL     1      43.417 -15.433   1.965  1.00  0.00     0.063 C 
HETATM    7  C   UNL     1      42.500 -16.369   2.760  1.00  0.00     0.121 C 
HETATM    8  N   UNL     1      42.241 -15.778   4.131  1.00  0.00    -0.059 N 
HETATM    9  C   UNL     1      41.177 -16.700   2.063  1.00  0.00     0.046 C 
HETATM   10  C   UNL     1      43.235 -17.705   3.007  1.00  0.00     0.046 C 
HETATM   11  C   UNL     1      41.907 -14.309   4.281  1.00  0.00     0.121 C 
HETATM   12  H   UNL     1      43.084 -15.956   4.696  1.00  0.00     0.279 HD
HETATM   13  H   UNL     1      41.507 -16.334   4.594  1.00  0.00     0.279 HD
HETATM   14  C   UNL     1      40.410 -14.080   4.043  1.00  0.00     0.046 C 
HETATM   15  C   UNL     1      42.195 -13.958   5.757  1.00  0.00     0.046 C 
HETATM   16  C   UNL     1      42.817 -13.456   3.380  1.00  0.00     0.063 C 
ENDBRANCH   1   5
BRANCH   2  17
HETATM   17  C   UNL     1      39.985 -12.414   0.307  1.00  0.00     0.157 A 
HETATM   18  N   UNL     1      38.944 -11.771   0.886  1.00  0.00    -0.168 NA
HETATM   19  N   UNL     1      37.920 -12.003   0.039  1.00  0.00    -0.277 N 
HETATM   20  H   UNL     1      37.009 -11.615   0.259  1.00  0.00     0.189 HD
HETATM   21  C   UNL     1      38.248 -12.759  -1.051  1.00  0.00     0.063 A 
HETATM   22  C   UNL     1      39.602 -13.041  -0.913  1.00  0.00     0.028 A 
HETATM   23  C   UNL     1      37.481 -13.208  -2.131  1.00  0.00     0.032 A 
HETATM   24  C   UNL     1      40.242 -13.810  -1.905  1.00  0.00     0.016 A 
HETATM   25  C   UNL     1      39.493 -14.267  -2.996  1.00  0.00     0.001 A 
HETATM   26  C   UNL     1      38.136 -13.972  -3.103  1.00  0.00     0.002 A 
ENDBRANCH   2  17
TORSDOF 2
ENDMDL
MODEL 8
REMARK VINA RESULT:      -7.2      3.768      6.841
REMARK  2 active torsions:
REMARK  status: ('A' for Active; 'I' for Inactive)
REMARK    1  A    between atoms: C_11  and  N_12 
REMARK       I    between atoms: N_12  and  C_13 
REMARK    2  A    between atoms: C_13  and  C_14 
ROOT
HETATM    1  N   UNL     1      40.615 -14.642   2.167  1.00  0.00    -0.351 N 
HETATM    2  C   UNL     1      40.135 -14.918   0.895  1.00  0.00     0.273 C 
HETATM    3  O   UNL     1      39.526 -15.944   0.617  1.00  0.00    -0.266 OA
HETATM    4  H   UNL     1      41.285 -13.870   2.138  1.00  0.00     0.163 HD
ENDROOT
BRANCH   1   5
HETATM    5  C   UNL     1      40.661 -15.631   3.224  1.00  0.00     0.089 C 
HETATM    6  C   UNL     1      41.129 -15.095   4.583  1.00  0.00     0.063 C 
HETATM    7  C   UNL     1      42.621 -14.755   4.668  1.00  0.00     0.121 C 
HETATM    8  N   UNL     1      43.436 -15.922   4.147  1.00  0.00    -0.059 N 
HETATM    9  C   UNL     1      43.018 -13.464   3.945  1.00  0.00     0.046 C 
HETATM   10  C   UNL     1      43.017 -14.591   6.151  1.00  0.00     0.046 C 
HETATM   11  C   UNL     1      43.033 -16.629   2.870  1.00  0.00     0.121 C 
HETATM   12  H   UNL     1      43.449 -16.632   4.894  1.00  0.00     0.279 HD
HETATM   13  H   UNL     1      44.419 -15.625   4.066  1.00  0.00     0.279 HD
HETATM   14  C   UNL     1      43.579 -15.873   1.653  1.00  0.00     0.046 C 
HETATM   15  C   UNL     1      43.733 -18.004   2.908  1.00  0.00     0.046 C 
HETATM   16  C   UNL     1      41.510 -16.846   2.834  1.00  0.00     0.063 C 
ENDBRANCH   1   5
BRANCH   2  17
HETATM   17  C   UNL     1      40.426 -13.845  -0.065  1.00  0.00     0.157 A 
HETATM   18  N   UNL     1      40.343 -14.071  -1.397  1.00  0.00    -0.168 NA
HETATM   19  N   UNL     1      40.685 -12.884  -1.940  1.00  0.00    -0.277 N 
HETATM   20  H   UNL     1      40.699 -12.796  -2.950  1.00  0.00     0.189 HD
HETATM   21  C   UNL     1      40.982 -11.910  -1.028  1.00  0.00     0.063 A 
HETATM   22  C   UNL     1      40.813 -12.504   0.217  1.00  0.00     0.028 A 
HETATM   23  C   UNL     1      41.374 -10.578  -1.191  1.00  0.00     0.032 A 
HETATM   24  C   UNL     1      41.041 -11.735   1.375  1.00  0.00     0.016 A 
HETATM   25  C   UNL     1      41.431 -10.398   1.234  1.00  0.00     0.001 A 
HETATM   26  C   UNL     1      41.596  -9.832  -0.028  1.00  0.00     0.002 A 
ENDBRANCH   2  17
TORSDOF 2
ENDMDL
MODEL 9
REMARK VINA RESULT:      -7.2      3.582      5.107
REMARK  2 active torsions:
REMARK  status: ('A' for Active; 'I' for Inactive)
REMARK    1  A    between atoms: C_11  and  N_12 
REMARK       I    between atoms: N_12  and  C_13 
REMARK    2  A    between atoms: C_13  and  C_14 
ROOT
HETATM    1  N   UNL     1      41.555 -11.569   2.870  1.00  0.00    -0.351 N 
HETATM    2  C   UNL     1      42.815 -11.924   3.332  1.00  0.00     0.273 C 
HETATM    3  O   UNL     1      43.776 -11.165   3.304  1.00  0.00    -0.266 OA
HETATM    4  H   UNL     1      40.966 -12.397   2.762  1.00  0.00     0.163 HD
ENDROOT
BRANCH   1   5
HETATM    5  C   UNL     1      41.309 -10.370   2.095  1.00  0.00     0.089 C 
HETATM    6  C   UNL     1      39.883  -9.814   2.212  1.00  0.00     0.063 C 
HETATM    7  C   UNL     1      38.804 -10.642   1.506  1.00  0.00     0.121 C 
HETATM    8  N   UNL     1      39.241 -10.935   0.085  1.00  0.00    -0.059 N 
HETATM    9  C   UNL     1      38.429 -11.940   2.227  1.00  0.00     0.046 C 
HETATM   10  C   UNL     1      37.518  -9.795   1.387  1.00  0.00     0.046 C 
HETATM   11  C   UNL     1      40.656 -11.389  -0.203  1.00  0.00     0.121 C 
HETATM   12  H   UNL     1      39.082 -10.075  -0.458  1.00  0.00     0.279 HD
HETATM   13  H   UNL     1      38.584 -11.616  -0.325  1.00  0.00     0.279 HD
HETATM   14  C   UNL     1      40.780 -12.902   0.010  1.00  0.00     0.046 C 
HETATM   15  C   UNL     1      40.891 -11.116  -1.704  1.00  0.00     0.046 C 
HETATM   16  C   UNL     1      41.663 -10.563   0.617  1.00  0.00     0.063 C 
ENDBRANCH   1   5
BRANCH   2  17
HETATM   17  C   UNL     1      42.857 -13.292   3.864  1.00  0.00     0.157 A 
HETATM   18  N   UNL     1      42.739 -13.518   5.192  1.00  0.00    -0.168 NA
HETATM   19  N   UNL     1      42.836 -14.861   5.293  1.00  0.00    -0.277 N 
HETATM   20  H   UNL     1      42.777 -15.286   6.212  1.00  0.00     0.189 HD
HETATM   21  C   UNL     1      43.010 -15.506   4.101  1.00  0.00     0.063 A 
HETATM   22  C   UNL     1      43.020 -14.505   3.136  1.00  0.00     0.028 A 
HETATM   23  C   UNL     1      43.153 -16.863   3.795  1.00  0.00     0.032 A 
HETATM   24  C   UNL     1      43.175 -14.866   1.784  1.00  0.00     0.016 A 
HETATM   25  C   UNL     1      43.317 -16.219   1.455  1.00  0.00     0.001 A 
HETATM   26  C   UNL     1      43.308 -17.199   2.446  1.00  0.00     0.002 A 
ENDBRANCH   2  17
TORSDOF 2
ENDMDL
MODEL 10
REMARK VINA RESULT:      -7.0      3.377      6.939
REMARK  2 active torsions:
REMARK  status: ('A' for Active; 'I' for Inactive)
REMARK    1  A    between atoms: C_11  and  N_12 
REMARK       I    between atoms: N_12  and  C_13 
REMARK    2  A    between atoms: C_13  and  C_14 
ROOT
HETATM    1  N   UNL     1      43.126 -12.561   5.008  1.00  0.00    -0.351 N 
HETATM    2  C   UNL     1      44.163 -11.640   4.956  1.00  0.00     0.273 C 
HETATM    3  O   UNL     1      44.669 -11.260   3.907  1.00  0.00    -0.266 OA
HETATM    4  H   UNL     1      43.010 -12.916   5.960  1.00  0.00     0.163 HD
ENDROOT
BRANCH   1   5
HETATM    5  C   UNL     1      42.707 -13.341   3.863  1.00  0.00     0.089 C 
HETATM    6  C   UNL     1      41.545 -12.734   3.065  1.00  0.00     0.063 C 
HETATM    7  C   UNL     1      40.180 -12.792   3.760  1.00  0.00     0.121 C 
HETATM    8  N   UNL     1      39.924 -14.201   4.254  1.00  0.00    -0.059 N 
HETATM    9  C   UNL     1      40.010 -11.788   4.903  1.00  0.00     0.046 C 
HETATM   10  C   UNL     1      39.074 -12.499   2.723  1.00  0.00     0.046 C 
HETATM   11  C   UNL     1      41.015 -14.974   4.965  1.00  0.00     0.121 C 
HETATM   12  H   UNL     1      39.645 -14.758   3.432  1.00  0.00     0.279 HD
HETATM   13  H   UNL     1      39.083 -14.192   4.848  1.00  0.00     0.279 HD
HETATM   14  C   UNL     1      41.045 -14.599   6.451  1.00  0.00     0.046 C 
HETATM   15  C   UNL     1      40.608 -16.461   4.876  1.00  0.00     0.046 C 
HETATM   16  C   UNL     1      42.363 -14.784   4.248  1.00  0.00     0.063 C 
ENDBRANCH   1   5
BRANCH   2  17
HETATM   17  C   UNL     1      44.568 -11.168   6.287  1.00  0.00     0.157 A 
HETATM   18  N   UNL     1      45.824 -11.386   6.742  1.00  0.00    -0.168 NA
HETATM   19  N   UNL     1      45.813 -10.833   7.973  1.00  0.00    -0.277 N 
HETATM   20  H   UNL     1      46.660 -10.868   8.530  1.00  0.00     0.189 HD
HETATM   21  C   UNL     1      44.619 -10.273   8.331  1.00  0.00     0.063 A 
HETATM   22  C   UNL     1      43.777 -10.467   7.241  1.00  0.00     0.028 A 
HETATM   23  C   UNL     1      44.216  -9.619   9.500  1.00  0.00     0.032 A 
HETATM   24  C   UNL     1      42.457  -9.981   7.307  1.00  0.00     0.016 A 
HETATM   25  C   UNL     1      42.034  -9.321   8.467  1.00  0.00     0.001 A 
HETATM   26  C   UNL     1      42.900  -9.147   9.544  1.00  0.00     0.002 A 
ENDBRANCH   2  17
TORSDOF 2
ENDMDL
