MODEL 1
REMARK VINA RESULT:      -9.5      0.000      0.000
REMARK  8 active torsions:
REMARK  status: ('A' for Active; 'I' for Inactive)
REMARK    1  A    between atoms: C_2  and  N_3 
REMARK       I    between atoms: N_3  and  C_4 
REMARK       I    between atoms: C_4  and  N_5 
REMARK    2  A    between atoms: N_5  and  C_6 
REMARK    3  A    between atoms: N_5  and  C_22 
REMARK    4  A    between atoms: C_6  and  C_7 
REMARK    5  A    between atoms: C_8  and  O_9 
REMARK    6  A    between atoms: C_22  and  C_23 
REMARK    7  A    between atoms: C_23  and  C_24 
REMARK    8  A    between atoms: C_24  and  N_25 
ROOT
HETATM    1  N   UNL     1      42.714 -16.387   3.232  1.00  0.00    -0.309 N 
HETATM    2  C   UNL     1      41.731 -15.818   4.005  1.00  0.00     0.323 C 
HETATM    3  N   UNL     1      41.261 -14.587   3.539  1.00  0.00    -0.330 N 
HETATM    4  O   UNL     1      41.239 -16.330   5.008  1.00  0.00    -0.247 OA
HETATM    5  H   UNL     1      43.344 -15.738   2.783  1.00  0.00     0.170 HD
ENDROOT
BRANCH   3   6
HETATM    6  C   UNL     1      40.280 -13.890   4.382  1.00  0.00     0.170 C 
BRANCH   6   7
HETATM    7  C   UNL     1      40.892 -12.841   5.261  1.00  0.00     0.013 A 
HETATM    8  C   UNL     1      40.160 -11.774   5.765  1.00  0.00     0.170 A 
HETATM    9  N   UNL     1      40.680 -10.759   6.475  1.00  0.00    -0.224 NA
HETATM   10  C   UNL     1      41.995 -10.773   6.739  1.00  0.00     0.072 A 
HETATM   11  C   UNL     1      42.834 -11.822   6.305  1.00  0.00    -0.004 A 
HETATM   12  C   UNL     1      42.558  -9.726   7.453  1.00  0.00     0.072 A 
HETATM   13  C   UNL     1      42.257 -12.865   5.564  1.00  0.00     0.027 A 
HETATM   14  C   UNL     1      44.210 -11.794   6.591  1.00  0.00     0.053 A 
HETATM   15  C   UNL     1      44.752 -10.721   7.291  1.00  0.00     0.103 A 
HETATM   16  C   UNL     1      43.923  -9.696   7.740  1.00  0.00     0.104 A 
HETATM   17  O   UNL     1      46.106 -10.740   7.499  1.00  0.00    -0.346 OA
HETATM   18  O   UNL     1      44.379  -8.617   8.454  1.00  0.00    -0.346 OA
HETATM   19  C   UNL     1      45.701  -8.839   8.958  1.00  0.00     0.202 C 
HETATM   20  C   UNL     1      46.590  -9.446   7.886  1.00  0.00     0.202 C 
BRANCH   8  21
HETATM   21  O   UNL     1      38.821 -11.664   5.536  1.00  0.00    -0.344 OA
HETATM   22  H   UNL     1      38.495 -10.956   6.130  1.00  0.00     0.219 HD
ENDBRANCH   8  21
ENDBRANCH   6   7
ENDBRANCH   3   6
BRANCH   3  23
HETATM   23  C   UNL     1      41.467 -14.085   2.177  1.00  0.00     0.129 C 
BRANCH  23  24
HETATM   24  C   UNL     1      40.210 -14.186   1.296  1.00  0.00     0.048 C 
BRANCH  24  25
HETATM   25  C   UNL     1      39.754 -12.833   0.757  1.00  0.00     0.236 C 
BRANCH  25  26
HETATM   26  N   UNL     1      39.707 -12.831  -0.758  1.00  0.00    -0.067 N 
HETATM   27  H   UNL     1      38.923 -12.232  -1.051  1.00  0.00     0.280 HD
HETATM   28  C   UNL     1      40.978 -12.199  -1.342  1.00  0.00     0.261 C 
HETATM   29  C   UNL     1      40.906 -12.203  -2.871  1.00  0.00     0.195 C 
HETATM   30  O   UNL     1      40.728 -13.534  -3.368  1.00  0.00    -0.388 OA
HETATM   31  C   UNL     1      39.508 -14.113  -2.901  1.00  0.00     0.195 C 
HETATM   32  C   UNL     1      39.499 -14.215  -1.371  1.00  0.00     0.261 C 
ENDBRANCH  25  26
ENDBRANCH  24  25
ENDBRANCH  23  24
ENDBRANCH   3  23
BRANCH   1  33
HETATM   33  C   UNL     1      43.170 -17.722   3.286  1.00  0.00     0.036 A 
HETATM   34  C   UNL     1      43.872 -18.258   4.371  1.00  0.00     0.032 A 
HETATM   35  C   UNL     1      44.262 -19.601   4.368  1.00  0.00     0.044 A 
HETATM   36  C   UNL     1      43.938 -20.409   3.288  1.00  0.00     0.116 A 
HETATM   37  C   UNL     1      43.234 -19.899   2.205  1.00  0.00     0.044 A 
HETATM   38  F   UNL     1      44.303 -21.698   3.292  1.00  0.00    -0.206 F 
HETATM   39  C   UNL     1      42.849 -18.557   2.204  1.00  0.00     0.032 A 
ENDBRANCH   1  33
TORSDOF 8
ENDMDL
MODEL 2
REMARK VINA RESULT:      -9.3      1.599      7.544
REMARK  8 active torsions:
REMARK  status: ('A' for Active; 'I' for Inactive)
REMARK    1  A    between atoms: C_2  and  N_3 
REMARK       I    between atoms: N_3  and  C_4 
REMARK       I    between atoms: C_4  and  N_5 
REMARK    2  A    between atoms: N_5  and  C_6 
REMARK    3  A    between atoms: N_5  and  C_22 
REMARK    4  A    between atoms: C_6  and  C_7 
REMARK    5  A    between atoms: C_8  and  O_9 
REMARK    6  A    between atoms: C_22  and  C_23 
REMARK    7  A    between atoms: C_23  and  C_24 
REMARK    8  A    between atoms: C_24  and  N_25 
ROOT
HETATM    1  N   UNL     1      43.184 -16.469   5.287  1.00  0.00    -0.309 N 
HETATM    2  C   UNL     1      41.941 -15.885   5.279  1.00  0.00     0.323 C 
HETATM    3  N   UNL     1      41.947 -14.496   5.441  1.00  0.00    -0.330 N 
HETATM    4  O   UNL     1      40.882 -16.483   5.101  1.00  0.00    -0.247 OA
HETATM    5  H   UNL     1      43.867 -16.030   5.887  1.00  0.00     0.170 HD
ENDROOT
BRANCH   3   6
HETATM    6  C   UNL     1      40.639 -13.835   5.537  1.00  0.00     0.170 C 
BRANCH   6   7
HETATM    7  C   UNL     1      40.182 -13.230   4.244  1.00  0.00     0.013 A 
HETATM    8  C   UNL     1      39.469 -12.040   4.190  1.00  0.00     0.170 A 
HETATM    9  N   UNL     1      38.956 -11.507   3.069  1.00  0.00    -0.224 NA
HETATM   10  C   UNL     1      39.153 -12.151   1.909  1.00  0.00     0.072 A 
HETATM   11  C   UNL     1      39.890 -13.354   1.836  1.00  0.00    -0.004 A 
HETATM   12  C   UNL     1      38.615 -11.631   0.741  1.00  0.00     0.072 A 
HETATM   13  C   UNL     1      40.410 -13.881   3.027  1.00  0.00     0.027 A 
HETATM   14  C   UNL     1      40.064 -14.004   0.602  1.00  0.00     0.053 A 
HETATM   15  C   UNL     1      39.496 -13.471  -0.551  1.00  0.00     0.103 A 
HETATM   16  C   UNL     1      38.788 -12.274  -0.486  1.00  0.00     0.104 A 
HETATM   17  O   UNL     1      39.672 -14.180  -1.710  1.00  0.00    -0.346 OA
HETATM   18  O   UNL     1      38.218 -11.676  -1.581  1.00  0.00    -0.346 OA
HETATM   19  C   UNL     1      38.714 -12.232  -2.804  1.00  0.00     0.202 C 
HETATM   20  C   UNL     1      38.756 -13.749  -2.726  1.00  0.00     0.202 C 
BRANCH   8  21
HETATM   21  O   UNL     1      39.205 -11.323   5.318  1.00  0.00    -0.344 OA
HETATM   22  H   UNL     1      38.727 -10.517   5.030  1.00  0.00     0.219 HD
ENDBRANCH   8  21
ENDBRANCH   6   7
ENDBRANCH   3   6
BRANCH   3  23
HETATM   23  C   UNL     1      43.127 -13.648   5.254  1.00  0.00     0.129 C 
BRANCH  23  24
HETATM   24  C   UNL     1      43.606 -12.978   6.553  1.00  0.00     0.048 C 
BRANCH  24  25
HETATM   25  C   UNL     1      43.119 -11.539   6.693  1.00  0.00     0.236 C 
BRANCH  25  26
HETATM   26  N   UNL     1      44.052 -10.724   7.566  1.00  0.00    -0.067 N 
HETATM   27  H   UNL     1      44.133 -11.200   8.475  1.00  0.00     0.280 HD
HETATM   28  C   UNL     1      45.465 -10.687   6.968  1.00  0.00     0.261 C 
HETATM   29  C   UNL     1      46.390  -9.864   7.869  1.00  0.00     0.195 C 
HETATM   30  O   UNL     1      45.879  -8.539   8.045  1.00  0.00    -0.388 OA
HETATM   31  C   UNL     1      44.597  -8.546   8.676  1.00  0.00     0.195 C 
HETATM   32  C   UNL     1      43.569  -9.297   7.822  1.00  0.00     0.261 C 
ENDBRANCH  25  26
ENDBRANCH  24  25
ENDBRANCH  23  24
ENDBRANCH   3  23
BRANCH   1  33
HETATM   33  C   UNL     1      43.509 -17.779   4.871  1.00  0.00     0.036 A 
HETATM   34  C   UNL     1      43.685 -18.851   5.753  1.00  0.00     0.032 A 
HETATM   35  C   UNL     1      43.973 -20.129   5.264  1.00  0.00     0.044 A 
HETATM   36  C   UNL     1      44.071 -20.337   3.895  1.00  0.00     0.116 A 
HETATM   37  C   UNL     1      43.891 -19.288   3.003  1.00  0.00     0.044 A 
HETATM   38  F   UNL     1      44.335 -21.564   3.428  1.00  0.00    -0.206 F 
HETATM   39  C   UNL     1      43.609 -18.009   3.490  1.00  0.00     0.032 A 
ENDBRANCH   1  33
TORSDOF 8
ENDMDL
MODEL 3
REMARK VINA RESULT:      -9.3      2.111      7.091
REMARK  8 active torsions:
REMARK  status: ('A' for Active; 'I' for Inactive)
REMARK    1  A    between atoms: C_2  and  N_3 
REMARK       I    between atoms: N_3  and  C_4 
REMARK       I    between atoms: C_4  and  N_5 
REMARK    2  A    between atoms: N_5  and  C_6 
REMARK    3  A    between atoms: N_5  and  C_22 
REMARK    4  A    between atoms: C_6  and  C_7 
REMARK    5  A    between atoms: C_8  and  O_9 
REMARK    6  A    between atoms: C_22  and  C_23 
REMARK    7  A    between atoms: C_23  and  C_24 
REMARK    8  A    between atoms: C_24  and  N_25 
ROOT
HETATM    1  N   UNL     1      43.056 -16.482   4.990  1.00  0.00    -0.309 N 
HETATM    2  C   UNL     1      41.865 -15.860   4.706  1.00  0.00     0.323 C 
HETATM    3  N   UNL     1      41.876 -14.472   4.875  1.00  0.00    -0.330 N 
HETATM    4  O   UNL     1      40.857 -16.425   4.289  1.00  0.00    -0.247 OA
HETATM    5  H   UNL     1      43.599 -16.064   5.731  1.00  0.00     0.170 HD
ENDROOT
BRANCH   3   6
HETATM    6  C   UNL     1      40.601 -13.771   4.679  1.00  0.00     0.170 C 
BRANCH   6   7
HETATM    7  C   UNL     1      40.455 -13.174   3.311  1.00  0.00     0.013 A 
HETATM    8  C   UNL     1      39.746 -13.802   2.297  1.00  0.00     0.170 A 
HETATM    9  N   UNL     1      39.666 -13.358   1.031  1.00  0.00    -0.224 NA
HETATM   10  C   UNL     1      40.297 -12.217   0.716  1.00  0.00     0.072 A 
HETATM   11  C   UNL     1      41.024 -11.474   1.671  1.00  0.00    -0.004 A 
HETATM   12  C   UNL     1      40.246 -11.749  -0.589  1.00  0.00     0.072 A 
HETATM   13  C   UNL     1      41.086 -11.969   2.983  1.00  0.00     0.027 A 
HETATM   14  C   UNL     1      41.681 -10.289   1.298  1.00  0.00     0.053 A 
HETATM   15  C   UNL     1      41.631  -9.853  -0.023  1.00  0.00     0.103 A 
HETATM   16  C   UNL     1      40.897 -10.573  -0.963  1.00  0.00     0.104 A 
HETATM   17  O   UNL     1      42.329  -8.714  -0.323  1.00  0.00    -0.346 OA
HETATM   18  O   UNL     1      40.782 -10.195  -2.276  1.00  0.00    -0.346 OA
HETATM   19  C   UNL     1      41.208  -8.842  -2.476  1.00  0.00     0.202 C 
HETATM   20  C   UNL     1      42.509  -8.574  -1.740  1.00  0.00     0.202 C 
BRANCH   8  21
HETATM   21  O   UNL     1      39.086 -14.974   2.517  1.00  0.00    -0.344 OA
HETATM   22  H   UNL     1      38.720 -14.920   3.425  1.00  0.00     0.219 HD
ENDBRANCH   8  21
ENDBRANCH   6   7
ENDBRANCH   3   6
BRANCH   3  23
HETATM   23  C   UNL     1      43.093 -13.660   4.965  1.00  0.00     0.129 C 
BRANCH  23  24
HETATM   24  C   UNL     1      43.395 -13.174   6.393  1.00  0.00     0.048 C 
BRANCH  24  25
HETATM   25  C   UNL     1      43.064 -11.699   6.600  1.00  0.00     0.236 C 
BRANCH  25  26
HETATM   26  N   UNL     1      44.101 -11.019   7.471  1.00  0.00    -0.067 N 
HETATM   27  H   UNL     1      44.179 -11.553   8.348  1.00  0.00     0.280 HD
HETATM   28  C   UNL     1      45.485 -11.067   6.809  1.00  0.00     0.261 C 
HETATM   29  C   UNL     1      46.516 -10.380   7.709  1.00  0.00     0.195 C 
HETATM   30  O   UNL     1      46.132  -9.029   7.982  1.00  0.00    -0.388 OA
HETATM   31  C   UNL     1      44.881  -8.963   8.671  1.00  0.00     0.195 C 
HETATM   32  C   UNL     1      43.756  -9.573   7.827  1.00  0.00     0.261 C 
ENDBRANCH  25  26
ENDBRANCH  24  25
ENDBRANCH  23  24
ENDBRANCH   3  23
BRANCH   1  33
HETATM   33  C   UNL     1      43.428 -17.801   4.648  1.00  0.00     0.036 A 
HETATM   34  C   UNL     1      43.686 -18.802   5.591  1.00  0.00     0.032 A 
HETATM   35  C   UNL     1      44.016 -20.096   5.176  1.00  0.00     0.044 A 
HETATM   36  C   UNL     1      44.074 -20.391   3.821  1.00  0.00     0.116 A 
HETATM   37  C   UNL     1      43.812 -19.414   2.870  1.00  0.00     0.044 A 
HETATM   38  F   UNL     1      44.378 -21.634   3.426  1.00  0.00    -0.206 F 
HETATM   39  C   UNL     1      43.488 -18.119   3.282  1.00  0.00     0.032 A 
ENDBRANCH   1  33
TORSDOF 8
ENDMDL
MODEL 4
REMARK VINA RESULT:      -9.2      2.237      7.650
REMARK  8 active torsions:
REMARK  status: ('A' for Active; 'I' for Inactive)
REMARK    1  A    between atoms: C_2  and  N_3 
REMARK       I    between atoms: N_3  and  C_4 
REMARK       I    between atoms: C_4  and  N_5 
REMARK    2  A    between atoms: N_5  and  C_6 
REMARK    3  A    between atoms: N_5  and  C_22 
REMARK    4  A    between atoms: C_6  and  C_7 
REMARK    5  A    between atoms: C_8  and  O_9 
REMARK    6  A    between atoms: C_22  and  C_23 
REMARK    7  A    between atoms: C_23  and  C_24 
REMARK    8  A    between atoms: C_24  and  N_25 
ROOT
HETATM    1  N   UNL     1      43.180 -15.868   3.592  1.00  0.00    -0.309 N 
HETATM    2  C   UNL     1      41.987 -15.253   3.302  1.00  0.00     0.323 C 
HETATM    3  N   UNL     1      42.076 -13.873   3.095  1.00  0.00    -0.330 N 
HETATM    4  O   UNL     1      40.909 -15.829   3.178  1.00  0.00    -0.247 OA
HETATM    5  H   UNL     1      43.837 -15.315   4.123  1.00  0.00     0.170 HD
ENDROOT
BRANCH   3   6
HETATM    6  C   UNL     1      40.815 -13.153   2.880  1.00  0.00     0.170 C 
BRANCH   6   7
HETATM    7  C   UNL     1      40.661 -12.628   1.483  1.00  0.00     0.013 A 
HETATM    8  C   UNL     1      40.178 -13.411   0.444  1.00  0.00     0.170 A 
HETATM    9  N   UNL     1      40.111 -13.020  -0.840  1.00  0.00    -0.224 NA
HETATM   10  C   UNL     1      40.521 -11.781  -1.151  1.00  0.00     0.072 A 
HETATM   11  C   UNL     1      41.002 -10.884  -0.173  1.00  0.00    -0.004 A 
HETATM   12  C   UNL     1      40.481 -11.362  -2.472  1.00  0.00     0.072 A 
HETATM   13  C   UNL     1      41.058 -11.327   1.158  1.00  0.00     0.027 A 
HETATM   14  C   UNL     1      41.432  -9.598  -0.541  1.00  0.00     0.053 A 
HETATM   15  C   UNL     1      41.401  -9.210  -1.877  1.00  0.00     0.103 A 
HETATM   16  C   UNL     1      40.906 -10.086  -2.841  1.00  0.00     0.104 A 
HETATM   17  O   UNL     1      41.874  -7.958  -2.168  1.00  0.00    -0.346 OA
HETATM   18  O   UNL     1      40.823  -9.768  -4.173  1.00  0.00    -0.346 OA
HETATM   19  C   UNL     1      40.979  -8.361  -4.391  1.00  0.00     0.202 C 
HETATM   20  C   UNL     1      42.135  -7.815  -3.571  1.00  0.00     0.202 C 
BRANCH   8  21
HETATM   21  O   UNL     1      39.754 -14.689   0.659  1.00  0.00    -0.344 OA
HETATM   22  H   UNL     1      40.527 -15.182   1.007  1.00  0.00     0.219 HD
ENDBRANCH   8  21
ENDBRANCH   6   7
ENDBRANCH   3   6
BRANCH   3  23
HETATM   23  C   UNL     1      43.324 -13.158   2.816  1.00  0.00     0.129 C 
BRANCH  23  24
HETATM   24  C   UNL     1      43.547 -11.943   3.733  1.00  0.00     0.048 C 
BRANCH  24  25
HETATM   25  C   UNL     1      43.588 -12.317   5.212  1.00  0.00     0.236 C 
BRANCH  25  26
HETATM   26  N   UNL     1      44.178 -11.198   6.047  1.00  0.00    -0.067 N 
HETATM   27  H   UNL     1      44.358 -10.398   5.425  1.00  0.00     0.280 HD
HETATM   28  C   UNL     1      43.169 -10.712   7.097  1.00  0.00     0.261 C 
HETATM   29  C   UNL     1      43.784  -9.579   7.924  1.00  0.00     0.195 C 
HETATM   30  O   UNL     1      44.999 -10.008   8.548  1.00  0.00    -0.388 OA
HETATM   31  C   UNL     1      45.983 -10.389   7.584  1.00  0.00     0.195 C 
HETATM   32  C   UNL     1      45.492 -11.567   6.734  1.00  0.00     0.261 C 
ENDBRANCH  25  26
ENDBRANCH  24  25
ENDBRANCH  23  24
ENDBRANCH   3  23
BRANCH   1  33
HETATM   33  C   UNL     1      43.449 -17.254   3.568  1.00  0.00     0.036 A 
HETATM   34  C   UNL     1      43.916 -17.972   4.674  1.00  0.00     0.032 A 
HETATM   35  C   UNL     1      44.127 -19.352   4.585  1.00  0.00     0.044 A 
HETATM   36  C   UNL     1      43.857 -20.014   3.395  1.00  0.00     0.116 A 
HETATM   37  C   UNL     1      43.384 -19.321   2.289  1.00  0.00     0.044 A 
HETATM   38  F   UNL     1      44.048 -21.336   3.315  1.00  0.00    -0.206 F 
HETATM   39  C   UNL     1      43.179 -17.942   2.375  1.00  0.00     0.032 A 
ENDBRANCH   1  33
TORSDOF 8
ENDMDL
MODEL 5
REMARK VINA RESULT:      -9.2      3.149      8.446
REMARK  8 active torsions:
REMARK  status: ('A' for Active; 'I' for Inactive)
REMARK    1  A    between atoms: C_2  and  N_3 
REMARK       I    between atoms: N_3  and  C_4 
REMARK       I    between atoms: C_4  and  N_5 
REMARK    2  A    between atoms: N_5  and  C_6 
REMARK    3  A    between atoms: N_5  and  C_22 
REMARK    4  A    between atoms: C_6  and  C_7 
REMARK    5  A    between atoms: C_8  and  O_9 
REMARK    6  A    between atoms: C_22  and  C_23 
REMARK    7  A    between atoms: C_23  and  C_24 
REMARK    8  A    between atoms: C_24  and  N_25 
ROOT
HETATM    1  N   UNL     1      43.923 -12.837   6.250  1.00  0.00    -0.309 N 
HETATM    2  C   UNL     1      42.590 -13.102   6.054  1.00  0.00     0.323 C 
HETATM    3  N   UNL     1      42.322 -14.342   5.465  1.00  0.00    -0.330 N 
HETATM    4  O   UNL     1      41.667 -12.364   6.391  1.00  0.00    -0.247 OA
HETATM    5  H   UNL     1      44.549 -13.217   5.555  1.00  0.00     0.170 HD
ENDROOT
BRANCH   3   6
HETATM    6  C   UNL     1      40.919 -14.633   5.143  1.00  0.00     0.170 C 
BRANCH   6   7
HETATM    7  C   UNL     1      40.426 -13.908   3.927  1.00  0.00     0.013 A 
HETATM    8  C   UNL     1      39.576 -12.814   4.006  1.00  0.00     0.170 A 
HETATM    9  N   UNL     1      39.031 -12.191   2.948  1.00  0.00    -0.224 NA
HETATM   10  C   UNL     1      39.336 -12.637   1.720  1.00  0.00     0.072 A 
HETATM   11  C   UNL     1      40.215 -13.723   1.514  1.00  0.00    -0.004 A 
HETATM   12  C   UNL     1      38.770 -12.024   0.612  1.00  0.00     0.072 A 
HETATM   13  C   UNL     1      40.764 -14.349   2.643  1.00  0.00     0.027 A 
HETATM   14  C   UNL     1      40.500 -14.167   0.212  1.00  0.00     0.053 A 
HETATM   15  C   UNL     1      39.902 -13.547  -0.881  1.00  0.00     0.103 A 
HETATM   16  C   UNL     1      39.052 -12.461  -0.682  1.00  0.00     0.104 A 
HETATM   17  O   UNL     1      40.193 -14.059  -2.118  1.00  0.00    -0.346 OA
HETATM   18  O   UNL     1      38.443 -11.785  -1.709  1.00  0.00    -0.346 OA
HETATM   19  C   UNL     1      39.036 -12.101  -2.974  1.00  0.00     0.202 C 
HETATM   20  C   UNL     1      39.259 -13.598  -3.104  1.00  0.00     0.202 C 
BRANCH   8  21
HETATM   21  O   UNL     1      39.196 -12.300   5.210  1.00  0.00    -0.344 OA
HETATM   22  H   UNL     1      38.849 -13.052   5.736  1.00  0.00     0.219 HD
ENDBRANCH   8  21
ENDBRANCH   6   7
ENDBRANCH   3   6
BRANCH   3  23
HETATM   23  C   UNL     1      43.279 -15.449   5.398  1.00  0.00     0.129 C 
BRANCH  23  24
HETATM   24  C   UNL     1      42.699 -16.715   4.745  1.00  0.00     0.048 C 
BRANCH  24  25
HETATM   25  C   UNL     1      43.264 -16.975   3.351  1.00  0.00     0.236 C 
BRANCH  25  26
HETATM   26  N   UNL     1      43.862 -18.364   3.249  1.00  0.00    -0.067 N 
HETATM   27  H   UNL     1      44.858 -18.265   3.009  1.00  0.00     0.280 HD
HETATM   28  C   UNL     1      43.812 -19.080   4.605  1.00  0.00     0.261 C 
HETATM   29  C   UNL     1      44.425 -20.477   4.480  1.00  0.00     0.195 C 
HETATM   30  O   UNL     1      43.746 -21.241   3.478  1.00  0.00    -0.388 OA
HETATM   31  C   UNL     1      43.849 -20.633   2.188  1.00  0.00     0.195 C 
HETATM   32  C   UNL     1      43.205 -19.242   2.184  1.00  0.00     0.261 C 
ENDBRANCH  25  26
ENDBRANCH  24  25
ENDBRANCH  23  24
ENDBRANCH   3  23
BRANCH   1  33
HETATM   33  C   UNL     1      44.475 -11.822   7.061  1.00  0.00     0.036 A 
HETATM   34  C   UNL     1      43.863 -11.338   8.223  1.00  0.00     0.032 A 
HETATM   35  C   UNL     1      44.488 -10.354   8.995  1.00  0.00     0.044 A 
HETATM   36  C   UNL     1      45.729  -9.863   8.612  1.00  0.00     0.116 A 
HETATM   37  C   UNL     1      46.357 -10.335   7.468  1.00  0.00     0.044 A 
HETATM   38  F   UNL     1      46.331  -8.929   9.359  1.00  0.00    -0.206 F 
HETATM   39  C   UNL     1      45.732 -11.315   6.692  1.00  0.00     0.032 A 
ENDBRANCH   1  33
TORSDOF 8
ENDMDL
MODEL 6
REMARK VINA RESULT:      -9.0      3.047      3.397
REMARK  8 active torsions:
REMARK  status: ('A' for Active; 'I' for Inactive)
REMARK    1  A    between atoms: C_2  and  N_3 
REMARK       I    between atoms: N_3  and  C_4 
REMARK       I    between atoms: C_4  and  N_5 
REMARK    2  A    between atoms: N_5  and  C_6 
REMARK    3  A    between atoms: N_5  and  C_22 
REMARK    4  A    between atoms: C_6  and  C_7 
REMARK    5  A    between atoms: C_8  and  O_9 
REMARK    6  A    between atoms: C_22  and  C_23 
REMARK    7  A    between atoms: C_23  and  C_24 
REMARK    8  A    between atoms: C_24  and  N_25 
ROOT
HETATM    1  N   UNL     1      42.563 -16.034   3.222  1.00  0.00    -0.309 N 
HETATM    2  C   UNL     1      41.275 -15.611   3.443  1.00  0.00     0.323 C 
HETATM    3  N   UNL     1      40.997 -14.321   2.980  1.00  0.00    -0.330 N 
HETATM    4  O   UNL     1      40.389 -16.289   3.958  1.00  0.00    -0.247 OA
HETATM    5  H   UNL     1      43.270 -15.315   3.263  1.00  0.00     0.170 HD
ENDROOT
BRANCH   3   6
HETATM    6  C   UNL     1      39.663 -13.784   3.279  1.00  0.00     0.170 C 
BRANCH   6   7
HETATM    7  C   UNL     1      39.675 -12.713   4.329  1.00  0.00     0.013 A 
HETATM    8  C   UNL     1      39.608 -13.002   5.685  1.00  0.00     0.170 A 
HETATM    9  N   UNL     1      39.520 -12.080   6.659  1.00  0.00    -0.224 NA
HETATM   10  C   UNL     1      39.511 -10.785   6.311  1.00  0.00     0.072 A 
HETATM   11  C   UNL     1      39.606 -10.370   4.964  1.00  0.00    -0.004 A 
HETATM   12  C   UNL     1      39.400  -9.815   7.296  1.00  0.00     0.072 A 
HETATM   13  C   UNL     1      39.696 -11.361   3.975  1.00  0.00     0.027 A 
HETATM   14  C   UNL     1      39.582  -9.003   4.640  1.00  0.00     0.053 A 
HETATM   15  C   UNL     1      39.448  -8.052   5.647  1.00  0.00     0.103 A 
HETATM   16  C   UNL     1      39.377  -8.457   6.978  1.00  0.00     0.104 A 
HETATM   17  O   UNL     1      39.391  -6.741   5.255  1.00  0.00    -0.346 OA
HETATM   18  O   UNL     1      39.266  -7.580   8.026  1.00  0.00    -0.346 OA
HETATM   19  C   UNL     1      39.568  -6.238   7.626  1.00  0.00     0.202 C 
HETATM   20  C   UNL     1      38.890  -5.905   6.308  1.00  0.00     0.202 C 
BRANCH   8  21
HETATM   21  O   UNL     1      39.595 -14.288   6.135  1.00  0.00    -0.344 OA
HETATM   22  H   UNL     1      39.760 -14.247   7.100  1.00  0.00     0.219 HD
ENDBRANCH   8  21
ENDBRANCH   6   7
ENDBRANCH   3   6
BRANCH   3  23
HETATM   23  C   UNL     1      41.822 -13.594   2.012  1.00  0.00     0.129 C 
BRANCH  23  24
HETATM   24  C   UNL     1      41.288 -13.679   0.572  1.00  0.00     0.048 C 
BRANCH  24  25
HETATM   25  C   UNL     1      40.660 -12.373   0.095  1.00  0.00     0.236 C 
BRANCH  25  26
HETATM   26  N   UNL     1      39.782 -12.596  -1.120  1.00  0.00    -0.067 N 
HETATM   27  H   UNL     1      40.277 -12.225  -1.943  1.00  0.00     0.280 HD
HETATM   28  C   UNL     1      39.578 -14.095  -1.377  1.00  0.00     0.261 C 
HETATM   29  C   UNL     1      38.694 -14.296  -2.612  1.00  0.00     0.195 C 
HETATM   30  O   UNL     1      37.435 -13.634  -2.447  1.00  0.00    -0.388 OA
HETATM   31  C   UNL     1      37.597 -12.223  -2.287  1.00  0.00     0.195 C 
HETATM   32  C   UNL     1      38.422 -11.903  -1.035  1.00  0.00     0.261 C 
ENDBRANCH  25  26
ENDBRANCH  24  25
ENDBRANCH  23  24
ENDBRANCH   3  23
BRANCH   1  33
HETATM   33  C   UNL     1      43.049 -17.356   3.315  1.00  0.00     0.036 A 
HETATM   34  C   UNL     1      43.680 -17.871   4.453  1.00  0.00     0.032 A 
HETATM   35  C   UNL     1      44.106 -19.204   4.483  1.00  0.00     0.044 A 
HETATM   36  C   UNL     1      43.888 -20.022   3.384  1.00  0.00     0.116 A 
HETATM   37  C   UNL     1      43.256 -19.532   2.249  1.00  0.00     0.044 A 
HETATM   38  F   UNL     1      44.285 -21.300   3.420  1.00  0.00    -0.206 F 
HETATM   39  C   UNL     1      42.835 -18.200   2.214  1.00  0.00     0.032 A 
ENDBRANCH   1  33
TORSDOF 8
ENDMDL
MODEL 7
REMARK VINA RESULT:      -8.9      3.878      8.332
REMARK  8 active torsions:
REMARK  status: ('A' for Active; 'I' for Inactive)
REMARK    1  A    between atoms: C_2  and  N_3 
REMARK       I    between atoms: N_3  and  C_4 
REMARK       I    between atoms: C_4  and  N_5 
REMARK    2  A    between atoms: N_5  and  C_6 
REMARK    3  A    between atoms: N_5  and  C_22 
REMARK    4  A    between atoms: C_6  and  C_7 
REMARK    5  A    between atoms: C_8  and  O_9 
REMARK    6  A    between atoms: C_22  and  C_23 
REMARK    7  A    between atoms: C_23  and  C_24 
REMARK    8  A    between atoms: C_24  and  N_25 
ROOT
HETATM    1  N   UNL     1      39.908 -10.818   7.084  1.00  0.00    -0.309 N 
HETATM    2  C   UNL     1      41.123 -11.053   6.487  1.00  0.00     0.323 C 
HETATM    3  N   UNL     1      41.108 -12.048   5.505  1.00  0.00    -0.330 N 
HETATM    4  O   UNL     1      42.157 -10.434   6.727  1.00  0.00    -0.247 OA
HETATM    5  H   UNL     1      39.311 -11.626   7.186  1.00  0.00     0.170 HD
ENDROOT
BRANCH   3   6
HETATM    6  C   UNL     1      42.401 -12.406   4.906  1.00  0.00     0.170 C 
BRANCH   6   7
HETATM    7  C   UNL     1      42.735 -13.861   5.039  1.00  0.00     0.013 A 
HETATM    8  C   UNL     1      43.273 -14.397   6.202  1.00  0.00     0.170 A 
HETATM    9  N   UNL     1      43.678 -15.671   6.339  1.00  0.00    -0.224 NA
HETATM   10  C   UNL     1      43.543 -16.499   5.293  1.00  0.00     0.072 A 
HETATM   11  C   UNL     1      42.980 -16.075   4.070  1.00  0.00    -0.004 A 
HETATM   12  C   UNL     1      43.972 -17.813   5.404  1.00  0.00     0.072 A 
HETATM   13  C   UNL     1      42.569 -14.737   3.962  1.00  0.00     0.027 A 
HETATM   14  C   UNL     1      42.866 -16.971   2.993  1.00  0.00     0.053 A 
HETATM   15  C   UNL     1      43.324 -18.278   3.125  1.00  0.00     0.103 A 
HETATM   16  C   UNL     1      43.859 -18.706   4.338  1.00  0.00     0.104 A 
HETATM   17  O   UNL     1      43.219 -19.083   2.022  1.00  0.00    -0.346 OA
HETATM   18  O   UNL     1      44.312 -19.983   4.551  1.00  0.00    -0.346 OA
HETATM   19  C   UNL     1      43.866 -20.879   3.527  1.00  0.00     0.202 C 
HETATM   20  C   UNL     1      44.039 -20.253   2.153  1.00  0.00     0.202 C 
BRANCH   8  21
HETATM   21  O   UNL     1      43.465 -13.630   7.312  1.00  0.00    -0.344 OA
HETATM   22  H   UNL     1      43.891 -14.208   7.979  1.00  0.00     0.219 HD
ENDBRANCH   8  21
ENDBRANCH   6   7
ENDBRANCH   3   6
BRANCH   3  23
HETATM   23  C   UNL     1      39.895 -12.554   4.858  1.00  0.00     0.129 C 
BRANCH  23  24
HETATM   24  C   UNL     1      39.901 -12.374   3.330  1.00  0.00     0.048 C 
BRANCH  24  25
HETATM   25  C   UNL     1      39.416 -13.614   2.585  1.00  0.00     0.236 C 
BRANCH  25  26
HETATM   26  N   UNL     1      39.258 -13.340   1.104  1.00  0.00    -0.067 N 
HETATM   27  H   UNL     1      38.330 -13.678   0.815  1.00  0.00     0.280 HD
HETATM   28  C   UNL     1      39.277 -11.831   0.823  1.00  0.00     0.261 C 
HETATM   29  C   UNL     1      39.110 -11.578  -0.678  1.00  0.00     0.195 C 
HETATM   30  O   UNL     1      40.136 -12.245  -1.422  1.00  0.00    -0.388 OA
HETATM   31  C   UNL     1      40.086 -13.661  -1.239  1.00  0.00     0.195 C 
HETATM   32  C   UNL     1      40.305 -14.033   0.232  1.00  0.00     0.261 C 
ENDBRANCH  25  26
ENDBRANCH  24  25
ENDBRANCH  23  24
ENDBRANCH   3  23
BRANCH   1  33
HETATM   33  C   UNL     1      39.555  -9.709   7.883  1.00  0.00     0.036 A 
HETATM   34  C   UNL     1      39.419  -9.769   9.275  1.00  0.00     0.032 A 
HETATM   35  C   UNL     1      39.100  -8.619  10.004  1.00  0.00     0.044 A 
HETATM   36  C   UNL     1      38.931  -7.409   9.344  1.00  0.00     0.116 A 
HETATM   37  C   UNL     1      39.070  -7.328   7.965  1.00  0.00     0.044 A 
HETATM   38  F   UNL     1      38.637  -6.307  10.045  1.00  0.00    -0.206 F 
HETATM   39  C   UNL     1      39.383  -8.476   7.234  1.00  0.00     0.032 A 
ENDBRANCH   1  33
TORSDOF 8
ENDMDL
MODEL 8
REMARK VINA RESULT:      -8.8      2.980      7.474
REMARK  8 active torsions:
REMARK  status: ('A' for Active; 'I' for Inactive)
REMARK    1  A    between atoms: C_2  and  N_3 
REMARK       I    between atoms: N_3  and  C_4 
REMARK       I    between atoms: C_4  and  N_5 
REMARK    2  A    between atoms: N_5  and  C_6 
REMARK    3  A    between atoms: N_5  and  C_22 
REMARK    4  A    between atoms: C_6  and  C_7 
REMARK    5  A    between atoms: C_8  and  O_9 
REMARK    6  A    between atoms: C_22  and  C_23 
REMARK    7  A    between atoms: C_23  and  C_24 
REMARK    8  A    between atoms: C_24  and  N_25 
ROOT
HETATM    1  N   UNL     1      42.538 -16.080   3.334  1.00  0.00    -0.309 N 
HETATM    2  C   UNL     1      41.350 -15.619   2.823  1.00  0.00     0.323 C 
HETATM    3  N   UNL     1      41.263 -14.227   2.714  1.00  0.00    -0.330 N 
HETATM    4  O   UNL     1      40.427 -16.330   2.433  1.00  0.00    -0.247 OA
HETATM    5  H   UNL     1      42.974 -15.488   4.026  1.00  0.00     0.170 HD
ENDROOT
BRANCH   3   6
HETATM    6  C   UNL     1      39.977 -13.678   2.265  1.00  0.00     0.170 C 
BRANCH   6   7
HETATM    7  C   UNL     1      40.040 -13.060   0.900  1.00  0.00     0.013 A 
HETATM    8  C   UNL     1      39.883 -13.804  -0.261  1.00  0.00     0.170 A 
HETATM    9  N   UNL     1      40.025 -13.318  -1.505  1.00  0.00    -0.224 NA
HETATM   10  C   UNL     1      40.321 -12.018  -1.651  1.00  0.00     0.072 A 
HETATM   11  C   UNL     1      40.473 -11.155  -0.543  1.00  0.00    -0.004 A 
HETATM   12  C   UNL     1      40.493 -11.497  -2.925  1.00  0.00     0.072 A 
HETATM   13  C   UNL     1      40.318 -11.699   0.741  1.00  0.00     0.027 A 
HETATM   14  C   UNL     1      40.795  -9.801  -0.738  1.00  0.00     0.053 A 
HETATM   15  C   UNL     1      40.982  -9.309  -2.026  1.00  0.00     0.103 A 
HETATM   16  C   UNL     1      40.811 -10.153  -3.122  1.00  0.00     0.104 A 
HETATM   17  O   UNL     1      41.334  -7.991  -2.139  1.00  0.00    -0.346 OA
HETATM   18  O   UNL     1      40.957  -9.737  -4.421  1.00  0.00    -0.346 OA
HETATM   19  C   UNL     1      40.966  -8.308  -4.520  1.00  0.00     0.202 C 
HETATM   20  C   UNL     1      41.851  -7.700  -3.445  1.00  0.00     0.202 C 
BRANCH   8  21
HETATM   21  O   UNL     1      39.598 -15.136  -0.214  1.00  0.00    -0.344 OA
HETATM   22  H   UNL     1      40.345 -15.563   0.257  1.00  0.00     0.219 HD
ENDBRANCH   8  21
ENDBRANCH   6   7
ENDBRANCH   3   6
BRANCH   3  23
HETATM   23  C   UNL     1      42.414 -13.321   2.756  1.00  0.00     0.129 C 
BRANCH  23  24
HETATM   24  C   UNL     1      42.301 -12.245   3.850  1.00  0.00     0.048 C 
BRANCH  24  25
HETATM   25  C   UNL     1      43.155 -12.555   5.076  1.00  0.00     0.236 C 
BRANCH  25  26
HETATM   26  N   UNL     1      42.870 -13.944   5.609  1.00  0.00    -0.067 N 
HETATM   27  H   UNL     1      42.948 -14.608   4.826  1.00  0.00     0.280 HD
HETATM   28  C   UNL     1      43.930 -14.361   6.638  1.00  0.00     0.261 C 
HETATM   29  C   UNL     1      43.626 -15.769   7.158  1.00  0.00     0.195 C 
HETATM   30  O   UNL     1      42.315 -15.826   7.730  1.00  0.00    -0.388 OA
HETATM   31  C   UNL     1      41.304 -15.520   6.766  1.00  0.00     0.195 C 
HETATM   32  C   UNL     1      41.478 -14.098   6.221  1.00  0.00     0.261 C 
ENDBRANCH  25  26
ENDBRANCH  24  25
ENDBRANCH  23  24
ENDBRANCH   3  23
BRANCH   1  33
HETATM   33  C   UNL     1      43.020 -17.407   3.296  1.00  0.00     0.036 A 
HETATM   34  C   UNL     1      43.704 -18.014   4.355  1.00  0.00     0.032 A 
HETATM   35  C   UNL     1      44.122 -19.346   4.258  1.00  0.00     0.044 A 
HETATM   36  C   UNL     1      43.843 -20.072   3.108  1.00  0.00     0.116 A 
HETATM   37  C   UNL     1      43.158 -19.491   2.050  1.00  0.00     0.044 A 
HETATM   38  F   UNL     1      44.233 -21.350   3.021  1.00  0.00    -0.206 F 
HETATM   39  C   UNL     1      42.745 -18.159   2.143  1.00  0.00     0.032 A 
ENDBRANCH   1  33
TORSDOF 8
ENDMDL
MODEL 9
REMARK VINA RESULT:      -8.7      2.284      7.980
REMARK  8 active torsions:
REMARK  status: ('A' for Active; 'I' for Inactive)
REMARK    1  A    between atoms: C_2  and  N_3 
REMARK       I    between atoms: N_3  and  C_4 
REMARK       I    between atoms: C_4  and  N_5 
REMARK    2  A    between atoms: N_5  and  C_6 
REMARK    3  A    between atoms: N_5  and  C_22 
REMARK    4  A    between atoms: C_6  and  C_7 
REMARK    5  A    between atoms: C_8  and  O_9 
REMARK    6  A    between atoms: C_22  and  C_23 
REMARK    7  A    between atoms: C_23  and  C_24 
REMARK    8  A    between atoms: C_24  and  N_25 
ROOT
HETATM    1  N   UNL     1      42.538 -16.041   3.593  1.00  0.00    -0.309 N 
HETATM    2  C   UNL     1      42.997 -14.932   2.927  1.00  0.00     0.323 C 
HETATM    3  N   UNL     1      42.563 -13.712   3.456  1.00  0.00    -0.330 N 
HETATM    4  O   UNL     1      43.766 -14.953   1.969  1.00  0.00    -0.247 OA
HETATM    5  H   UNL     1      41.613 -15.959   3.990  1.00  0.00     0.170 HD
ENDROOT
BRANCH   3   6
HETATM    6  C   UNL     1      42.946 -12.499   2.722  1.00  0.00     0.170 C 
BRANCH   6   7
HETATM    7  C   UNL     1      41.843 -11.949   1.866  1.00  0.00     0.013 A 
HETATM    8  C   UNL     1      41.316 -10.679   2.058  1.00  0.00     0.170 A 
HETATM    9  N   UNL     1      40.268 -10.178   1.384  1.00  0.00    -0.224 NA
HETATM   10  C   UNL     1      39.690 -10.941   0.444  1.00  0.00     0.072 A 
HETATM   11  C   UNL     1      40.160 -12.237   0.139  1.00  0.00    -0.004 A 
HETATM   12  C   UNL     1      38.593 -10.453  -0.251  1.00  0.00     0.072 A 
HETATM   13  C   UNL     1      41.256 -12.728   0.864  1.00  0.00     0.027 A 
HETATM   14  C   UNL     1      39.520 -13.010  -0.845  1.00  0.00     0.053 A 
HETATM   15  C   UNL     1      38.408 -12.504  -1.512  1.00  0.00     0.103 A 
HETATM   16  C   UNL     1      37.957 -11.217  -1.229  1.00  0.00     0.104 A 
HETATM   17  O   UNL     1      37.811 -13.328  -2.429  1.00  0.00    -0.346 OA
HETATM   18  O   UNL     1      36.883 -10.641  -1.859  1.00  0.00    -0.346 OA
HETATM   19  C   UNL     1      36.512 -11.366  -3.038  1.00  0.00     0.202 C 
HETATM   20  C   UNL     1      36.498 -12.861  -2.768  1.00  0.00     0.202 C 
BRANCH   8  21
HETATM   21  O   UNL     1      41.825  -9.838   3.001  1.00  0.00    -0.344 OA
HETATM   22  H   UNL     1      42.518  -9.307   2.555  1.00  0.00     0.219 HD
ENDBRANCH   8  21
ENDBRANCH   6   7
ENDBRANCH   3   6
BRANCH   3  23
HETATM   23  C   UNL     1      42.000 -13.546   4.798  1.00  0.00     0.129 C 
BRANCH  23  24
HETATM   24  C   UNL     1      42.984 -12.912   5.796  1.00  0.00     0.048 C 
BRANCH  24  25
HETATM   25  C   UNL     1      42.686 -11.440   6.067  1.00  0.00     0.236 C 
BRANCH  25  26
HETATM   26  N   UNL     1      43.817 -10.781   6.830  1.00  0.00    -0.067 N 
HETATM   27  H   UNL     1      43.925  -9.821   6.473  1.00  0.00     0.280 HD
HETATM   28  C   UNL     1      43.469 -10.653   8.319  1.00  0.00     0.261 C 
HETATM   29  C   UNL     1      44.623  -9.980   9.068  1.00  0.00     0.195 C 
HETATM   30  O   UNL     1      45.839 -10.715   8.893  1.00  0.00    -0.388 OA
HETATM   31  C   UNL     1      46.226 -10.777   7.518  1.00  0.00     0.195 C 
HETATM   32  C   UNL     1      45.161 -11.493   6.680  1.00  0.00     0.261 C 
ENDBRANCH  25  26
ENDBRANCH  24  25
ENDBRANCH  23  24
ENDBRANCH   3  23
BRANCH   1  33
HETATM   33  C   UNL     1      43.021 -17.363   3.475  1.00  0.00     0.036 A 
HETATM   34  C   UNL     1      43.781 -18.002   4.461  1.00  0.00     0.032 A 
HETATM   35  C   UNL     1      44.196 -19.326   4.287  1.00  0.00     0.044 A 
HETATM   36  C   UNL     1      43.840 -20.014   3.135  1.00  0.00     0.116 A 
HETATM   37  C   UNL     1      43.079 -19.401   2.149  1.00  0.00     0.044 A 
HETATM   38  F   UNL     1      44.228 -21.285   2.976  1.00  0.00    -0.206 F 
HETATM   39  C   UNL     1      42.669 -18.076   2.318  1.00  0.00     0.032 A 
ENDBRANCH   1  33
TORSDOF 8
ENDMDL
MODEL 10
REMARK VINA RESULT:      -8.7      3.751      8.494
REMARK  8 active torsions:
REMARK  status: ('A' for Active; 'I' for Inactive)
REMARK    1  A    between atoms: C_2  and  N_3 
REMARK       I    between atoms: N_3  and  C_4 
REMARK       I    between atoms: C_4  and  N_5 
REMARK    2  A    between atoms: N_5  and  C_6 
REMARK    3  A    between atoms: N_5  and  C_22 
REMARK    4  A    between atoms: C_6  and  C_7 
REMARK    5  A    between atoms: C_8  and  O_9 
REMARK    6  A    between atoms: C_22  and  C_23 
REMARK    7  A    between atoms: C_23  and  C_24 
REMARK    8  A    between atoms: C_24  and  N_25 
ROOT
HETATM    1  N   UNL     1      41.928 -10.392   7.537  1.00  0.00    -0.309 N 
HETATM    2  C   UNL     1      42.778 -10.860   6.564  1.00  0.00     0.323 C 
HETATM    3  N   UNL     1      42.192 -11.746   5.654  1.00  0.00    -0.330 N 
HETATM    4  O   UNL     1      43.951 -10.522   6.432  1.00  0.00    -0.247 OA
HETATM    5  H   UNL     1      41.219 -11.042   7.844  1.00  0.00     0.170 HD
ENDROOT
BRANCH   3   6
HETATM    6  C   UNL     1      43.080 -12.350   4.653  1.00  0.00     0.170 C 
BRANCH   6   7
HETATM    7  C   UNL     1      43.273 -13.825   4.844  1.00  0.00     0.013 A 
HETATM    8  C   UNL     1      43.751 -14.366   6.030  1.00  0.00     0.170 A 
HETATM    9  N   UNL     1      44.031 -15.666   6.218  1.00  0.00    -0.224 NA
HETATM   10  C   UNL     1      43.822 -16.517   5.202  1.00  0.00     0.072 A 
HETATM   11  C   UNL     1      43.309 -16.087   3.959  1.00  0.00    -0.004 A 
HETATM   12  C   UNL     1      44.123 -17.861   5.366  1.00  0.00     0.072 A 
HETATM   13  C   UNL     1      43.028 -14.722   3.799  1.00  0.00     0.027 A 
HETATM   14  C   UNL     1      43.115 -17.008   2.916  1.00  0.00     0.053 A 
HETATM   15  C   UNL     1      43.445 -18.347   3.100  1.00  0.00     0.103 A 
HETATM   16  C   UNL     1      43.931 -18.778   4.333  1.00  0.00     0.104 A 
HETATM   17  O   UNL     1      43.269 -19.180   2.027  1.00  0.00    -0.346 OA
HETATM   18  O   UNL     1      44.257 -20.084   4.598  1.00  0.00    -0.346 OA
HETATM   19  C   UNL     1      43.733 -20.971   3.603  1.00  0.00     0.202 C 
HETATM   20  C   UNL     1      43.972 -20.417   2.209  1.00  0.00     0.202 C 
BRANCH   8  21
HETATM   21  O   UNL     1      44.009 -13.579   7.112  1.00  0.00    -0.344 OA
HETATM   22  H   UNL     1      44.836 -13.092   6.910  1.00  0.00     0.219 HD
ENDBRANCH   8  21
ENDBRANCH   6   7
ENDBRANCH   3   6
BRANCH   3  23
HETATM   23  C   UNL     1      40.747 -11.900   5.464  1.00  0.00     0.129 C 
BRANCH  23  24
HETATM   24  C   UNL     1      40.279 -11.541   4.043  1.00  0.00     0.048 C 
BRANCH  24  25
HETATM   25  C   UNL     1      39.018 -12.291   3.627  1.00  0.00     0.236 C 
BRANCH  25  26
HETATM   26  N   UNL     1      39.277 -13.182   2.429  1.00  0.00    -0.067 N 
HETATM   27  H   UNL     1      38.399 -13.264   1.898  1.00  0.00     0.280 HD
HETATM   28  C   UNL     1      40.298 -12.538   1.482  1.00  0.00     0.261 C 
HETATM   29  C   UNL     1      40.540 -13.452   0.277  1.00  0.00     0.195 C 
HETATM   30  O   UNL     1      40.987 -14.744   0.702  1.00  0.00    -0.388 OA
HETATM   31  C   UNL     1      40.015 -15.397   1.521  1.00  0.00     0.195 C 
HETATM   32  C   UNL     1      39.740 -14.591   2.796  1.00  0.00     0.261 C 
ENDBRANCH  25  26
ENDBRANCH  24  25
ENDBRANCH  23  24
ENDBRANCH   3  23
BRANCH   1  33
HETATM   33  C   UNL     1      42.148  -9.295   8.399  1.00  0.00     0.036 A 
HETATM   34  C   UNL     1      41.755  -7.986   8.102  1.00  0.00     0.032 A 
HETATM   35  C   UNL     1      41.976  -6.955   9.022  1.00  0.00     0.044 A 
HETATM   36  C   UNL     1      42.576  -7.238  10.241  1.00  0.00     0.116 A 
HETATM   37  C   UNL     1      42.965  -8.532  10.558  1.00  0.00     0.044 A 
HETATM   38  F   UNL     1      42.776  -6.252  11.125  1.00  0.00    -0.206 F 
HETATM   39  C   UNL     1      42.751  -9.561   9.638  1.00  0.00     0.032 A 
ENDBRANCH   1  33
TORSDOF 8
ENDMDL
