MODEL 1
REMARK VINA RESULT:      -7.1      0.000      0.000
REMARK  4 active torsions:
REMARK  status: ('A' for Active; 'I' for Inactive)
REMARK    1  A    between atoms: C_2  and  O_3 
REMARK    2  A    between atoms: O_3  and  C_4 
REMARK    3  A    between atoms: C_4  and  C_5 
REMARK    4  A    between atoms: C_9  and  N_10 
ROOT
HETATM    1  C   UNL     1      43.453 -17.362   4.748  1.00  0.00     0.109 A 
HETATM    2  S   UNL     1      42.654 -16.898   3.304  1.00  0.00    -0.063 SA
HETATM    3  C   UNL     1      42.628 -15.276   3.766  1.00  0.00     0.088 A 
HETATM    4  C   UNL     1      43.223 -15.011   4.986  1.00  0.00     0.033 A 
HETATM    5  C   UNL     1      43.683 -16.256   5.557  1.00  0.00     0.063 A 
HETATM    6  N   UNL     1      42.063 -14.329   2.980  1.00  0.00    -0.353 N 
HETATM    7  H   UNL     1      41.652 -14.637   2.100  1.00  0.00     0.166 HD
HETATM    8  C   UNL     1      42.038 -13.046   3.354  1.00  0.00     0.015 A 
HETATM    9  C   UNL     1      41.376 -12.075   2.423  1.00  0.00     0.069 C 
HETATM   10  C   UNL     1      42.614 -12.673   4.579  1.00  0.00    -0.005 A 
HETATM   11  C   UNL     1      43.250 -13.645   5.400  1.00  0.00    -0.030 A 
HETATM   12  C   UNL     1      43.878 -13.196   6.707  1.00  0.00     0.077 C 
HETATM   13  C   UNL     1      44.109 -11.679   6.809  1.00  0.00     0.058 C 
HETATM   14  C   UNL     1      45.356 -11.225   6.031  1.00  0.00     0.046 C 
HETATM   15  C   UNL     1      44.291 -11.290   8.282  1.00  0.00     0.046 C 
HETATM   16  O   UNL     1      42.926 -11.006   6.366  1.00  0.00    -0.376 OA
HETATM   17  C   UNL     1      42.601 -11.214   5.000  1.00  0.00     0.210 C 
ENDROOT
BRANCH   1  18
HETATM   18  C   UNL     1      43.790 -18.752   5.030  1.00  0.00     0.302 C 
HETATM   19  O   UNL     1      43.525 -19.328   6.079  1.00  0.00    -0.259 OA
BRANCH  18  20
HETATM   20  O   UNL     1      44.422 -19.335   3.971  1.00  0.00    -0.317 OA
BRANCH  20  21
HETATM   21  C   UNL     1      43.820 -20.538   3.464  1.00  0.00     0.174 C 
HETATM   22  C   UNL     1      43.458 -20.366   2.001  1.00  0.00     0.034 C 
ENDBRANCH  20  21
ENDBRANCH  18  20
ENDBRANCH   1  18
BRANCH   5  23
HETATM   23  N   UNL     1      44.283 -16.366   6.762  1.00  0.00    -0.397 N 
HETATM   24  H   UNL     1      45.205 -16.763   6.913  1.00  0.00     0.156 HD
HETATM   25  H   UNL     1      44.005 -15.761   7.545  1.00  0.00     0.156 HD
ENDBRANCH   5  23
TORSDOF 4
ENDMDL
MODEL 2
REMARK VINA RESULT:      -7.1      4.588      7.106
REMARK  4 active torsions:
REMARK  status: ('A' for Active; 'I' for Inactive)
REMARK    1  A    between atoms: C_2  and  O_3 
REMARK    2  A    between atoms: O_3  and  C_4 
REMARK    3  A    between atoms: C_4  and  C_5 
REMARK    4  A    between atoms: C_9  and  N_10 
ROOT
HETATM    1  C   UNL     1      40.862 -14.396   2.925  1.00  0.00     0.109 A 
HETATM    2  S   UNL     1      41.598 -12.847   2.941  1.00  0.00    -0.063 SA
HETATM    3  C   UNL     1      41.165 -12.558   1.336  1.00  0.00     0.088 A 
HETATM    4  C   UNL     1      40.447 -13.576   0.736  1.00  0.00     0.033 A 
HETATM    5  C   UNL     1      40.297 -14.657   1.682  1.00  0.00     0.063 A 
HETATM    6  N   UNL     1      41.509 -11.406   0.712  1.00  0.00    -0.353 N 
HETATM    7  H   UNL     1      42.040 -10.724   1.250  1.00  0.00     0.166 HD
HETATM    8  C   UNL     1      41.170 -11.184  -0.562  1.00  0.00     0.015 A 
HETATM    9  C   UNL     1      41.608  -9.886  -1.170  1.00  0.00     0.069 C 
HETATM   10  C   UNL     1      40.440 -12.159  -1.263  1.00  0.00    -0.005 A 
HETATM   11  C   UNL     1      40.034 -13.357  -0.613  1.00  0.00    -0.030 A 
HETATM   12  C   UNL     1      39.230 -14.376  -1.400  1.00  0.00     0.077 C 
HETATM   13  C   UNL     1      38.600 -13.822  -2.690  1.00  0.00     0.058 C 
HETATM   14  C   UNL     1      37.329 -13.003  -2.414  1.00  0.00     0.046 C 
HETATM   15  C   UNL     1      38.231 -14.989  -3.616  1.00  0.00     0.046 C 
HETATM   16  O   UNL     1      39.589 -13.060  -3.391  1.00  0.00    -0.376 OA
HETATM   17  C   UNL     1      40.042 -11.903  -2.705  1.00  0.00     0.210 C 
ENDROOT
BRANCH   1  18
HETATM   18  C   UNL     1      40.887 -15.273   4.089  1.00  0.00     0.302 C 
HETATM   19  O   UNL     1      40.590 -14.922   5.225  1.00  0.00    -0.259 OA
BRANCH  18  20
HETATM   20  O   UNL     1      41.265 -16.539   3.750  1.00  0.00    -0.317 OA
BRANCH  20  21
HETATM   21  C   UNL     1      42.681 -16.767   3.651  1.00  0.00     0.174 C 
HETATM   22  C   UNL     1      43.034 -17.283   2.268  1.00  0.00     0.034 C 
ENDBRANCH  20  21
ENDBRANCH  18  20
ENDBRANCH   1  18
BRANCH   5  23
HETATM   23  N   UNL     1      39.675 -15.824   1.413  1.00  0.00    -0.397 N 
HETATM   24  H   UNL     1      40.145 -16.675   1.118  1.00  0.00     0.156 HD
HETATM   25  H   UNL     1      38.747 -16.029   1.806  1.00  0.00     0.156 HD
ENDBRANCH   5  23
TORSDOF 4
ENDMDL
MODEL 3
REMARK VINA RESULT:      -7.0      1.590      3.448
REMARK  4 active torsions:
REMARK  status: ('A' for Active; 'I' for Inactive)
REMARK    1  A    between atoms: C_2  and  O_3 
REMARK    2  A    between atoms: O_3  and  C_4 
REMARK    3  A    between atoms: C_4  and  C_5 
REMARK    4  A    between atoms: C_9  and  N_10 
ROOT
HETATM    1  C   UNL     1      43.674 -17.641   5.307  1.00  0.00     0.109 A 
HETATM    2  S   UNL     1      44.142 -16.770   6.708  1.00  0.00    -0.063 SA
HETATM    3  C   UNL     1      43.670 -15.301   6.026  1.00  0.00     0.088 A 
HETATM    4  C   UNL     1      43.132 -15.397   4.755  1.00  0.00     0.033 A 
HETATM    5  C   UNL     1      43.163 -16.781   4.343  1.00  0.00     0.063 A 
HETATM    6  N   UNL     1      43.818 -14.134   6.698  1.00  0.00    -0.353 N 
HETATM    7  H   UNL     1      44.228 -14.181   7.630  1.00  0.00     0.166 HD
HETATM    8  C   UNL     1      43.450 -12.972   6.151  1.00  0.00     0.015 A 
HETATM    9  C   UNL     1      43.667 -11.733   6.967  1.00  0.00     0.069 C 
HETATM   10  C   UNL     1      42.894 -12.960   4.861  1.00  0.00    -0.005 A 
HETATM   11  C   UNL     1      42.691 -14.179   4.156  1.00  0.00    -0.030 A 
HETATM   12  C   UNL     1      42.069 -14.124   2.772  1.00  0.00     0.077 C 
HETATM   13  C   UNL     1      41.358 -12.798   2.451  1.00  0.00     0.058 C 
HETATM   14  C   UNL     1      39.968 -12.709   3.101  1.00  0.00     0.046 C 
HETATM   15  C   UNL     1      41.190 -12.667   0.931  1.00  0.00     0.046 C 
HETATM   16  O   UNL     1      42.208 -11.717   2.849  1.00  0.00    -0.376 OA
HETATM   17  C   UNL     1      42.461 -11.643   4.244  1.00  0.00     0.210 C 
ENDROOT
BRANCH   1  18
HETATM   18  C   UNL     1      43.842 -19.086   5.205  1.00  0.00     0.302 C 
HETATM   19  O   UNL     1      43.543 -19.881   6.089  1.00  0.00    -0.259 OA
BRANCH  18  20
HETATM   20  O   UNL     1      44.358 -19.443   3.994  1.00  0.00    -0.317 OA
BRANCH  20  21
HETATM   21  C   UNL     1      43.822 -20.642   3.410  1.00  0.00     0.174 C 
HETATM   22  C   UNL     1      43.579 -20.441   1.927  1.00  0.00     0.034 C 
ENDBRANCH  20  21
ENDBRANCH  18  20
ENDBRANCH   1  18
BRANCH   5  23
HETATM   23  N   UNL     1      42.743 -17.226   3.140  1.00  0.00    -0.397 N 
HETATM   24  H   UNL     1      43.354 -17.586   2.412  1.00  0.00     0.156 HD
HETATM   25  H   UNL     1      41.776 -17.546   3.005  1.00  0.00     0.156 HD
ENDBRANCH   5  23
TORSDOF 4
ENDMDL
MODEL 4
REMARK VINA RESULT:      -6.6      4.444      7.374
REMARK  4 active torsions:
REMARK  status: ('A' for Active; 'I' for Inactive)
REMARK    1  A    between atoms: C_2  and  O_3 
REMARK    2  A    between atoms: O_3  and  C_4 
REMARK    3  A    between atoms: C_4  and  C_5 
REMARK    4  A    between atoms: C_9  and  N_10 
ROOT
HETATM    1  C   UNL     1      40.331 -13.041   3.634  1.00  0.00     0.109 A 
HETATM    2  S   UNL     1      41.132 -11.547   3.373  1.00  0.00    -0.063 SA
HETATM    3  C   UNL     1      40.961 -11.678   1.700  1.00  0.00     0.088 A 
HETATM    4  C   UNL     1      40.292 -12.810   1.272  1.00  0.00     0.033 A 
HETATM    5  C   UNL     1      39.948 -13.608   2.425  1.00  0.00     0.063 A 
HETATM    6  N   UNL     1      41.451 -10.729   0.867  1.00  0.00    -0.353 N 
HETATM    7  H   UNL     1      41.928  -9.935   1.292  1.00  0.00     0.166 HD
HETATM    8  C   UNL     1      41.319 -10.840  -0.459  1.00  0.00     0.015 A 
HETATM    9  C   UNL     1      41.907  -9.746  -1.298  1.00  0.00     0.069 C 
HETATM   10  C   UNL     1      40.656 -11.956  -0.996  1.00  0.00    -0.005 A 
HETATM   11  C   UNL     1      40.098 -12.942  -0.136  1.00  0.00    -0.030 A 
HETATM   12  C   UNL     1      39.372 -14.123  -0.757  1.00  0.00     0.077 C 
HETATM   13  C   UNL     1      38.972 -13.915  -2.228  1.00  0.00     0.058 C 
HETATM   14  C   UNL     1      37.716 -13.041  -2.373  1.00  0.00     0.046 C 
HETATM   15  C   UNL     1      38.689 -15.278  -2.874  1.00  0.00     0.046 C 
HETATM   16  O   UNL     1      40.091 -13.368  -2.933  1.00  0.00    -0.376 OA
HETATM   17  C   UNL     1      40.492 -12.077  -2.500  1.00  0.00     0.210 C 
ENDROOT
BRANCH   1  18
HETATM   18  C   UNL     1      40.138 -13.588   4.971  1.00  0.00     0.302 C 
HETATM   19  O   UNL     1      39.468 -13.053   5.847  1.00  0.00    -0.259 OA
BRANCH  18  20
HETATM   20  O   UNL     1      40.781 -14.782   5.118  1.00  0.00    -0.317 OA
BRANCH  20  21
HETATM   21  C   UNL     1      40.482 -15.514   6.319  1.00  0.00     0.174 C 
HETATM   22  C   UNL     1      41.762 -16.025   6.954  1.00  0.00     0.034 C 
ENDBRANCH  20  21
ENDBRANCH  18  20
ENDBRANCH   1  18
BRANCH   5  23
HETATM   23  N   UNL     1      39.316 -14.800   2.366  1.00  0.00    -0.397 N 
HETATM   24  H   UNL     1      38.317 -14.917   2.228  1.00  0.00     0.156 HD
HETATM   25  H   UNL     1      39.829 -15.656   2.117  1.00  0.00     0.156 HD
ENDBRANCH   5  23
TORSDOF 4
ENDMDL
MODEL 5
REMARK VINA RESULT:      -6.6      2.452      2.894
REMARK  4 active torsions:
REMARK  status: ('A' for Active; 'I' for Inactive)
REMARK    1  A    between atoms: C_2  and  O_3 
REMARK    2  A    between atoms: O_3  and  C_4 
REMARK    3  A    between atoms: C_4  and  C_5 
REMARK    4  A    between atoms: C_9  and  N_10 
ROOT
HETATM    1  C   UNL     1      43.125 -16.843   3.657  1.00  0.00     0.109 A 
HETATM    2  S   UNL     1      43.228 -16.562   1.968  1.00  0.00    -0.063 SA
HETATM    3  C   UNL     1      42.259 -15.186   2.076  1.00  0.00     0.088 A 
HETATM    4  C   UNL     1      41.842 -14.868   3.356  1.00  0.00     0.033 A 
HETATM    5  C   UNL     1      42.345 -15.869   4.268  1.00  0.00     0.063 A 
HETATM    6  N   UNL     1      41.935 -14.467   0.975  1.00  0.00    -0.353 N 
HETATM    7  H   UNL     1      42.298 -14.792   0.080  1.00  0.00     0.166 HD
HETATM    8  C   UNL     1      41.161 -13.380   1.064  1.00  0.00     0.015 A 
HETATM    9  C   UNL     1      40.844 -12.660  -0.212  1.00  0.00     0.069 C 
HETATM   10  C   UNL     1      40.682 -12.974   2.320  1.00  0.00    -0.005 A 
HETATM   11  C   UNL     1      41.045 -13.692   3.494  1.00  0.00    -0.030 A 
HETATM   12  C   UNL     1      40.522 -13.208   4.834  1.00  0.00     0.077 C 
HETATM   13  C   UNL     1      39.988 -11.766   4.821  1.00  0.00     0.058 C 
HETATM   14  C   UNL     1      41.117 -10.724   4.863  1.00  0.00     0.046 C 
HETATM   15  C   UNL     1      39.083 -11.547   6.041  1.00  0.00     0.046 C 
HETATM   16  O   UNL     1      39.148 -11.601   3.673  1.00  0.00    -0.376 OA
HETATM   17  C   UNL     1      39.814 -11.733   2.426  1.00  0.00     0.210 C 
ENDROOT
BRANCH   1  18
HETATM   18  C   UNL     1      43.774 -17.985   4.289  1.00  0.00     0.302 C 
HETATM   19  O   UNL     1      43.765 -18.204   5.495  1.00  0.00    -0.259 OA
BRANCH  18  20
HETATM   20  O   UNL     1      44.377 -18.788   3.367  1.00  0.00    -0.317 OA
BRANCH  20  21
HETATM   21  C   UNL     1      43.846 -20.120   3.249  1.00  0.00     0.174 C 
HETATM   22  C   UNL     1      43.461 -20.405   1.809  1.00  0.00     0.034 C 
ENDBRANCH  20  21
ENDBRANCH  18  20
ENDBRANCH   1  18
BRANCH   5  23
HETATM   23  N   UNL     1      42.097 -15.883   5.595  1.00  0.00    -0.397 N 
HETATM   24  H   UNL     1      42.270 -16.676   6.206  1.00  0.00     0.156 HD
HETATM   25  H   UNL     1      42.039 -15.007   6.129  1.00  0.00     0.156 HD
ENDBRANCH   5  23
TORSDOF 4
ENDMDL
MODEL 6
REMARK VINA RESULT:      -6.3      2.885      6.861
REMARK  4 active torsions:
REMARK  status: ('A' for Active; 'I' for Inactive)
REMARK    1  A    between atoms: C_2  and  O_3 
REMARK    2  A    between atoms: O_3  and  C_4 
REMARK    3  A    between atoms: C_4  and  C_5 
REMARK    4  A    between atoms: C_9  and  N_10 
ROOT
HETATM    1  C   UNL     1      40.579 -13.840   2.875  1.00  0.00     0.109 A 
HETATM    2  S   UNL     1      41.234 -13.332   4.376  1.00  0.00    -0.063 SA
HETATM    3  C   UNL     1      42.048 -14.795   4.585  1.00  0.00     0.088 A 
HETATM    4  C   UNL     1      41.888 -15.701   3.552  1.00  0.00     0.033 A 
HETATM    5  C   UNL     1      41.003 -15.127   2.566  1.00  0.00     0.063 A 
HETATM    6  N   UNL     1      42.795 -15.032   5.690  1.00  0.00    -0.353 N 
HETATM    7  H   UNL     1      42.843 -14.292   6.389  1.00  0.00     0.166 HD
HETATM    8  C   UNL     1      43.433 -16.195   5.854  1.00  0.00     0.015 A 
HETATM    9  C   UNL     1      44.222 -16.369   7.117  1.00  0.00     0.069 C 
HETATM   10  C   UNL     1      43.332 -17.185   4.863  1.00  0.00    -0.005 A 
HETATM   11  C   UNL     1      42.586 -16.939   3.676  1.00  0.00    -0.030 A 
HETATM   12  C   UNL     1      42.519 -18.028   2.621  1.00  0.00     0.077 C 
HETATM   13  C   UNL     1      43.592 -19.120   2.770  1.00  0.00     0.058 C 
HETATM   14  C   UNL     1      44.964 -18.667   2.244  1.00  0.00     0.046 C 
HETATM   15  C   UNL     1      43.161 -20.367   1.986  1.00  0.00     0.046 C 
HETATM   16  O   UNL     1      43.649 -19.519   4.144  1.00  0.00    -0.376 OA
HETATM   17  C   UNL     1      44.067 -18.501   5.041  1.00  0.00     0.210 C 
ENDROOT
BRANCH   1  18
HETATM   18  C   UNL     1      39.686 -12.990   2.096  1.00  0.00     0.302 C 
HETATM   19  O   UNL     1      38.629 -12.532   2.514  1.00  0.00    -0.259 OA
BRANCH  18  20
HETATM   20  O   UNL     1      40.186 -12.754   0.849  1.00  0.00    -0.317 OA
BRANCH  20  21
HETATM   21  C   UNL     1      39.219 -12.682  -0.213  1.00  0.00     0.174 C 
HETATM   22  C   UNL     1      39.568 -13.673  -1.308  1.00  0.00     0.034 C 
ENDBRANCH  20  21
ENDBRANCH  18  20
ENDBRANCH   1  18
BRANCH   5  23
HETATM   23  N   UNL     1      40.604 -15.758   1.441  1.00  0.00    -0.397 N 
HETATM   24  H   UNL     1      39.729 -15.580   0.958  1.00  0.00     0.156 HD
HETATM   25  H   UNL     1      41.289 -16.203   0.817  1.00  0.00     0.156 HD
ENDBRANCH   5  23
TORSDOF 4
ENDMDL
MODEL 7
REMARK VINA RESULT:      -6.2      3.198      6.844
REMARK  4 active torsions:
REMARK  status: ('A' for Active; 'I' for Inactive)
REMARK    1  A    between atoms: C_2  and  O_3 
REMARK    2  A    between atoms: O_3  and  C_4 
REMARK    3  A    between atoms: C_4  and  C_5 
REMARK    4  A    between atoms: C_9  and  N_10 
ROOT
HETATM    1  C   UNL     1      43.662 -10.830   7.133  1.00  0.00     0.109 A 
HETATM    2  S   UNL     1      42.383  -9.816   6.608  1.00  0.00    -0.063 SA
HETATM    3  C   UNL     1      41.766 -11.017   5.596  1.00  0.00     0.088 A 
HETATM    4  C   UNL     1      42.461 -12.212   5.623  1.00  0.00     0.033 A 
HETATM    5  C   UNL     1      43.586 -12.073   6.518  1.00  0.00     0.063 A 
HETATM    6  N   UNL     1      40.670 -10.797   4.831  1.00  0.00    -0.353 N 
HETATM    7  H   UNL     1      40.236  -9.877   4.890  1.00  0.00     0.166 HD
HETATM    8  C   UNL     1      40.188 -11.749   4.026  1.00  0.00     0.015 A 
HETATM    9  C   UNL     1      38.981 -11.406   3.207  1.00  0.00     0.069 C 
HETATM   10  C   UNL     1      40.825 -13.000   3.978  1.00  0.00    -0.005 A 
HETATM   11  C   UNL     1      41.952 -13.265   4.805  1.00  0.00    -0.030 A 
HETATM   12  C   UNL     1      42.599 -14.637   4.736  1.00  0.00     0.077 C 
HETATM   13  C   UNL     1      41.721 -15.717   4.080  1.00  0.00     0.058 C 
HETATM   14  C   UNL     1      40.641 -16.251   5.034  1.00  0.00     0.046 C 
HETATM   15  C   UNL     1      42.605 -16.893   3.643  1.00  0.00     0.046 C 
HETATM   16  O   UNL     1      41.158 -15.179   2.879  1.00  0.00    -0.376 OA
HETATM   17  C   UNL     1      40.271 -14.088   3.075  1.00  0.00     0.210 C 
ENDROOT
BRANCH   1  18
HETATM   18  C   UNL     1      44.670 -10.370   8.081  1.00  0.00     0.302 C 
HETATM   19  O   UNL     1      45.512  -9.515   7.834  1.00  0.00    -0.259 OA
BRANCH  18  20
HETATM   20  O   UNL     1      44.546 -11.001   9.284  1.00  0.00    -0.317 OA
BRANCH  20  21
HETATM   21  C   UNL     1      43.601 -10.424  10.202  1.00  0.00     0.174 C 
HETATM   22  C   UNL     1      44.264  -9.330  11.018  1.00  0.00     0.034 C 
ENDBRANCH  20  21
ENDBRANCH  18  20
ENDBRANCH   1  18
BRANCH   5  23
HETATM   23  N   UNL     1      44.496 -13.043   6.754  1.00  0.00    -0.397 N 
HETATM   24  H   UNL     1      44.271 -14.023   6.895  1.00  0.00     0.156 HD
HETATM   25  H   UNL     1      45.477 -12.922   6.475  1.00  0.00     0.156 HD
ENDBRANCH   5  23
TORSDOF 4
ENDMDL
MODEL 8
REMARK VINA RESULT:      -6.1      3.511      7.492
REMARK  4 active torsions:
REMARK  status: ('A' for Active; 'I' for Inactive)
REMARK    1  A    between atoms: C_2  and  O_3 
REMARK    2  A    between atoms: O_3  and  C_4 
REMARK    3  A    between atoms: C_4  and  C_5 
REMARK    4  A    between atoms: C_9  and  N_10 
ROOT
HETATM    1  C   UNL     1      42.843  -9.480   7.488  1.00  0.00     0.109 A 
HETATM    2  S   UNL     1      41.489  -9.258   6.460  1.00  0.00    -0.063 SA
HETATM    3  C   UNL     1      41.571 -10.850   5.906  1.00  0.00     0.088 A 
HETATM    4  C   UNL     1      42.580 -11.609   6.471  1.00  0.00     0.033 A 
HETATM    5  C   UNL     1      43.330 -10.777   7.383  1.00  0.00     0.063 A 
HETATM    6  N   UNL     1      40.700 -11.319   4.981  1.00  0.00    -0.353 N 
HETATM    7  H   UNL     1      39.995 -10.671   4.633  1.00  0.00     0.166 HD
HETATM    8  C   UNL     1      40.773 -12.579   4.541  1.00  0.00     0.015 A 
HETATM    9  C   UNL     1      39.774 -13.000   3.506  1.00  0.00     0.069 C 
HETATM   10  C   UNL     1      41.766 -13.432   5.050  1.00  0.00    -0.005 A 
HETATM   11  C   UNL     1      42.664 -12.971   6.052  1.00  0.00    -0.030 A 
HETATM   12  C   UNL     1      43.710 -13.932   6.590  1.00  0.00     0.077 C 
HETATM   13  C   UNL     1      43.425 -15.412   6.284  1.00  0.00     0.058 C 
HETATM   14  C   UNL     1      42.364 -16.009   7.223  1.00  0.00     0.046 C 
HETATM   15  C   UNL     1      44.719 -16.221   6.440  1.00  0.00     0.046 C 
HETATM   16  O   UNL     1      43.050 -15.529   4.907  1.00  0.00    -0.376 OA
HETATM   17  C   UNL     1      41.842 -14.867   4.562  1.00  0.00     0.210 C 
ENDROOT
BRANCH   1  18
HETATM   18  C   UNL     1      43.370  -8.400   8.312  1.00  0.00     0.302 C 
HETATM   19  O   UNL     1      43.497  -7.241   7.935  1.00  0.00    -0.259 OA
BRANCH  18  20
HETATM   20  O   UNL     1      43.687  -8.839   9.565  1.00  0.00    -0.317 OA
BRANCH  20  21
HETATM   21  C   UNL     1      43.265  -7.998  10.652  1.00  0.00     0.174 C 
HETATM   22  C   UNL     1      43.546  -8.676  11.979  1.00  0.00     0.034 C 
ENDBRANCH  20  21
ENDBRANCH  18  20
ENDBRANCH   1  18
BRANCH   5  23
HETATM   23  N   UNL     1      44.408 -11.193   8.082  1.00  0.00    -0.397 N 
HETATM   24  H   UNL     1      44.805 -12.126   8.030  1.00  0.00     0.156 HD
HETATM   25  H   UNL     1      45.092 -10.517   8.445  1.00  0.00     0.156 HD
ENDBRANCH   5  23
TORSDOF 4
ENDMDL
MODEL 9
REMARK VINA RESULT:      -6.1     15.388     16.434
REMARK  4 active torsions:
REMARK  status: ('A' for Active; 'I' for Inactive)
REMARK    1  A    between atoms: C_2  and  O_3 
REMARK    2  A    between atoms: O_3  and  C_4 
REMARK    3  A    between atoms: C_4  and  C_5 
REMARK    4  A    between atoms: C_9  and  N_10 
ROOT
HETATM    1  C   UNL     1      48.856 -30.069   3.218  1.00  0.00     0.109 A 
HETATM    2  S   UNL     1      47.551 -30.334   4.298  1.00  0.00    -0.063 SA
HETATM    3  C   UNL     1      46.411 -30.003   3.099  1.00  0.00     0.088 A 
HETATM    4  C   UNL     1      46.944 -29.707   1.857  1.00  0.00     0.033 A 
HETATM    5  C   UNL     1      48.386 -29.732   1.955  1.00  0.00     0.063 A 
HETATM    6  N   UNL     1      45.083 -30.034   3.363  1.00  0.00    -0.353 N 
HETATM    7  H   UNL     1      44.801 -30.264   4.314  1.00  0.00     0.166 HD
HETATM    8  C   UNL     1      44.184 -29.764   2.411  1.00  0.00     0.015 A 
HETATM    9  C   UNL     1      42.738 -29.810   2.804  1.00  0.00     0.069 C 
HETATM   10  C   UNL     1      44.624 -29.449   1.115  1.00  0.00    -0.005 A 
HETATM   11  C   UNL     1      46.013 -29.451   0.807  1.00  0.00    -0.030 A 
HETATM   12  C   UNL     1      46.445 -29.125  -0.611  1.00  0.00     0.077 C 
HETATM   13  C   UNL     1      45.317 -29.221  -1.653  1.00  0.00     0.058 C 
HETATM   14  C   UNL     1      45.018 -30.674  -2.058  1.00  0.00     0.046 C 
HETATM   15  C   UNL     1      45.721 -28.442  -2.912  1.00  0.00     0.046 C 
HETATM   16  O   UNL     1      44.159 -28.559  -1.134  1.00  0.00    -0.376 OA
HETATM   17  C   UNL     1      43.605 -29.156   0.029  1.00  0.00     0.210 C 
ENDROOT
BRANCH   1  18
HETATM   18  C   UNL     1      50.245 -30.179   3.647  1.00  0.00     0.302 C 
HETATM   19  O   UNL     1      51.208 -29.869   2.955  1.00  0.00    -0.259 OA
BRANCH  18  20
HETATM   20  O   UNL     1      50.336 -30.652   4.923  1.00  0.00    -0.317 OA
BRANCH  20  21
HETATM   21  C   UNL     1      51.234 -31.758   5.121  1.00  0.00     0.174 C 
HETATM   22  C   UNL     1      52.306 -31.388   6.129  1.00  0.00     0.034 C 
ENDBRANCH  20  21
ENDBRANCH  18  20
ENDBRANCH   1  18
BRANCH   5  23
HETATM   23  N   UNL     1      49.223 -29.454   0.933  1.00  0.00    -0.397 N 
HETATM   24  H   UNL     1      49.240 -28.576   0.423  1.00  0.00     0.156 HD
HETATM   25  H   UNL     1      50.108 -29.965   0.825  1.00  0.00     0.156 HD
ENDBRANCH   5  23
TORSDOF 4
ENDMDL
MODEL 10
REMARK VINA RESULT:      -6.1      2.854      7.508
REMARK  4 active torsions:
REMARK  status: ('A' for Active; 'I' for Inactive)
REMARK    1  A    between atoms: C_2  and  O_3 
REMARK    2  A    between atoms: O_3  and  C_4 
REMARK    3  A    between atoms: C_4  and  C_5 
REMARK    4  A    between atoms: C_9  and  N_10 
ROOT
HETATM    1  C   UNL     1      42.366 -10.779   6.186  1.00  0.00     0.109 A 
HETATM    2  S   UNL     1      43.527 -11.588   7.153  1.00  0.00    -0.063 SA
HETATM    3  C   UNL     1      43.289 -13.042   6.330  1.00  0.00     0.088 A 
HETATM    4  C   UNL     1      42.365 -12.982   5.303  1.00  0.00     0.033 A 
HETATM    5  C   UNL     1      41.819 -11.646   5.249  1.00  0.00     0.063 A 
HETATM    6  N   UNL     1      43.967 -14.163   6.673  1.00  0.00    -0.353 N 
HETATM    7  H   UNL     1      44.624 -14.093   7.449  1.00  0.00     0.166 HD
HETATM    8  C   UNL     1      43.770 -15.314   6.023  1.00  0.00     0.015 A 
HETATM    9  C   UNL     1      44.556 -16.504   6.485  1.00  0.00     0.069 C 
HETATM   10  C   UNL     1      42.849 -15.360   4.963  1.00  0.00    -0.005 A 
HETATM   11  C   UNL     1      42.158 -14.184   4.561  1.00  0.00    -0.030 A 
HETATM   12  C   UNL     1      41.186 -14.272   3.398  1.00  0.00     0.077 C 
HETATM   13  C   UNL     1      41.356 -15.529   2.527  1.00  0.00     0.058 C 
HETATM   14  C   UNL     1      42.541 -15.409   1.554  1.00  0.00     0.046 C 
HETATM   15  C   UNL     1      40.079 -15.755   1.707  1.00  0.00     0.046 C 
HETATM   16  O   UNL     1      41.481 -16.667   3.386  1.00  0.00    -0.376 OA
HETATM   17  C   UNL     1      42.634 -16.663   4.214  1.00  0.00     0.210 C 
ENDROOT
BRANCH   1  18
HETATM   18  C   UNL     1      42.032  -9.375   6.395  1.00  0.00     0.302 C 
HETATM   19  O   UNL     1      41.690  -8.606   5.505  1.00  0.00    -0.259 OA
BRANCH  18  20
HETATM   20  O   UNL     1      42.132  -9.031   7.711  1.00  0.00    -0.317 OA
BRANCH  20  21
HETATM   21  C   UNL     1      42.814  -7.796   7.989  1.00  0.00     0.174 C 
HETATM   22  C   UNL     1      44.158  -8.072   8.636  1.00  0.00     0.034 C 
ENDBRANCH  20  21
ENDBRANCH  18  20
ENDBRANCH   1  18
BRANCH   5  23
HETATM   23  N   UNL     1      40.864 -11.249   4.381  1.00  0.00    -0.397 N 
HETATM   24  H   UNL     1      40.513 -11.811   3.612  1.00  0.00     0.156 HD
HETATM   25  H   UNL     1      40.199 -10.508   4.634  1.00  0.00     0.156 HD
ENDBRANCH   5  23
TORSDOF 4
ENDMDL
