MODEL 1
REMARK VINA RESULT:      -9.3      0.000      0.000
REMARK  4 active torsions:
REMARK  status: ('A' for Active; 'I' for Inactive)
REMARK    1  A    between atoms: O_2  and  C_3 
REMARK    2  A    between atoms: C_3  and  C_4 
REMARK    3  A    between atoms: N_11  and  C_13 
REMARK    4  A    between atoms: C_13  and  C_14 
ROOT
HETATM    1  C   UNL     1      40.390 -11.899   2.831  1.00  0.00     0.290 C 
HETATM    2  N   UNL     1      40.436 -13.435   3.187  1.00  0.00    -0.047 N 
HETATM    3  H   UNL     1      39.462 -13.641   3.464  1.00  0.00     0.279 HD
HETATM    4  H   UNL     1      40.964 -13.500   4.070  1.00  0.00     0.279 HD
HETATM    5  C   UNL     1      40.824 -14.365   2.055  1.00  0.00     0.172 C 
HETATM    6  C   UNL     1      42.336 -14.289   1.780  1.00  0.00     0.073 C 
HETATM    7  C   UNL     1      43.199 -14.880   2.887  1.00  0.00     0.238 C 
HETATM    8  N   UNL     1      42.759 -16.287   3.199  1.00  0.00    -0.067 N 
HETATM    9  H   UNL     1      42.957 -16.874   2.373  1.00  0.00     0.280 HD
HETATM   10  C   UNL     1      41.302 -16.400   3.550  1.00  0.00     0.238 C 
HETATM   11  C   UNL     1      40.438 -15.806   2.446  1.00  0.00     0.073 C 
HETATM   12  C   UNL     1      40.035 -13.898   0.859  1.00  0.00     0.053 A 
HETATM   13  C   UNL     1      39.346 -12.699   0.730  1.00  0.00    -0.018 A 
HETATM   14  C   UNL     1      39.281 -11.661   1.801  1.00  0.00     0.085 C 
HETATM   15  N   UNL     1      39.877 -14.583  -0.326  1.00  0.00    -0.356 N 
HETATM   16  H   UNL     1      40.258 -15.488  -0.575  1.00  0.00     0.166 HD
HETATM   17  C   UNL     1      39.078 -13.864  -1.187  1.00  0.00     0.043 A 
HETATM   18  C   UNL     1      38.734 -12.673  -0.550  1.00  0.00    -0.001 A 
HETATM   19  C   UNL     1      38.640 -14.183  -2.477  1.00  0.00     0.030 A 
HETATM   20  C   UNL     1      37.827 -13.254  -3.134  1.00  0.00     0.002 A 
HETATM   21  C   UNL     1      37.470 -12.056  -2.523  1.00  0.00     0.001 A 
HETATM   22  C   UNL     1      37.916 -11.751  -1.231  1.00  0.00     0.014 A 
ENDROOT
BRANCH   1  23
HETATM   23  C   UNL     1      40.178 -11.127   4.126  1.00  0.00     0.289 C 
HETATM   24  O   UNL     1      39.044 -10.765   4.433  1.00  0.00    -0.263 OA
BRANCH  23  25
HETATM   25  O   UNL     1      41.307 -10.977   4.841  1.00  0.00    -0.325 OA
HETATM   26  C   UNL     1      42.449 -10.549   4.085  1.00  0.00     0.213 C 
ENDBRANCH  23  25
ENDBRANCH   1  23
BRANCH   8  27
HETATM   27  C   UNL     1      43.620 -16.940   4.298  1.00  0.00     0.273 C 
BRANCH  27  28
HETATM   28  C   UNL     1      43.752 -18.427   4.149  1.00  0.00    -0.033 A 
HETATM   29  C   UNL     1      43.668 -19.020   2.878  1.00  0.00     0.009 A 
HETATM   30  C   UNL     1      43.766 -20.405   2.738  1.00  0.00     0.001 A 
HETATM   31  C   UNL     1      43.949 -21.210   3.859  1.00  0.00     0.000 A 
HETATM   32  C   UNL     1      44.045 -20.632   5.123  1.00  0.00     0.001 A 
HETATM   33  C   UNL     1      43.949 -19.247   5.271  1.00  0.00     0.009 A 
ENDBRANCH  27  28
ENDBRANCH   8  27
TORSDOF 4
ENDMDL
MODEL 2
REMARK VINA RESULT:      -9.2      2.971      7.688
REMARK  4 active torsions:
REMARK  status: ('A' for Active; 'I' for Inactive)
REMARK    1  A    between atoms: O_2  and  C_3 
REMARK    2  A    between atoms: C_3  and  C_4 
REMARK    3  A    between atoms: N_11  and  C_13 
REMARK    4  A    between atoms: C_13  and  C_14 
ROOT
HETATM    1  C   UNL     1      41.327 -14.576   1.778  1.00  0.00     0.290 C 
HETATM    2  N   UNL     1      41.123 -14.147   3.282  1.00  0.00    -0.047 N 
HETATM    3  H   UNL     1      40.288 -14.685   3.569  1.00  0.00     0.279 HD
HETATM    4  H   UNL     1      40.789 -13.171   3.250  1.00  0.00     0.279 HD
HETATM    5  C   UNL     1      42.261 -14.479   4.226  1.00  0.00     0.172 C 
HETATM    6  C   UNL     1      43.442 -13.517   4.016  1.00  0.00     0.073 C 
HETATM    7  C   UNL     1      43.166 -12.087   4.463  1.00  0.00     0.238 C 
HETATM    8  N   UNL     1      42.679 -12.069   5.889  1.00  0.00    -0.067 N 
HETATM    9  H   UNL     1      43.452 -12.386   6.494  1.00  0.00     0.280 HD
HETATM   10  C   UNL     1      41.475 -12.937   6.126  1.00  0.00     0.238 C 
HETATM   11  C   UNL     1      41.748 -14.365   5.676  1.00  0.00     0.073 C 
HETATM   12  C   UNL     1      42.656 -15.896   3.900  1.00  0.00     0.053 A 
HETATM   13  C   UNL     1      42.281 -16.631   2.783  1.00  0.00    -0.018 A 
HETATM   14  C   UNL     1      41.395 -16.104   1.703  1.00  0.00     0.085 C 
HETATM   15  N   UNL     1      43.477 -16.704   4.657  1.00  0.00    -0.356 N 
HETATM   16  H   UNL     1      43.934 -16.477   5.531  1.00  0.00     0.166 HD
HETATM   17  C   UNL     1      43.603 -17.940   4.065  1.00  0.00     0.043 A 
HETATM   18  C   UNL     1      42.865 -17.921   2.882  1.00  0.00    -0.001 A 
HETATM   19  C   UNL     1      44.315 -19.068   4.490  1.00  0.00     0.030 A 
HETATM   20  C   UNL     1      44.271 -20.206   3.680  1.00  0.00     0.002 A 
HETATM   21  C   UNL     1      43.545 -20.214   2.493  1.00  0.00     0.001 A 
HETATM   22  C   UNL     1      42.837 -19.078   2.081  1.00  0.00     0.014 A 
ENDROOT
BRANCH   1  23
HETATM   23  C   UNL     1      40.181 -13.988   0.966  1.00  0.00     0.289 C 
HETATM   24  O   UNL     1      39.761 -12.867   1.241  1.00  0.00    -0.263 OA
BRANCH  23  25
HETATM   25  O   UNL     1      39.785 -14.787  -0.042  1.00  0.00    -0.325 OA
HETATM   26  C   UNL     1      39.405 -14.101  -1.243  1.00  0.00     0.213 C 
ENDBRANCH  23  25
ENDBRANCH   1  23
BRANCH   8  27
HETATM   27  C   UNL     1      42.409 -10.639   6.396  1.00  0.00     0.273 C 
BRANCH  27  28
HETATM   28  C   UNL     1      43.465 -10.129   7.333  1.00  0.00    -0.033 A 
HETATM   29  C   UNL     1      43.345  -8.852   7.906  1.00  0.00     0.009 A 
HETATM   30  C   UNL     1      44.337  -8.364   8.758  1.00  0.00     0.001 A 
HETATM   31  C   UNL     1      45.454  -9.143   9.047  1.00  0.00     0.000 A 
HETATM   32  C   UNL     1      45.579 -10.416   8.493  1.00  0.00     0.001 A 
HETATM   33  C   UNL     1      44.590 -10.910   7.641  1.00  0.00     0.009 A 
ENDBRANCH  27  28
ENDBRANCH   8  27
TORSDOF 4
ENDMDL
MODEL 3
REMARK VINA RESULT:      -9.1      1.727      7.792
REMARK  4 active torsions:
REMARK  status: ('A' for Active; 'I' for Inactive)
REMARK    1  A    between atoms: O_2  and  C_3 
REMARK    2  A    between atoms: C_3  and  C_4 
REMARK    3  A    between atoms: N_11  and  C_13 
REMARK    4  A    between atoms: C_13  and  C_14 
ROOT
HETATM    1  C   UNL     1      42.708 -14.895   5.430  1.00  0.00     0.290 C 
HETATM    2  N   UNL     1      42.677 -14.299   3.969  1.00  0.00    -0.047 N 
HETATM    3  H   UNL     1      43.679 -14.188   3.739  1.00  0.00     0.279 HD
HETATM    4  H   UNL     1      42.338 -13.331   4.072  1.00  0.00     0.279 HD
HETATM    5  C   UNL     1      42.032 -15.172   2.912  1.00  0.00     0.172 C 
HETATM    6  C   UNL     1      40.500 -15.154   3.050  1.00  0.00     0.073 C 
HETATM    7  C   UNL     1      39.858 -13.821   2.689  1.00  0.00     0.238 C 
HETATM    8  N   UNL     1      40.300 -13.383   1.316  1.00  0.00    -0.067 N 
HETATM    9  H   UNL     1      39.915 -14.051   0.630  1.00  0.00     0.280 HD
HETATM   10  C   UNL     1      41.792 -13.310   1.157  1.00  0.00     0.238 C 
HETATM   11  C   UNL     1      42.434 -14.641   1.521  1.00  0.00     0.073 C 
HETATM   12  C   UNL     1      42.578 -16.557   3.142  1.00  0.00     0.053 A 
HETATM   13  C   UNL     1      43.271 -17.006   4.259  1.00  0.00    -0.018 A 
HETATM   14  C   UNL     1      43.592 -16.146   5.436  1.00  0.00     0.085 C 
HETATM   15  N   UNL     1      42.466 -17.627   2.281  1.00  0.00    -0.356 N 
HETATM   16  H   UNL     1      42.008 -17.650   1.378  1.00  0.00     0.166 HD
HETATM   17  C   UNL     1      43.098 -18.730   2.808  1.00  0.00     0.043 A 
HETATM   18  C   UNL     1      43.610 -18.369   4.053  1.00  0.00    -0.001 A 
HETATM   19  C   UNL     1      43.253 -20.014   2.274  1.00  0.00     0.030 A 
HETATM   20  C   UNL     1      43.949 -20.955   3.038  1.00  0.00     0.002 A 
HETATM   21  C   UNL     1      44.468 -20.623   4.285  1.00  0.00     0.001 A 
HETATM   22  C   UNL     1      44.306 -19.334   4.807  1.00  0.00     0.014 A 
ENDROOT
BRANCH   1  23
HETATM   23  C   UNL     1      43.209 -13.805   6.367  1.00  0.00     0.289 C 
HETATM   24  O   UNL     1      43.456 -14.084   7.538  1.00  0.00    -0.263 OA
BRANCH  23  25
HETATM   25  O   UNL     1      43.383 -12.621   5.753  1.00  0.00    -0.325 OA
HETATM   26  C   UNL     1      44.429 -11.805   6.299  1.00  0.00     0.213 C 
ENDBRANCH  23  25
ENDBRANCH   1  23
BRANCH   8  27
HETATM   27  C   UNL     1      39.656 -12.047   0.894  1.00  0.00     0.273 C 
BRANCH  27  28
HETATM   28  C   UNL     1      38.814 -12.156  -0.344  1.00  0.00    -0.033 A 
HETATM   29  C   UNL     1      37.974 -11.095  -0.722  1.00  0.00     0.009 A 
HETATM   30  C   UNL     1      37.171 -11.202  -1.859  1.00  0.00     0.001 A 
HETATM   31  C   UNL     1      37.199 -12.363  -2.627  1.00  0.00     0.000 A 
HETATM   32  C   UNL     1      38.037 -13.417  -2.268  1.00  0.00     0.001 A 
HETATM   33  C   UNL     1      38.843 -13.316  -1.133  1.00  0.00     0.009 A 
ENDBRANCH  27  28
ENDBRANCH   8  27
TORSDOF 4
ENDMDL
MODEL 4
REMARK VINA RESULT:      -8.7      2.163      4.669
REMARK  4 active torsions:
REMARK  status: ('A' for Active; 'I' for Inactive)
REMARK    1  A    between atoms: O_2  and  C_3 
REMARK    2  A    between atoms: C_3  and  C_4 
REMARK    3  A    between atoms: N_11  and  C_13 
REMARK    4  A    between atoms: C_13  and  C_14 
ROOT
HETATM    1  C   UNL     1      39.562 -13.146   0.325  1.00  0.00     0.290 C 
HETATM    2  N   UNL     1      41.002 -13.588   0.794  1.00  0.00    -0.047 N 
HETATM    3  H   UNL     1      41.593 -12.782   0.529  1.00  0.00     0.279 HD
HETATM    4  H   UNL     1      41.290 -14.332   0.140  1.00  0.00     0.279 HD
HETATM    5  C   UNL     1      41.166 -13.842   2.278  1.00  0.00     0.172 C 
HETATM    6  C   UNL     1      40.524 -15.182   2.677  1.00  0.00     0.073 C 
HETATM    7  C   UNL     1      41.255 -16.406   2.139  1.00  0.00     0.238 C 
HETATM    8  N   UNL     1      42.713 -16.352   2.516  1.00  0.00    -0.067 N 
HETATM    9  H   UNL     1      42.781 -16.438   3.543  1.00  0.00     0.280 HD
HETATM   10  C   UNL     1      43.404 -15.090   2.078  1.00  0.00     0.238 C 
HETATM   11  C   UNL     1      42.671 -13.867   2.612  1.00  0.00     0.073 C 
HETATM   12  C   UNL     1      40.478 -12.691   2.964  1.00  0.00     0.053 A 
HETATM   13  C   UNL     1      39.617 -11.768   2.385  1.00  0.00    -0.018 A 
HETATM   14  C   UNL     1      39.238 -11.781   0.941  1.00  0.00     0.085 C 
HETATM   15  N   UNL     1      40.576 -12.366   4.300  1.00  0.00    -0.356 N 
HETATM   16  H   UNL     1      41.113 -12.840   5.015  1.00  0.00     0.166 HD
HETATM   17  C   UNL     1      39.827 -11.243   4.572  1.00  0.00     0.043 A 
HETATM   18  C   UNL     1      39.210 -10.848   3.387  1.00  0.00    -0.001 A 
HETATM   19  C   UNL     1      39.654 -10.554   5.778  1.00  0.00     0.030 A 
HETATM   20  C   UNL     1      38.823  -9.429   5.768  1.00  0.00     0.002 A 
HETATM   21  C   UNL     1      38.192  -9.014   4.599  1.00  0.00     0.001 A 
HETATM   22  C   UNL     1      38.375  -9.714   3.400  1.00  0.00     0.014 A 
ENDROOT
BRANCH   1  23
HETATM   23  C   UNL     1      39.552 -13.132  -1.197  1.00  0.00     0.289 C 
HETATM   24  O   UNL     1      40.458 -12.564  -1.801  1.00  0.00    -0.263 OA
BRANCH  23  25
HETATM   25  O   UNL     1      38.528 -13.828  -1.724  1.00  0.00    -0.325 OA
HETATM   26  C   UNL     1      38.882 -14.695  -2.811  1.00  0.00     0.213 C 
ENDBRANCH  23  25
ENDBRANCH   1  23
BRANCH   8  27
HETATM   27  C   UNL     1      43.493 -17.583   2.015  1.00  0.00     0.273 C 
BRANCH  27  28
HETATM   28  C   UNL     1      43.688 -18.635   3.068  1.00  0.00    -0.033 A 
HETATM   29  C   UNL     1      43.705 -19.995   2.715  1.00  0.00     0.009 A 
HETATM   30  C   UNL     1      43.861 -20.976   3.695  1.00  0.00     0.001 A 
HETATM   31  C   UNL     1      44.004 -20.613   5.031  1.00  0.00     0.000 A 
HETATM   32  C   UNL     1      44.000 -19.267   5.392  1.00  0.00     0.001 A 
HETATM   33  C   UNL     1      43.845 -18.280   4.417  1.00  0.00     0.009 A 
ENDBRANCH  27  28
ENDBRANCH   8  27
TORSDOF 4
ENDMDL
MODEL 5
REMARK VINA RESULT:      -8.2      2.378      7.953
REMARK  4 active torsions:
REMARK  status: ('A' for Active; 'I' for Inactive)
REMARK    1  A    between atoms: O_2  and  C_3 
REMARK    2  A    between atoms: C_3  and  C_4 
REMARK    3  A    between atoms: N_11  and  C_13 
REMARK    4  A    between atoms: C_13  and  C_14 
ROOT
HETATM    1  C   UNL     1      41.585 -14.263   1.794  1.00  0.00     0.290 C 
HETATM    2  N   UNL     1      40.842 -13.941   3.148  1.00  0.00    -0.047 N 
HETATM    3  H   UNL     1      40.014 -14.560   3.116  1.00  0.00     0.279 HD
HETATM    4  H   UNL     1      40.448 -12.995   3.030  1.00  0.00     0.279 HD
HETATM    5  C   UNL     1      41.618 -14.236   4.415  1.00  0.00     0.172 C 
HETATM    6  C   UNL     1      42.703 -13.171   4.651  1.00  0.00     0.073 C 
HETATM    7  C   UNL     1      42.157 -11.796   5.014  1.00  0.00     0.238 C 
HETATM    8  N   UNL     1      41.215 -11.901   6.186  1.00  0.00    -0.067 N 
HETATM    9  H   UNL     1      41.764 -12.190   7.012  1.00  0.00     0.280 HD
HETATM   10  C   UNL     1      40.091 -12.875   5.972  1.00  0.00     0.238 C 
HETATM   11  C   UNL     1      40.635 -14.248   5.604  1.00  0.00     0.073 C 
HETATM   12  C   UNL     1      42.233 -15.595   4.206  1.00  0.00     0.053 A 
HETATM   13  C   UNL     1      42.332 -16.291   3.008  1.00  0.00    -0.018 A 
HETATM   14  C   UNL     1      41.819 -15.774   1.705  1.00  0.00     0.085 C 
HETATM   15  N   UNL     1      42.821 -16.378   5.176  1.00  0.00    -0.356 N 
HETATM   16  H   UNL     1      42.931 -16.166   6.160  1.00  0.00     0.166 HD
HETATM   17  C   UNL     1      43.258 -17.563   4.629  1.00  0.00     0.043 A 
HETATM   18  C   UNL     1      42.968 -17.533   3.267  1.00  0.00    -0.001 A 
HETATM   19  C   UNL     1      43.888 -18.652   5.242  1.00  0.00     0.030 A 
HETATM   20  C   UNL     1      44.230 -19.741   4.435  1.00  0.00     0.002 A 
HETATM   21  C   UNL     1      43.954 -19.738   3.071  1.00  0.00     0.001 A 
HETATM   22  C   UNL     1      43.323 -18.640   2.472  1.00  0.00     0.014 A 
ENDROOT
BRANCH   1  23
HETATM   23  C   UNL     1      40.732 -13.723   0.655  1.00  0.00     0.289 C 
HETATM   24  O   UNL     1      40.792 -12.529   0.370  1.00  0.00    -0.263 OA
BRANCH  23  25
HETATM   25  O   UNL     1      40.021 -14.679   0.029  1.00  0.00    -0.325 OA
HETATM   26  C   UNL     1      39.408 -14.268  -1.202  1.00  0.00     0.213 C 
ENDBRANCH  23  25
ENDBRANCH   1  23
BRANCH   8  27
HETATM   27  C   UNL     1      40.654 -10.529   6.610  1.00  0.00     0.273 C 
BRANCH  27  28
HETATM   28  C   UNL     1      40.243  -9.669   5.450  1.00  0.00    -0.033 A 
HETATM   29  C   UNL     1      39.012  -9.889   4.809  1.00  0.00     0.009 A 
HETATM   30  C   UNL     1      38.637  -9.108   3.715  1.00  0.00     0.001 A 
HETATM   31  C   UNL     1      39.482  -8.103   3.252  1.00  0.00     0.000 A 
HETATM   32  C   UNL     1      40.700  -7.869   3.887  1.00  0.00     0.001 A 
HETATM   33  C   UNL     1      41.081  -8.646   4.982  1.00  0.00     0.009 A 
ENDBRANCH  27  28
ENDBRANCH   8  27
TORSDOF 4
ENDMDL
MODEL 6
REMARK VINA RESULT:      -8.2      3.873      7.645
REMARK  4 active torsions:
REMARK  status: ('A' for Active; 'I' for Inactive)
REMARK    1  A    between atoms: O_2  and  C_3 
REMARK    2  A    between atoms: C_3  and  C_4 
REMARK    3  A    between atoms: N_11  and  C_13 
REMARK    4  A    between atoms: C_13  and  C_14 
ROOT
HETATM    1  C   UNL     1      40.796  -9.168   5.565  1.00  0.00     0.290 C 
HETATM    2  N   UNL     1      41.961 -10.004   4.907  1.00  0.00    -0.047 N 
HETATM    3  H   UNL     1      42.672  -9.287   4.690  1.00  0.00     0.279 HD
HETATM    4  H   UNL     1      41.608 -10.290   3.981  1.00  0.00     0.279 HD
HETATM    5  C   UNL     1      42.593 -11.063   5.786  1.00  0.00     0.172 C 
HETATM    6  C   UNL     1      41.669 -12.285   5.921  1.00  0.00     0.073 C 
HETATM    7  C   UNL     1      41.515 -13.093   4.639  1.00  0.00     0.238 C 
HETATM    8  N   UNL     1      42.868 -13.476   4.097  1.00  0.00    -0.067 N 
HETATM    9  H   UNL     1      43.307 -14.129   4.766  1.00  0.00     0.280 HD
HETATM   10  C   UNL     1      43.783 -12.304   3.875  1.00  0.00     0.238 C 
HETATM   11  C   UNL     1      43.933 -11.493   5.154  1.00  0.00     0.073 C 
HETATM   12  C   UNL     1      42.812 -10.402   7.122  1.00  0.00     0.053 A 
HETATM   13  C   UNL     1      42.274  -9.197   7.555  1.00  0.00    -0.018 A 
HETATM   14  C   UNL     1      41.369  -8.348   6.725  1.00  0.00     0.085 C 
HETATM   15  N   UNL     1      43.578 -10.896   8.157  1.00  0.00    -0.356 N 
HETATM   16  H   UNL     1      44.102 -11.762   8.181  1.00  0.00     0.166 HD
HETATM   17  C   UNL     1      43.564 -10.019   9.217  1.00  0.00     0.043 A 
HETATM   18  C   UNL     1      42.749  -8.944   8.868  1.00  0.00    -0.001 A 
HETATM   19  C   UNL     1      44.214 -10.101  10.455  1.00  0.00     0.030 A 
HETATM   20  C   UNL     1      44.020  -9.054  11.359  1.00  0.00     0.002 A 
HETATM   21  C   UNL     1      43.209  -7.970  11.038  1.00  0.00     0.001 A 
HETATM   22  C   UNL     1      42.566  -7.901   9.797  1.00  0.00     0.014 A 
ENDROOT
BRANCH   1  23
HETATM   23  C   UNL     1      40.169  -8.307   4.477  1.00  0.00     0.289 C 
HETATM   24  O   UNL     1      40.859  -7.473   3.895  1.00  0.00    -0.263 OA
BRANCH  23  25
HETATM   25  O   UNL     1      38.883  -8.618   4.234  1.00  0.00    -0.325 OA
HETATM   26  C   UNL     1      38.353  -9.674   5.048  1.00  0.00     0.213 C 
ENDBRANCH  23  25
ENDBRANCH   1  23
BRANCH   8  27
HETATM   27  C   UNL     1      42.766 -14.319   2.811  1.00  0.00     0.273 C 
BRANCH  27  28
HETATM   28  C   UNL     1      43.076 -15.772   3.024  1.00  0.00    -0.033 A 
HETATM   29  C   UNL     1      43.512 -16.225   4.280  1.00  0.00     0.009 A 
HETATM   30  C   UNL     1      43.825 -17.571   4.475  1.00  0.00     0.001 A 
HETATM   31  C   UNL     1      43.705 -18.476   3.423  1.00  0.00     0.000 A 
HETATM   32  C   UNL     1      43.263 -18.040   2.176  1.00  0.00     0.001 A 
HETATM   33  C   UNL     1      42.947 -16.695   1.974  1.00  0.00     0.009 A 
ENDBRANCH  27  28
ENDBRANCH   8  27
TORSDOF 4
ENDMDL
MODEL 7
REMARK VINA RESULT:      -8.2      2.687      4.583
REMARK  4 active torsions:
REMARK  status: ('A' for Active; 'I' for Inactive)
REMARK    1  A    between atoms: O_2  and  C_3 
REMARK    2  A    between atoms: C_3  and  C_4 
REMARK    3  A    between atoms: N_11  and  C_13 
REMARK    4  A    between atoms: C_13  and  C_14 
ROOT
HETATM    1  C   UNL     1      39.841 -13.014  -1.121  1.00  0.00     0.290 C 
HETATM    2  N   UNL     1      41.108 -13.370  -0.251  1.00  0.00    -0.047 N 
HETATM    3  H   UNL     1      41.763 -12.599  -0.464  1.00  0.00     0.279 HD
HETATM    4  H   UNL     1      41.535 -14.191  -0.706  1.00  0.00     0.279 HD
HETATM    5  C   UNL     1      40.889 -13.419   1.247  1.00  0.00     0.172 C 
HETATM    6  C   UNL     1      40.140 -14.702   1.648  1.00  0.00     0.073 C 
HETATM    7  C   UNL     1      40.956 -15.977   1.479  1.00  0.00     0.238 C 
HETATM    8  N   UNL     1      42.274 -15.853   2.199  1.00  0.00    -0.067 N 
HETATM    9  H   UNL     1      42.080 -15.800   3.212  1.00  0.00     0.280 HD
HETATM   10  C   UNL     1      43.079 -14.654   1.784  1.00  0.00     0.238 C 
HETATM   11  C   UNL     1      42.262 -13.379   1.948  1.00  0.00     0.073 C 
HETATM   12  C   UNL     1      40.076 -12.195   1.578  1.00  0.00     0.053 A 
HETATM   13  C   UNL     1      39.407 -11.370   0.682  1.00  0.00    -0.018 A 
HETATM   14  C   UNL     1      39.401 -11.583  -0.795  1.00  0.00     0.085 C 
HETATM   15  N   UNL     1      39.843 -11.692   2.840  1.00  0.00    -0.356 N 
HETATM   16  H   UNL     1      40.174 -12.058   3.724  1.00  0.00     0.166 HD
HETATM   17  C   UNL     1      39.074 -10.553   2.762  1.00  0.00     0.043 A 
HETATM   18  C   UNL     1      38.782 -10.330   1.418  1.00  0.00    -0.001 A 
HETATM   19  C   UNL     1      38.619  -9.709   3.782  1.00  0.00     0.030 A 
HETATM   20  C   UNL     1      37.841  -8.608   3.414  1.00  0.00     0.002 A 
HETATM   21  C   UNL     1      37.532  -8.362   2.079  1.00  0.00     0.001 A 
HETATM   22  C   UNL     1      37.994  -9.215   1.070  1.00  0.00     0.014 A 
ENDROOT
BRANCH   1  23
HETATM   23  C   UNL     1      40.212 -13.206  -2.585  1.00  0.00     0.289 C 
HETATM   24  O   UNL     1      41.348 -12.926  -2.960  1.00  0.00    -0.263 OA
BRANCH  23  25
HETATM   25  O   UNL     1      39.216 -13.739  -3.316  1.00  0.00    -0.325 OA
HETATM   26  C   UNL     1      38.749 -15.016  -2.861  1.00  0.00     0.213 C 
ENDBRANCH  23  25
ENDBRANCH   1  23
BRANCH   8  27
HETATM   27  C   UNL     1      43.128 -17.131   2.079  1.00  0.00     0.273 C 
BRANCH  27  28
HETATM   28  C   UNL     1      43.376 -17.809   3.396  1.00  0.00    -0.033 A 
HETATM   29  C   UNL     1      43.879 -19.120   3.432  1.00  0.00     0.009 A 
HETATM   30  C   UNL     1      44.088 -19.762   4.653  1.00  0.00     0.001 A 
HETATM   31  C   UNL     1      43.797 -19.106   5.846  1.00  0.00     0.000 A 
HETATM   32  C   UNL     1      43.308 -17.802   5.823  1.00  0.00     0.001 A 
HETATM   33  C   UNL     1      43.098 -17.153   4.605  1.00  0.00     0.009 A 
ENDBRANCH  27  28
ENDBRANCH   8  27
TORSDOF 4
ENDMDL
MODEL 8
REMARK VINA RESULT:      -8.1      3.740      7.893
REMARK  4 active torsions:
REMARK  status: ('A' for Active; 'I' for Inactive)
REMARK    1  A    between atoms: O_2  and  C_3 
REMARK    2  A    between atoms: C_3  and  C_4 
REMARK    3  A    between atoms: N_11  and  C_13 
REMARK    4  A    between atoms: C_13  and  C_14 
ROOT
HETATM    1  C   UNL     1      42.213 -11.996   2.278  1.00  0.00     0.290 C 
HETATM    2  N   UNL     1      41.476 -11.865   3.667  1.00  0.00    -0.047 N 
HETATM    3  H   UNL     1      40.554 -12.296   3.486  1.00  0.00     0.279 HD
HETATM    4  H   UNL     1      41.263 -10.861   3.774  1.00  0.00     0.279 HD
HETATM    5  C   UNL     1      42.126 -12.583   4.831  1.00  0.00     0.172 C 
HETATM    6  C   UNL     1      43.371 -11.822   5.317  1.00  0.00     0.073 C 
HETATM    7  C   UNL     1      43.063 -10.492   5.993  1.00  0.00     0.238 C 
HETATM    8  N   UNL     1      42.062 -10.690   7.103  1.00  0.00    -0.067 N 
HETATM    9  H   UNL     1      42.511 -11.259   7.839  1.00  0.00     0.280 HD
HETATM   10  C   UNL     1      40.793 -11.363   6.659  1.00  0.00     0.238 C 
HETATM   11  C   UNL     1      41.102 -12.689   5.980  1.00  0.00     0.073 C 
HETATM   12  C   UNL     1      42.498 -13.947   4.309  1.00  0.00     0.053 A 
HETATM   13  C   UNL     1      42.528 -14.352   2.981  1.00  0.00    -0.018 A 
HETATM   14  C   UNL     1      42.178 -13.462   1.835  1.00  0.00     0.085 C 
HETATM   15  N   UNL     1      42.890 -15.028   5.069  1.00  0.00    -0.356 N 
HETATM   16  H   UNL     1      42.989 -15.074   6.076  1.00  0.00     0.166 HD
HETATM   17  C   UNL     1      43.134 -16.113   4.259  1.00  0.00     0.043 A 
HETATM   18  C   UNL     1      42.919 -15.716   2.941  1.00  0.00    -0.001 A 
HETATM   19  C   UNL     1      43.529 -17.413   4.599  1.00  0.00     0.030 A 
HETATM   20  C   UNL     1      43.710 -18.328   3.559  1.00  0.00     0.002 A 
HETATM   21  C   UNL     1      43.504 -17.958   2.233  1.00  0.00     0.001 A 
HETATM   22  C   UNL     1      43.109 -16.655   1.908  1.00  0.00     0.014 A 
ENDROOT
BRANCH   1  23
HETATM   23  C   UNL     1      41.525 -11.058   1.295  1.00  0.00     0.289 C 
HETATM   24  O   UNL     1      41.423  -9.865   1.571  1.00  0.00    -0.263 OA
BRANCH  23  25
HETATM   25  O   UNL     1      41.144 -11.672   0.160  1.00  0.00    -0.325 OA
HETATM   26  C   UNL     1      39.877 -11.245  -0.361  1.00  0.00     0.213 C 
ENDBRANCH  23  25
ENDBRANCH   1  23
BRANCH   8  27
HETATM   27  C   UNL     1      41.736  -9.374   7.837  1.00  0.00     0.273 C 
BRANCH  27  28
HETATM   28  C   UNL     1      42.348  -9.286   9.204  1.00  0.00    -0.033 A 
HETATM   29  C   UNL     1      41.527  -9.217  10.343  1.00  0.00     0.009 A 
HETATM   30  C   UNL     1      42.092  -9.110  11.614  1.00  0.00     0.001 A 
HETATM   31  C   UNL     1      43.476  -9.072  11.763  1.00  0.00     0.000 A 
HETATM   32  C   UNL     1      44.300  -9.150  10.642  1.00  0.00     0.001 A 
HETATM   33  C   UNL     1      43.741  -9.258   9.367  1.00  0.00     0.009 A 
ENDBRANCH  27  28
ENDBRANCH   8  27
TORSDOF 4
ENDMDL
MODEL 9
REMARK VINA RESULT:      -8.1      2.072      7.684
REMARK  4 active torsions:
REMARK  status: ('A' for Active; 'I' for Inactive)
REMARK    1  A    between atoms: O_2  and  C_3 
REMARK    2  A    between atoms: C_3  and  C_4 
REMARK    3  A    between atoms: N_11  and  C_13 
REMARK    4  A    between atoms: C_13  and  C_14 
ROOT
HETATM    1  C   UNL     1      42.514 -14.662   5.260  1.00  0.00     0.290 C 
HETATM    2  N   UNL     1      42.444 -14.092   3.791  1.00  0.00    -0.047 N 
HETATM    3  H   UNL     1      43.438 -13.964   3.540  1.00  0.00     0.279 HD
HETATM    4  H   UNL     1      42.086 -13.130   3.883  1.00  0.00     0.279 HD
HETATM    5  C   UNL     1      41.798 -14.997   2.761  1.00  0.00     0.172 C 
HETATM    6  C   UNL     1      40.269 -15.009   2.928  1.00  0.00     0.073 C 
HETATM    7  C   UNL     1      39.592 -13.696   2.556  1.00  0.00     0.238 C 
HETATM    8  N   UNL     1      39.998 -13.273   1.168  1.00  0.00    -0.067 N 
HETATM    9  H   UNL     1      39.616 -13.961   0.500  1.00  0.00     0.280 HD
HETATM   10  C   UNL     1      41.486 -13.171   0.979  1.00  0.00     0.238 C 
HETATM   11  C   UNL     1      42.163 -14.482   1.354  1.00  0.00     0.073 C 
HETATM   12  C   UNL     1      42.377 -16.366   3.004  1.00  0.00     0.053 A 
HETATM   13  C   UNL     1      43.101 -16.781   4.115  1.00  0.00    -0.018 A 
HETATM   14  C   UNL     1      43.425 -15.894   5.271  1.00  0.00     0.085 C 
HETATM   15  N   UNL     1      42.272 -17.453   2.164  1.00  0.00    -0.356 N 
HETATM   16  H   UNL     1      41.799 -17.502   1.270  1.00  0.00     0.166 HD
HETATM   17  C   UNL     1      42.938 -18.532   2.698  1.00  0.00     0.043 A 
HETATM   18  C   UNL     1      43.465 -18.139   3.927  1.00  0.00    -0.001 A 
HETATM   19  C   UNL     1      43.110 -19.823   2.183  1.00  0.00     0.030 A 
HETATM   20  C   UNL     1      43.841 -20.735   2.949  1.00  0.00     0.002 A 
HETATM   21  C   UNL     1      44.376 -20.370   4.181  1.00  0.00     0.001 A 
HETATM   22  C   UNL     1      44.196 -19.076   4.684  1.00  0.00     0.014 A 
ENDROOT
BRANCH   1  23
HETATM   23  C   UNL     1      43.009 -13.545   6.169  1.00  0.00     0.289 C 
HETATM   24  O   UNL     1      44.093 -13.664   6.735  1.00  0.00    -0.263 OA
BRANCH  23  25
HETATM   25  O   UNL     1      42.182 -12.484   6.199  1.00  0.00    -0.325 OA
HETATM   26  C   UNL     1      42.835 -11.211   6.294  1.00  0.00     0.213 C 
ENDBRANCH  23  25
ENDBRANCH   1  23
BRANCH   8  27
HETATM   27  C   UNL     1      39.318 -11.959   0.735  1.00  0.00     0.273 C 
BRANCH  27  28
HETATM   28  C   UNL     1      39.425 -10.867   1.759  1.00  0.00    -0.033 A 
HETATM   29  C   UNL     1      38.314 -10.530   2.551  1.00  0.00     0.009 A 
HETATM   30  C   UNL     1      38.402  -9.498   3.487  1.00  0.00     0.001 A 
HETATM   31  C   UNL     1      39.594  -8.796   3.643  1.00  0.00     0.000 A 
HETATM   32  C   UNL     1      40.705  -9.128   2.870  1.00  0.00     0.001 A 
HETATM   33  C   UNL     1      40.624 -10.159   1.933  1.00  0.00     0.009 A 
ENDBRANCH  27  28
ENDBRANCH   8  27
TORSDOF 4
ENDMDL
MODEL 10
REMARK VINA RESULT:      -7.7      1.572      2.411
REMARK  4 active torsions:
REMARK  status: ('A' for Active; 'I' for Inactive)
REMARK    1  A    between atoms: O_2  and  C_3 
REMARK    2  A    between atoms: C_3  and  C_4 
REMARK    3  A    between atoms: N_11  and  C_13 
REMARK    4  A    between atoms: C_13  and  C_14 
ROOT
HETATM    1  C   UNL     1      40.478 -11.798   3.136  1.00  0.00     0.290 C 
HETATM    2  N   UNL     1      40.327 -13.366   3.228  1.00  0.00    -0.047 N 
HETATM    3  H   UNL     1      39.358 -13.490   3.566  1.00  0.00     0.279 HD
HETATM    4  H   UNL     1      40.908 -13.654   4.030  1.00  0.00     0.279 HD
HETATM    5  C   UNL     1      40.485 -14.123   1.925  1.00  0.00     0.172 C 
HETATM    6  C   UNL     1      41.965 -14.199   1.513  1.00  0.00     0.073 C 
HETATM    7  C   UNL     1      42.817 -15.084   2.414  1.00  0.00     0.238 C 
HETATM    8  N   UNL     1      42.201 -16.454   2.534  1.00  0.00    -0.067 N 
HETATM    9  H   UNL     1      42.246 -16.906   1.607  1.00  0.00     0.280 HD
HETATM   10  C   UNL     1      40.775 -16.436   3.009  1.00  0.00     0.238 C 
HETATM   11  C   UNL     1      39.924 -15.548   2.112  1.00  0.00     0.073 C 
HETATM   12  C   UNL     1      39.681 -13.354   0.909  1.00  0.00     0.053 A 
HETATM   13  C   UNL     1      39.167 -12.072   1.050  1.00  0.00    -0.018 A 
HETATM   14  C   UNL     1      39.339 -11.240   2.278  1.00  0.00     0.085 C 
HETATM   15  N   UNL     1      39.332 -13.792  -0.350  1.00  0.00    -0.356 N 
HETATM   16  H   UNL     1      39.556 -14.680  -0.781  1.00  0.00     0.166 HD
HETATM   17  C   UNL     1      38.582 -12.834  -0.994  1.00  0.00     0.043 A 
HETATM   18  C   UNL     1      38.466 -11.740  -0.139  1.00  0.00    -0.001 A 
HETATM   19  C   UNL     1      38.002 -12.859  -2.268  1.00  0.00     0.030 A 
HETATM   20  C   UNL     1      37.285 -11.731  -2.676  1.00  0.00     0.002 A 
HETATM   21  C   UNL     1      37.155 -10.624  -1.843  1.00  0.00     0.001 A 
HETATM   22  C   UNL     1      37.741 -10.613  -0.572  1.00  0.00     0.014 A 
ENDROOT
BRANCH   1  23
HETATM   23  C   UNL     1      40.483 -11.247   4.555  1.00  0.00     0.289 C 
HETATM   24  O   UNL     1      41.134 -10.236   4.807  1.00  0.00    -0.263 OA
BRANCH  23  25
HETATM   25  O   UNL     1      39.687 -11.938   5.391  1.00  0.00    -0.325 OA
HETATM   26  C   UNL     1      39.108 -11.165   6.452  1.00  0.00     0.213 C 
ENDBRANCH  23  25
ENDBRANCH   1  23
BRANCH   8  27
HETATM   27  C   UNL     1      43.042 -17.397   3.417  1.00  0.00     0.273 C 
BRANCH  27  28
HETATM   28  C   UNL     1      43.152 -16.939   4.842  1.00  0.00    -0.033 A 
HETATM   29  C   UNL     1      44.415 -16.777   5.436  1.00  0.00     0.009 A 
HETATM   30  C   UNL     1      44.522 -16.375   6.768  1.00  0.00     0.001 A 
HETATM   31  C   UNL     1      43.374 -16.131   7.518  1.00  0.00     0.000 A 
HETATM   32  C   UNL     1      42.117 -16.278   6.936  1.00  0.00     0.001 A 
HETATM   33  C   UNL     1      42.003 -16.679   5.604  1.00  0.00     0.009 A 
ENDBRANCH  27  28
ENDBRANCH   8  27
TORSDOF 4
ENDMDL
