MODEL 1
REMARK VINA RESULT:      -9.8      0.000      0.000
REMARK  8 active torsions:
REMARK  status: ('A' for Active; 'I' for Inactive)
REMARK    1  A    between atoms: C_4  and  C_5 
REMARK    2  A    between atoms: C_5  and  N_6 
REMARK    3  A    between atoms: C_5  and  C_32 
REMARK       I    between atoms: N_10  and  C_11 
REMARK    4  A    between atoms: C_11  and  C_12 
REMARK    5  A    between atoms: C_13  and  N_14 
REMARK    6  A    between atoms: N_14  and  C_15 
REMARK    7  A    between atoms: C_15  and  N_16 
REMARK       I    between atoms: N_16  and  C_17 
REMARK    8  A    between atoms: C_17  and  C_18 
ROOT
HETATM    1  N   UNL     1      42.290 -14.987   4.500  1.00  0.00    -0.056 N 
HETATM    2  H   UNL     1      42.883 -15.477   5.178  1.00  0.00     0.281 HD
HETATM    3  C   UNL     1      42.697 -13.513   4.551  1.00  0.00     0.256 C 
HETATM    4  C   UNL     1      42.479 -12.959   5.969  1.00  0.00     0.154 C 
HETATM    5  N   UNL     1      41.089 -13.168   6.376  1.00  0.00    -0.345 N 
HETATM    6  C   UNL     1      40.054 -12.255   6.094  1.00  0.00     0.256 C 
HETATM    7  O   UNL     1      38.882 -12.619   6.041  1.00  0.00    -0.267 OA
HETATM    8  C   UNL     1      40.709 -14.586   6.417  1.00  0.00     0.154 C 
HETATM    9  C   UNL     1      40.857 -15.202   5.006  1.00  0.00     0.256 C 
ENDROOT
BRANCH   6  10
HETATM   10  C   UNL     1      40.394 -10.873   5.670  1.00  0.00     0.058 A 
HETATM   11  C   UNL     1      40.916  -9.875   6.513  1.00  0.00     0.049 A 
HETATM   12  C   UNL     1      41.458  -8.719   5.932  1.00  0.00     0.030 A 
HETATM   13  C   UNL     1      41.394  -8.515   4.552  1.00  0.00     0.002 A 
HETATM   14  C   UNL     1      40.804  -9.470   3.730  1.00  0.00     0.001 A 
HETATM   15  C   UNL     1      40.313 -10.651   4.284  1.00  0.00     0.019 A 
BRANCH  11  16
HETATM   16  N   UNL     1      41.000  -9.960   7.919  1.00  0.00    -0.337 N 
HETATM   17  H   UNL     1      40.757 -10.853   8.337  1.00  0.00     0.168 HD
BRANCH  16  18
HETATM   18  C   UNL     1      41.376  -9.013   8.812  1.00  0.00     0.157 C 
HETATM   19  S   UNL     1      40.216  -7.964   9.406  1.00  0.00    -0.047 SA
BRANCH  18  20
HETATM   20  N   UNL     1      42.636  -8.969   9.329  1.00  0.00    -0.199 NA
HETATM   21  C   UNL     1      43.692  -8.367   8.651  1.00  0.00     0.261 C 
HETATM   22  O   UNL     1      43.792  -7.159   8.466  1.00  0.00    -0.271 OA
HETATM   23  H   UNL     1      42.891  -9.905   9.633  1.00  0.00     0.139 HD
BRANCH  21  24
HETATM   24  C   UNL     1      44.711  -9.304   8.216  1.00  0.00     0.137 A 
HETATM   25  O   UNL     1      44.333 -10.467   7.596  1.00  0.00    -0.318 OA
HETATM   26  C   UNL     1      45.473 -11.120   7.248  1.00  0.00     0.143 A 
HETATM   27  C   UNL     1      46.579 -10.402   7.636  1.00  0.00     0.027 A 
HETATM   28  C   UNL     1      46.089  -9.235   8.268  1.00  0.00     0.044 A 
ENDBRANCH  21  24
ENDBRANCH  18  20
ENDBRANCH  16  18
ENDBRANCH  11  16
ENDBRANCH   6  10
BRANCH   1  29
HETATM   29  C   UNL     1      42.643 -15.622   3.152  1.00  0.00     0.254 C 
BRANCH  29  30
HETATM   30  C   UNL     1      41.697 -15.275   2.005  1.00  0.00    -0.023 A 
HETATM   31  C   UNL     1      41.906 -14.079   1.287  1.00  0.00     0.009 A 
HETATM   32  C   UNL     1      41.040 -13.686   0.264  1.00  0.00     0.001 A 
HETATM   33  C   UNL     1      39.950 -14.482  -0.069  1.00  0.00     0.000 A 
HETATM   34  C   UNL     1      39.728 -15.672   0.617  1.00  0.00     0.001 A 
HETATM   35  C   UNL     1      40.591 -16.064   1.644  1.00  0.00     0.009 A 
ENDBRANCH  29  30
BRANCH  29  36
HETATM   36  C   UNL     1      43.126 -17.064   3.296  1.00  0.00    -0.023 A 
HETATM   37  C   UNL     1      43.724 -17.447   4.519  1.00  0.00     0.009 A 
HETATM   38  C   UNL     1      44.198 -18.744   4.721  1.00  0.00     0.001 A 
HETATM   39  C   UNL     1      44.082 -19.689   3.710  1.00  0.00     0.000 A 
HETATM   40  C   UNL     1      43.496 -19.336   2.499  1.00  0.00     0.001 A 
HETATM   41  C   UNL     1      43.020 -18.037   2.292  1.00  0.00     0.009 A 
ENDBRANCH  29  36
ENDBRANCH   1  29
TORSDOF 8
ENDMDL
MODEL 2
REMARK VINA RESULT:      -9.4      1.873      2.634
REMARK  8 active torsions:
REMARK  status: ('A' for Active; 'I' for Inactive)
REMARK    1  A    between atoms: C_4  and  C_5 
REMARK    2  A    between atoms: C_5  and  N_6 
REMARK    3  A    between atoms: C_5  and  C_32 
REMARK       I    between atoms: N_10  and  C_11 
REMARK    4  A    between atoms: C_11  and  C_12 
REMARK    5  A    between atoms: C_13  and  N_14 
REMARK    6  A    between atoms: N_14  and  C_15 
REMARK    7  A    between atoms: C_15  and  N_16 
REMARK       I    between atoms: N_16  and  C_17 
REMARK    8  A    between atoms: C_17  and  C_18 
ROOT
HETATM    1  N   UNL     1      42.349 -14.989   4.479  1.00  0.00    -0.056 N 
HETATM    2  H   UNL     1      42.965 -15.481   5.133  1.00  0.00     0.281 HD
HETATM    3  C   UNL     1      42.747 -13.513   4.530  1.00  0.00     0.256 C 
HETATM    4  C   UNL     1      42.570 -12.972   5.958  1.00  0.00     0.154 C 
HETATM    5  N   UNL     1      41.194 -13.195   6.407  1.00  0.00    -0.345 N 
HETATM    6  C   UNL     1      40.145 -12.286   6.165  1.00  0.00     0.256 C 
HETATM    7  O   UNL     1      38.974 -12.658   6.145  1.00  0.00    -0.267 OA
HETATM    8  C   UNL     1      40.825 -14.616   6.447  1.00  0.00     0.154 C 
HETATM    9  C   UNL     1      40.934 -15.218   5.027  1.00  0.00     0.256 C 
ENDROOT
BRANCH   6  10
HETATM   10  C   UNL     1      40.462 -10.899   5.742  1.00  0.00     0.058 A 
HETATM   11  C   UNL     1      41.100  -9.936   6.545  1.00  0.00     0.049 A 
HETATM   12  C   UNL     1      41.595  -8.773   5.938  1.00  0.00     0.030 A 
HETATM   13  C   UNL     1      41.375  -8.526   4.581  1.00  0.00     0.002 A 
HETATM   14  C   UNL     1      40.673  -9.446   3.807  1.00  0.00     0.001 A 
HETATM   15  C   UNL     1      40.225 -10.634   4.382  1.00  0.00     0.019 A 
BRANCH  11  16
HETATM   16  N   UNL     1      41.345 -10.065   7.930  1.00  0.00    -0.337 N 
HETATM   17  H   UNL     1      41.784 -10.927   8.237  1.00  0.00     0.168 HD
BRANCH  16  18
HETATM   18  C   UNL     1      41.089  -9.186   8.929  1.00  0.00     0.157 C 
HETATM   19  S   UNL     1      39.496  -8.809   9.278  1.00  0.00    -0.047 SA
BRANCH  18  20
HETATM   20  N   UNL     1      42.076  -8.699   9.731  1.00  0.00    -0.199 NA
HETATM   21  C   UNL     1      42.710  -9.490  10.685  1.00  0.00     0.261 C 
HETATM   22  O   UNL     1      43.468 -10.416  10.419  1.00  0.00    -0.271 OA
HETATM   23  H   UNL     1      41.754  -7.827  10.143  1.00  0.00     0.139 HD
BRANCH  21  24
HETATM   24  C   UNL     1      42.431  -9.086  12.050  1.00  0.00     0.137 A 
HETATM   25  O   UNL     1      41.348  -9.618  12.701  1.00  0.00    -0.318 OA
HETATM   26  C   UNL     1      41.359  -9.118  13.965  1.00  0.00     0.143 A 
HETATM   27  C   UNL     1      42.426  -8.269  14.140  1.00  0.00     0.027 A 
HETATM   28  C   UNL     1      43.114  -8.242  12.904  1.00  0.00     0.044 A 
ENDBRANCH  21  24
ENDBRANCH  18  20
ENDBRANCH  16  18
ENDBRANCH  11  16
ENDBRANCH   6  10
BRANCH   1  29
HETATM   29  C   UNL     1      42.663 -15.611   3.114  1.00  0.00     0.254 C 
BRANCH  29  30
HETATM   30  C   UNL     1      41.701 -15.230   1.992  1.00  0.00    -0.023 A 
HETATM   31  C   UNL     1      40.613 -16.082   1.708  1.00  0.00     0.009 A 
HETATM   32  C   UNL     1      39.733 -15.810   0.658  1.00  0.00     0.001 A 
HETATM   33  C   UNL     1      39.916 -14.678  -0.127  1.00  0.00     0.000 A 
HETATM   34  C   UNL     1      40.975 -13.816   0.139  1.00  0.00     0.001 A 
HETATM   35  C   UNL     1      41.860 -14.090   1.186  1.00  0.00     0.009 A 
ENDBRANCH  29  30
BRANCH  29  36
HETATM   36  C   UNL     1      43.124 -17.063   3.229  1.00  0.00    -0.023 A 
HETATM   37  C   UNL     1      43.715 -17.481   4.443  1.00  0.00     0.009 A 
HETATM   38  C   UNL     1      44.167 -18.789   4.619  1.00  0.00     0.001 A 
HETATM   39  C   UNL     1      44.039 -19.710   3.587  1.00  0.00     0.000 A 
HETATM   40  C   UNL     1      43.461 -19.322   2.383  1.00  0.00     0.001 A 
HETATM   41  C   UNL     1      43.005 -18.012   2.204  1.00  0.00     0.009 A 
ENDBRANCH  29  36
ENDBRANCH   1  29
TORSDOF 8
ENDMDL
MODEL 3
REMARK VINA RESULT:      -9.1      4.302      7.493
REMARK  8 active torsions:
REMARK  status: ('A' for Active; 'I' for Inactive)
REMARK    1  A    between atoms: C_4  and  C_5 
REMARK    2  A    between atoms: C_5  and  N_6 
REMARK    3  A    between atoms: C_5  and  C_32 
REMARK       I    between atoms: N_10  and  C_11 
REMARK    4  A    between atoms: C_11  and  C_12 
REMARK    5  A    between atoms: C_13  and  N_14 
REMARK    6  A    between atoms: N_14  and  C_15 
REMARK    7  A    between atoms: C_15  and  N_16 
REMARK       I    between atoms: N_16  and  C_17 
REMARK    8  A    between atoms: C_17  and  C_18 
ROOT
HETATM    1  N   UNL     1      41.873 -15.997   2.709  1.00  0.00    -0.056 N 
HETATM    2  H   UNL     1      41.292 -16.819   2.514  1.00  0.00     0.281 HD
HETATM    3  C   UNL     1      40.995 -15.016   3.488  1.00  0.00     0.256 C 
HETATM    4  C   UNL     1      39.769 -14.629   2.646  1.00  0.00     0.154 C 
HETATM    5  N   UNL     1      40.202 -14.088   1.356  1.00  0.00    -0.345 N 
HETATM    6  C   UNL     1      40.502 -12.727   1.150  1.00  0.00     0.256 C 
HETATM    7  O   UNL     1      41.253 -12.373   0.245  1.00  0.00    -0.267 OA
HETATM    8  C   UNL     1      40.972 -15.050   0.558  1.00  0.00     0.154 C 
HETATM    9  C   UNL     1      42.253 -15.450   1.327  1.00  0.00     0.256 C 
ENDROOT
BRANCH   6  10
HETATM   10  C   UNL     1      40.060 -11.721   2.148  1.00  0.00     0.058 A 
HETATM   11  C   UNL     1      38.740 -11.261   2.300  1.00  0.00     0.049 A 
HETATM   12  C   UNL     1      38.407 -10.538   3.455  1.00  0.00     0.030 A 
HETATM   13  C   UNL     1      39.387 -10.194   4.390  1.00  0.00     0.002 A 
HETATM   14  C   UNL     1      40.708 -10.584   4.194  1.00  0.00     0.001 A 
HETATM   15  C   UNL     1      41.045 -11.353   3.082  1.00  0.00     0.019 A 
BRANCH  11  16
HETATM   16  N   UNL     1      37.680 -11.519   1.404  1.00  0.00    -0.337 N 
HETATM   17  H   UNL     1      37.138 -12.361   1.568  1.00  0.00     0.168 HD
BRANCH  16  18
HETATM   18  C   UNL     1      37.262 -10.788   0.342  1.00  0.00     0.157 C 
HETATM   19  S   UNL     1      35.971  -9.743   0.544  1.00  0.00    -0.047 SA
BRANCH  18  20
HETATM   20  N   UNL     1      37.934 -10.788  -0.843  1.00  0.00    -0.199 NA
HETATM   21  C   UNL     1      37.473 -11.488  -1.954  1.00  0.00     0.261 C 
HETATM   22  O   UNL     1      36.472 -11.184  -2.593  1.00  0.00    -0.271 OA
HETATM   23  H   UNL     1      38.909 -11.008  -0.658  1.00  0.00     0.139 HD
BRANCH  21  24
HETATM   24  C   UNL     1      38.323 -12.602  -2.330  1.00  0.00     0.137 A 
HETATM   25  O   UNL     1      39.651 -12.377  -2.588  1.00  0.00    -0.318 OA
HETATM   26  C   UNL     1      40.214 -13.584  -2.855  1.00  0.00     0.143 A 
HETATM   27  C   UNL     1      39.274 -14.584  -2.779  1.00  0.00     0.027 A 
HETATM   28  C   UNL     1      38.052 -13.951  -2.448  1.00  0.00     0.044 A 
ENDBRANCH  21  24
ENDBRANCH  18  20
ENDBRANCH  16  18
ENDBRANCH  11  16
ENDBRANCH   6  10
BRANCH   1  29
HETATM   29  C   UNL     1      43.020 -16.535   3.572  1.00  0.00     0.254 C 
BRANCH  29  30
HETATM   30  C   UNL     1      43.328 -18.019   3.388  1.00  0.00    -0.023 A 
HETATM   31  C   UNL     1      42.852 -18.676   2.234  1.00  0.00     0.009 A 
HETATM   32  C   UNL     1      43.059 -20.044   2.040  1.00  0.00     0.001 A 
HETATM   33  C   UNL     1      43.752 -20.783   2.992  1.00  0.00     0.000 A 
HETATM   34  C   UNL     1      44.241 -20.156   4.133  1.00  0.00     0.001 A 
HETATM   35  C   UNL     1      44.029 -18.789   4.331  1.00  0.00     0.009 A 
ENDBRANCH  29  30
BRANCH  29  36
HETATM   36  C   UNL     1      43.006 -15.955   4.985  1.00  0.00    -0.023 A 
HETATM   37  C   UNL     1      42.212 -16.598   5.961  1.00  0.00     0.009 A 
HETATM   38  C   UNL     1      42.143 -16.121   7.271  1.00  0.00     0.001 A 
HETATM   39  C   UNL     1      42.867 -14.994   7.637  1.00  0.00     0.000 A 
HETATM   40  C   UNL     1      43.658 -14.345   6.693  1.00  0.00     0.001 A 
HETATM   41  C   UNL     1      43.729 -14.820   5.380  1.00  0.00     0.009 A 
ENDBRANCH  29  36
ENDBRANCH   1  29
TORSDOF 8
ENDMDL
MODEL 4
REMARK VINA RESULT:      -8.9      2.279      4.547
REMARK  8 active torsions:
REMARK  status: ('A' for Active; 'I' for Inactive)
REMARK    1  A    between atoms: C_4  and  C_5 
REMARK    2  A    between atoms: C_5  and  N_6 
REMARK    3  A    between atoms: C_5  and  C_32 
REMARK       I    between atoms: N_10  and  C_11 
REMARK    4  A    between atoms: C_11  and  C_12 
REMARK    5  A    between atoms: C_13  and  N_14 
REMARK    6  A    between atoms: N_14  and  C_15 
REMARK    7  A    between atoms: C_15  and  N_16 
REMARK       I    between atoms: N_16  and  C_17 
REMARK    8  A    between atoms: C_17  and  C_18 
ROOT
HETATM    1  N   UNL     1      42.454 -16.325   2.741  1.00  0.00    -0.056 N 
HETATM    2  H   UNL     1      42.851 -16.884   1.978  1.00  0.00     0.281 HD
HETATM    3  C   UNL     1      41.060 -15.891   2.285  1.00  0.00     0.256 C 
HETATM    4  C   UNL     1      41.166 -15.059   0.997  1.00  0.00     0.154 C 
HETATM    5  N   UNL     1      42.062 -13.922   1.212  1.00  0.00    -0.345 N 
HETATM    6  C   UNL     1      41.629 -12.681   1.719  1.00  0.00     0.256 C 
HETATM    7  O   UNL     1      42.407 -11.922   2.291  1.00  0.00    -0.267 OA
HETATM    8  C   UNL     1      43.429 -14.325   1.565  1.00  0.00     0.154 C 
HETATM    9  C   UNL     1      43.406 -15.130   2.885  1.00  0.00     0.256 C 
ENDROOT
BRANCH   6  10
HETATM   10  C   UNL     1      40.178 -12.363   1.735  1.00  0.00     0.058 A 
HETATM   11  C   UNL     1      39.412 -12.150   2.896  1.00  0.00     0.049 A 
HETATM   12  C   UNL     1      38.138 -11.579   2.766  1.00  0.00     0.030 A 
HETATM   13  C   UNL     1      37.597 -11.318   1.504  1.00  0.00     0.002 A 
HETATM   14  C   UNL     1      38.328 -11.606   0.356  1.00  0.00     0.001 A 
HETATM   15  C   UNL     1      39.619 -12.119   0.469  1.00  0.00     0.019 A 
BRANCH  11  16
HETATM   16  N   UNL     1      39.844 -12.408   4.215  1.00  0.00    -0.337 N 
HETATM   17  H   UNL     1      39.817 -13.376   4.522  1.00  0.00     0.168 HD
BRANCH  16  18
HETATM   18  C   UNL     1      40.309 -11.543   5.147  1.00  0.00     0.157 C 
HETATM   19  S   UNL     1      39.312 -11.125   6.424  1.00  0.00    -0.047 SA
BRANCH  18  20
HETATM   20  N   UNL     1      41.598 -11.102   5.142  1.00  0.00    -0.199 NA
HETATM   21  C   UNL     1      42.628 -11.824   5.738  1.00  0.00     0.261 C 
HETATM   22  O   UNL     1      43.056 -12.892   5.313  1.00  0.00    -0.271 OA
HETATM   23  H   UNL     1      41.609 -10.135   5.456  1.00  0.00     0.139 HD
BRANCH  21  24
HETATM   24  C   UNL     1      43.199 -11.169   6.899  1.00  0.00     0.137 A 
HETATM   25  O   UNL     1      42.661  -9.985   7.335  1.00  0.00    -0.318 OA
HETATM   26  C   UNL     1      43.339  -9.630   8.457  1.00  0.00     0.143 A 
HETATM   27  C   UNL     1      44.309 -10.558   8.750  1.00  0.00     0.027 A 
HETATM   28  C   UNL     1      44.225 -11.548   7.743  1.00  0.00     0.044 A 
ENDBRANCH  21  24
ENDBRANCH  18  20
ENDBRANCH  16  18
ENDBRANCH  11  16
ENDBRANCH   6  10
BRANCH   1  29
HETATM   29  C   UNL     1      42.384 -17.291   3.928  1.00  0.00     0.254 C 
BRANCH  29  30
HETATM   30  C   UNL     1      42.630 -16.656   5.295  1.00  0.00    -0.023 A 
HETATM   31  C   UNL     1      41.534 -16.127   6.008  1.00  0.00     0.009 A 
HETATM   32  C   UNL     1      41.709 -15.488   7.238  1.00  0.00     0.001 A 
HETATM   33  C   UNL     1      42.980 -15.370   7.785  1.00  0.00     0.000 A 
HETATM   34  C   UNL     1      44.077 -15.894   7.107  1.00  0.00     0.001 A 
HETATM   35  C   UNL     1      43.904 -16.528   5.874  1.00  0.00     0.009 A 
ENDBRANCH  29  30
BRANCH  29  36
HETATM   36  C   UNL     1      43.025 -18.642   3.618  1.00  0.00    -0.023 A 
HETATM   37  C   UNL     1      43.072 -19.064   2.269  1.00  0.00     0.009 A 
HETATM   38  C   UNL     1      43.635 -20.289   1.910  1.00  0.00     0.001 A 
HETATM   39  C   UNL     1      44.165 -21.121   2.888  1.00  0.00     0.000 A 
HETATM   40  C   UNL     1      44.131 -20.727   4.222  1.00  0.00     0.001 A 
HETATM   41  C   UNL     1      43.569 -19.499   4.585  1.00  0.00     0.009 A 
ENDBRANCH  29  36
ENDBRANCH   1  29
TORSDOF 8
ENDMDL
MODEL 5
REMARK VINA RESULT:      -8.9      4.289      7.882
REMARK  8 active torsions:
REMARK  status: ('A' for Active; 'I' for Inactive)
REMARK    1  A    between atoms: C_4  and  C_5 
REMARK    2  A    between atoms: C_5  and  N_6 
REMARK    3  A    between atoms: C_5  and  C_32 
REMARK       I    between atoms: N_10  and  C_11 
REMARK    4  A    between atoms: C_11  and  C_12 
REMARK    5  A    between atoms: C_13  and  N_14 
REMARK    6  A    between atoms: N_14  and  C_15 
REMARK    7  A    between atoms: C_15  and  N_16 
REMARK       I    between atoms: N_16  and  C_17 
REMARK    8  A    between atoms: C_17  and  C_18 
ROOT
HETATM    1  N   UNL     1      43.404 -11.866   4.790  1.00  0.00    -0.056 N 
HETATM    2  H   UNL     1      44.094 -11.176   4.477  1.00  0.00     0.281 HD
HETATM    3  C   UNL     1      43.164 -12.811   3.611  1.00  0.00     0.256 C 
HETATM    4  C   UNL     1      42.634 -12.018   2.405  1.00  0.00     0.154 C 
HETATM    5  N   UNL     1      41.427 -11.283   2.786  1.00  0.00    -0.345 N 
HETATM    6  C   UNL     1      40.132 -11.833   2.718  1.00  0.00     0.256 C 
HETATM    7  O   UNL     1      39.220 -11.403   3.420  1.00  0.00    -0.267 OA
HETATM    8  C   UNL     1      41.661 -10.308   3.859  1.00  0.00     0.154 C 
HETATM    9  C   UNL     1      42.153 -11.043   5.127  1.00  0.00     0.256 C 
ENDROOT
BRANCH   6  10
HETATM   10  C   UNL     1      39.904 -13.071   1.930  1.00  0.00     0.058 A 
HETATM   11  C   UNL     1      39.884 -13.141   0.525  1.00  0.00     0.049 A 
HETATM   12  C   UNL     1      39.948 -14.401  -0.087  1.00  0.00     0.030 A 
HETATM   13  C   UNL     1      39.932 -15.570   0.678  1.00  0.00     0.002 A 
HETATM   14  C   UNL     1      39.871 -15.496   2.067  1.00  0.00     0.001 A 
HETATM   15  C   UNL     1      39.866 -14.251   2.693  1.00  0.00     0.019 A 
BRANCH  11  16
HETATM   16  N   UNL     1      39.865 -12.030  -0.345  1.00  0.00    -0.337 N 
HETATM   17  H   UNL     1      39.017 -11.473  -0.355  1.00  0.00     0.168 HD
BRANCH  16  18
HETATM   18  C   UNL     1      40.835 -11.578  -1.176  1.00  0.00     0.157 C 
HETATM   19  S   UNL     1      40.782 -12.022  -2.788  1.00  0.00    -0.047 SA
BRANCH  18  20
HETATM   20  N   UNL     1      41.775 -10.681  -0.767  1.00  0.00    -0.199 NA
HETATM   21  C   UNL     1      41.466  -9.345  -0.526  1.00  0.00     0.261 C 
HETATM   22  O   UNL     1      40.776  -8.956   0.409  1.00  0.00    -0.271 OA
HETATM   23  H   UNL     1      42.582 -10.758  -1.381  1.00  0.00     0.139 HD
BRANCH  21  24
HETATM   24  C   UNL     1      42.084  -8.430  -1.466  1.00  0.00     0.137 A 
HETATM   25  O   UNL     1      41.631  -8.387  -2.760  1.00  0.00    -0.318 OA
HETATM   26  C   UNL     1      42.336  -7.415  -3.396  1.00  0.00     0.143 A 
HETATM   27  C   UNL     1      43.240  -6.834  -2.539  1.00  0.00     0.027 A 
HETATM   28  C   UNL     1      43.084  -7.491  -1.296  1.00  0.00     0.044 A 
ENDBRANCH  21  24
ENDBRANCH  18  20
ENDBRANCH  16  18
ENDBRANCH  11  16
ENDBRANCH   6  10
BRANCH   1  29
HETATM   29  C   UNL     1      44.085 -12.585   5.959  1.00  0.00     0.254 C 
BRANCH  29  30
HETATM   30  C   UNL     1      43.444 -13.910   6.367  1.00  0.00    -0.023 A 
HETATM   31  C   UNL     1      44.274 -15.027   6.595  1.00  0.00     0.009 A 
HETATM   32  C   UNL     1      43.738 -16.276   6.918  1.00  0.00     0.001 A 
HETATM   33  C   UNL     1      42.361 -16.434   7.027  1.00  0.00     0.000 A 
HETATM   34  C   UNL     1      41.521 -15.344   6.818  1.00  0.00     0.001 A 
HETATM   35  C   UNL     1      42.057 -14.096   6.489  1.00  0.00     0.009 A 
ENDBRANCH  29  30
BRANCH  29  36
HETATM   36  C   UNL     1      44.538 -11.619   7.052  1.00  0.00    -0.023 A 
HETATM   37  C   UNL     1      45.773 -10.951   6.881  1.00  0.00     0.009 A 
HETATM   38  C   UNL     1      46.256 -10.061   7.841  1.00  0.00     0.001 A 
HETATM   39  C   UNL     1      45.518  -9.815   8.992  1.00  0.00     0.000 A 
HETATM   40  C   UNL     1      44.300 -10.460   9.181  1.00  0.00     0.001 A 
HETATM   41  C   UNL     1      43.812 -11.353   8.222  1.00  0.00     0.009 A 
ENDBRANCH  29  36
ENDBRANCH   1  29
TORSDOF 8
ENDMDL
MODEL 6
REMARK VINA RESULT:      -8.9      2.732      8.216
REMARK  8 active torsions:
REMARK  status: ('A' for Active; 'I' for Inactive)
REMARK    1  A    between atoms: C_4  and  C_5 
REMARK    2  A    between atoms: C_5  and  N_6 
REMARK    3  A    between atoms: C_5  and  C_32 
REMARK       I    between atoms: N_10  and  C_11 
REMARK    4  A    between atoms: C_11  and  C_12 
REMARK    5  A    between atoms: C_13  and  N_14 
REMARK    6  A    between atoms: N_14  and  C_15 
REMARK    7  A    between atoms: C_15  and  N_16 
REMARK       I    between atoms: N_16  and  C_17 
REMARK    8  A    between atoms: C_17  and  C_18 
ROOT
HETATM    1  N   UNL     1      41.686  -9.343   8.591  1.00  0.00    -0.056 N 
HETATM    2  H   UNL     1      41.750  -8.321   8.643  1.00  0.00     0.281 HD
HETATM    3  C   UNL     1      41.924  -9.722   7.128  1.00  0.00     0.256 C 
HETATM    4  C   UNL     1      40.859  -9.062   6.237  1.00  0.00     0.154 C 
HETATM    5  N   UNL     1      39.522  -9.436   6.700  1.00  0.00    -0.345 N 
HETATM    6  C   UNL     1      38.851 -10.598   6.269  1.00  0.00     0.256 C 
HETATM    7  O   UNL     1      37.974 -11.117   6.956  1.00  0.00    -0.267 OA
HETATM    8  C   UNL     1      39.246  -9.001   8.075  1.00  0.00     0.154 C 
HETATM    9  C   UNL     1      40.254  -9.667   9.040  1.00  0.00     0.256 C 
ENDROOT
BRANCH   6  10
HETATM   10  C   UNL     1      39.332 -11.316   5.062  1.00  0.00     0.058 A 
HETATM   11  C   UNL     1      40.042 -12.531   5.075  1.00  0.00     0.049 A 
HETATM   12  C   UNL     1      40.183 -13.241   3.875  1.00  0.00     0.030 A 
HETATM   13  C   UNL     1      39.715 -12.710   2.670  1.00  0.00     0.002 A 
HETATM   14  C   UNL     1      39.085 -11.469   2.651  1.00  0.00     0.001 A 
HETATM   15  C   UNL     1      38.884 -10.777   3.843  1.00  0.00     0.019 A 
BRANCH  11  16
HETATM   16  N   UNL     1      40.586 -13.142   6.225  1.00  0.00    -0.337 N 
HETATM   17  H   UNL     1      40.644 -12.570   7.062  1.00  0.00     0.168 HD
BRANCH  16  18
HETATM   18  C   UNL     1      41.040 -14.409   6.386  1.00  0.00     0.157 C 
HETATM   19  S   UNL     1      39.927 -15.642   6.581  1.00  0.00    -0.047 SA
BRANCH  18  20
HETATM   20  N   UNL     1      42.361 -14.721   6.271  1.00  0.00    -0.199 NA
HETATM   21  C   UNL     1      43.015 -14.723   5.042  1.00  0.00     0.261 C 
HETATM   22  O   UNL     1      43.260 -13.714   4.391  1.00  0.00    -0.271 OA
HETATM   23  H   UNL     1      42.530 -15.591   6.769  1.00  0.00     0.139 HD
BRANCH  21  24
HETATM   24  C   UNL     1      43.436 -16.043   4.612  1.00  0.00     0.137 A 
HETATM   25  O   UNL     1      44.168 -16.827   5.467  1.00  0.00    -0.318 OA
HETATM   26  C   UNL     1      44.372 -18.015   4.840  1.00  0.00     0.143 A 
HETATM   27  C   UNL     1      43.791 -18.011   3.594  1.00  0.00     0.027 A 
HETATM   28  C   UNL     1      43.193 -16.737   3.443  1.00  0.00     0.044 A 
ENDBRANCH  21  24
ENDBRANCH  18  20
ENDBRANCH  16  18
ENDBRANCH  11  16
ENDBRANCH   6  10
BRANCH   1  29
HETATM   29  C   UNL     1      42.816  -9.845   9.495  1.00  0.00     0.254 C 
BRANCH  29  30
HETATM   30  C   UNL     1      42.824  -9.262  10.906  1.00  0.00    -0.023 A 
HETATM   31  C   UNL     1      42.625 -10.127  12.003  1.00  0.00     0.009 A 
HETATM   32  C   UNL     1      42.569  -9.640  13.311  1.00  0.00     0.001 A 
HETATM   33  C   UNL     1      42.719  -8.280  13.553  1.00  0.00     0.000 A 
HETATM   34  C   UNL     1      42.928  -7.407  12.490  1.00  0.00     0.001 A 
HETATM   35  C   UNL     1      42.978  -7.892  11.180  1.00  0.00     0.009 A 
ENDBRANCH  29  30
BRANCH  29  36
HETATM   36  C   UNL     1      44.141  -9.983   8.748  1.00  0.00    -0.023 A 
HETATM   37  C   UNL     1      44.375 -11.172   8.020  1.00  0.00     0.009 A 
HETATM   38  C   UNL     1      45.566 -11.373   7.320  1.00  0.00     0.001 A 
HETATM   39  C   UNL     1      46.548 -10.391   7.329  1.00  0.00     0.000 A 
HETATM   40  C   UNL     1      46.340  -9.212   8.037  1.00  0.00     0.001 A 
HETATM   41  C   UNL     1      45.149  -9.007   8.739  1.00  0.00     0.009 A 
ENDBRANCH  29  36
ENDBRANCH   1  29
TORSDOF 8
ENDMDL
MODEL 7
REMARK VINA RESULT:      -8.8      3.648      8.109
REMARK  8 active torsions:
REMARK  status: ('A' for Active; 'I' for Inactive)
REMARK    1  A    between atoms: C_4  and  C_5 
REMARK    2  A    between atoms: C_5  and  N_6 
REMARK    3  A    between atoms: C_5  and  C_32 
REMARK       I    between atoms: N_10  and  C_11 
REMARK    4  A    between atoms: C_11  and  C_12 
REMARK    5  A    between atoms: C_13  and  N_14 
REMARK    6  A    between atoms: N_14  and  C_15 
REMARK    7  A    between atoms: C_15  and  N_16 
REMARK       I    between atoms: N_16  and  C_17 
REMARK    8  A    between atoms: C_17  and  C_18 
ROOT
HETATM    1  N   UNL     1      42.146 -11.387   5.317  1.00  0.00    -0.056 N 
HETATM    2  H   UNL     1      42.049 -10.726   6.095  1.00  0.00     0.281 HD
HETATM    3  C   UNL     1      42.432 -10.552   4.067  1.00  0.00     0.256 C 
HETATM    4  C   UNL     1      41.271  -9.577   3.813  1.00  0.00     0.154 C 
HETATM    5  N   UNL     1      40.012 -10.317   3.714  1.00  0.00    -0.345 N 
HETATM    6  C   UNL     1      39.530 -10.865   2.509  1.00  0.00     0.256 C 
HETATM    7  O   UNL     1      38.750 -11.815   2.510  1.00  0.00    -0.267 OA
HETATM    8  C   UNL     1      39.680 -11.055   4.940  1.00  0.00     0.154 C 
HETATM    9  C   UNL     1      40.787 -12.094   5.233  1.00  0.00     0.256 C 
ENDROOT
BRANCH   6  10
HETATM   10  C   UNL     1      40.111 -10.418   1.218  1.00  0.00     0.058 A 
HETATM   11  C   UNL     1      40.867 -11.227   0.350  1.00  0.00     0.049 A 
HETATM   12  C   UNL     1      41.107 -10.773  -0.955  1.00  0.00     0.030 A 
HETATM   13  C   UNL     1      40.691  -9.502  -1.358  1.00  0.00     0.002 A 
HETATM   14  C   UNL     1      40.012  -8.673  -0.469  1.00  0.00     0.001 A 
HETATM   15  C   UNL     1      39.714  -9.131   0.813  1.00  0.00     0.019 A 
BRANCH  11  16
HETATM   16  N   UNL     1      41.366 -12.510   0.662  1.00  0.00    -0.337 N 
HETATM   17  H   UNL     1      42.325 -12.558   0.991  1.00  0.00     0.168 HD
BRANCH  16  18
HETATM   18  C   UNL     1      40.740 -13.709   0.600  1.00  0.00     0.157 C 
HETATM   19  S   UNL     1      41.549 -15.068   1.146  1.00  0.00    -0.047 SA
BRANCH  18  20
HETATM   20  N   UNL     1      39.436 -13.823   0.223  1.00  0.00    -0.199 NA
HETATM   21  C   UNL     1      39.057 -13.902  -1.115  1.00  0.00     0.261 C 
HETATM   22  O   UNL     1      39.286 -14.864  -1.839  1.00  0.00    -0.271 OA
HETATM   23  H   UNL     1      38.898 -13.108   0.706  1.00  0.00     0.139 HD
BRANCH  21  24
HETATM   24  C   UNL     1      38.310 -12.747  -1.574  1.00  0.00     0.137 A 
HETATM   25  O   UNL     1      37.638 -11.974  -0.662  1.00  0.00    -0.318 OA
HETATM   26  C   UNL     1      37.082 -10.941  -1.349  1.00  0.00     0.143 A 
HETATM   27  C   UNL     1      37.377 -11.037  -2.688  1.00  0.00     0.027 A 
HETATM   28  C   UNL     1      38.162 -12.204  -2.836  1.00  0.00     0.044 A 
ENDBRANCH  21  24
ENDBRANCH  18  20
ENDBRANCH  16  18
ENDBRANCH  11  16
ENDBRANCH   6  10
BRANCH   1  29
HETATM   29  C   UNL     1      43.348 -12.256   5.701  1.00  0.00     0.254 C 
BRANCH  29  30
HETATM   30  C   UNL     1      43.040 -13.740   5.888  1.00  0.00    -0.023 A 
HETATM   31  C   UNL     1      42.881 -14.554   4.747  1.00  0.00     0.009 A 
HETATM   32  C   UNL     1      42.547 -15.905   4.860  1.00  0.00     0.001 A 
HETATM   33  C   UNL     1      42.370 -16.475   6.115  1.00  0.00     0.000 A 
HETATM   34  C   UNL     1      42.531 -15.696   7.257  1.00  0.00     0.001 A 
HETATM   35  C   UNL     1      42.861 -14.343   7.145  1.00  0.00     0.009 A 
ENDBRANCH  29  30
BRANCH  29  36
HETATM   36  C   UNL     1      44.272 -11.564   6.700  1.00  0.00    -0.023 A 
HETATM   37  C   UNL     1      43.701 -11.031   7.878  1.00  0.00     0.009 A 
HETATM   38  C   UNL     1      44.481 -10.377   8.833  1.00  0.00     0.001 A 
HETATM   39  C   UNL     1      45.849 -10.243   8.635  1.00  0.00     0.000 A 
HETATM   40  C   UNL     1      46.434 -10.760   7.483  1.00  0.00     0.001 A 
HETATM   41  C   UNL     1      45.656 -11.416   6.525  1.00  0.00     0.009 A 
ENDBRANCH  29  36
ENDBRANCH   1  29
TORSDOF 8
ENDMDL
MODEL 8
REMARK VINA RESULT:      -8.7      2.688      8.195
REMARK  8 active torsions:
REMARK  status: ('A' for Active; 'I' for Inactive)
REMARK    1  A    between atoms: C_4  and  C_5 
REMARK    2  A    between atoms: C_5  and  N_6 
REMARK    3  A    between atoms: C_5  and  C_32 
REMARK       I    between atoms: N_10  and  C_11 
REMARK    4  A    between atoms: C_11  and  C_12 
REMARK    5  A    between atoms: C_13  and  N_14 
REMARK    6  A    between atoms: N_14  and  C_15 
REMARK    7  A    between atoms: C_15  and  N_16 
REMARK       I    between atoms: N_16  and  C_17 
REMARK    8  A    between atoms: C_17  and  C_18 
ROOT
HETATM    1  N   UNL     1      41.737  -8.379   8.599  1.00  0.00    -0.056 N 
HETATM    2  H   UNL     1      41.504  -7.390   8.731  1.00  0.00     0.281 HD
HETATM    3  C   UNL     1      41.845  -8.604   7.089  1.00  0.00     0.256 C 
HETATM    4  C   UNL     1      40.508  -8.263   6.413  1.00  0.00     0.154 C 
HETATM    5  N   UNL     1      39.430  -9.048   7.018  1.00  0.00    -0.345 N 
HETATM    6  C   UNL     1      39.074 -10.339   6.581  1.00  0.00     0.256 C 
HETATM    7  O   UNL     1      38.509 -11.130   7.332  1.00  0.00    -0.267 OA
HETATM    8  C   UNL     1      39.256  -8.777   8.450  1.00  0.00     0.154 C 
HETATM    9  C   UNL     1      40.554  -9.144   9.207  1.00  0.00     0.256 C 
ENDROOT
BRANCH   6  10
HETATM   10  C   UNL     1      39.552 -10.822   5.261  1.00  0.00     0.058 A 
HETATM   11  C   UNL     1      40.413 -11.918   5.066  1.00  0.00     0.049 A 
HETATM   12  C   UNL     1      40.553 -12.443   3.773  1.00  0.00     0.030 A 
HETATM   13  C   UNL     1      39.930 -11.832   2.682  1.00  0.00     0.002 A 
HETATM   14  C   UNL     1      39.144 -10.699   2.870  1.00  0.00     0.001 A 
HETATM   15  C   UNL     1      38.947 -10.199   4.156  1.00  0.00     0.019 A 
BRANCH  11  16
HETATM   16  N   UNL     1      41.117 -12.591   6.088  1.00  0.00    -0.337 N 
HETATM   17  H   UNL     1      41.395 -12.036   6.892  1.00  0.00     0.168 HD
BRANCH  16  18
HETATM   18  C   UNL     1      41.475 -13.896   6.164  1.00  0.00     0.157 C 
HETATM   19  S   UNL     1      40.291 -15.036   6.477  1.00  0.00    -0.047 SA
BRANCH  18  20
HETATM   20  N   UNL     1      42.738 -14.315   5.872  1.00  0.00    -0.199 NA
HETATM   21  C   UNL     1      43.073 -14.841   4.628  1.00  0.00     0.261 C 
HETATM   22  O   UNL     1      43.118 -14.185   3.593  1.00  0.00    -0.271 OA
HETATM   23  H   UNL     1      43.053 -14.929   6.619  1.00  0.00     0.139 HD
BRANCH  21  24
HETATM   24  C   UNL     1      43.421 -16.248   4.668  1.00  0.00     0.137 A 
HETATM   25  O   UNL     1      43.510 -16.953   3.495  1.00  0.00    -0.318 OA
HETATM   26  C   UNL     1      43.903 -18.213   3.818  1.00  0.00     0.143 A 
HETATM   27  C   UNL     1      44.064 -18.337   5.177  1.00  0.00     0.027 A 
HETATM   28  C   UNL     1      43.746 -17.073   5.728  1.00  0.00     0.044 A 
ENDBRANCH  21  24
ENDBRANCH  18  20
ENDBRANCH  16  18
ENDBRANCH  11  16
ENDBRANCH   6  10
BRANCH   1  29
HETATM   29  C   UNL     1      43.092  -8.549   9.293  1.00  0.00     0.254 C 
BRANCH  29  30
HETATM   30  C   UNL     1      44.081  -9.459   8.568  1.00  0.00    -0.023 A 
HETATM   31  C   UNL     1      45.421  -9.039   8.433  1.00  0.00     0.009 A 
HETATM   32  C   UNL     1      46.355  -9.807   7.734  1.00  0.00     0.001 A 
HETATM   33  C   UNL     1      45.973 -11.014   7.160  1.00  0.00     0.000 A 
HETATM   34  C   UNL     1      44.660 -11.456   7.288  1.00  0.00     0.001 A 
HETATM   35  C   UNL     1      43.723 -10.686   7.983  1.00  0.00     0.009 A 
ENDBRANCH  29  30
BRANCH  29  36
HETATM   36  C   UNL     1      42.958  -8.668  10.810  1.00  0.00    -0.023 A 
HETATM   37  C   UNL     1      42.901  -9.962  11.375  1.00  0.00     0.009 A 
HETATM   38  C   UNL     1      42.771 -10.149  12.752  1.00  0.00     0.001 A 
HETATM   39  C   UNL     1      42.696  -9.049  13.596  1.00  0.00     0.000 A 
HETATM   40  C   UNL     1      42.751  -7.765  13.063  1.00  0.00     0.001 A 
HETATM   41  C   UNL     1      42.882  -7.574  11.684  1.00  0.00     0.009 A 
ENDBRANCH  29  36
ENDBRANCH   1  29
TORSDOF 8
ENDMDL
MODEL 9
REMARK VINA RESULT:      -8.7      3.419      7.506
REMARK  8 active torsions:
REMARK  status: ('A' for Active; 'I' for Inactive)
REMARK    1  A    between atoms: C_4  and  C_5 
REMARK    2  A    between atoms: C_5  and  N_6 
REMARK    3  A    between atoms: C_5  and  C_32 
REMARK       I    between atoms: N_10  and  C_11 
REMARK    4  A    between atoms: C_11  and  C_12 
REMARK    5  A    between atoms: C_13  and  N_14 
REMARK    6  A    between atoms: N_14  and  C_15 
REMARK    7  A    between atoms: C_15  and  N_16 
REMARK       I    between atoms: N_16  and  C_17 
REMARK    8  A    between atoms: C_17  and  C_18 
ROOT
HETATM    1  N   UNL     1      42.110 -11.443   5.314  1.00  0.00    -0.056 N 
HETATM    2  H   UNL     1      41.962 -10.771   6.074  1.00  0.00     0.281 HD
HETATM    3  C   UNL     1      42.356 -10.622   4.046  1.00  0.00     0.256 C 
HETATM    4  C   UNL     1      41.139  -9.729   3.757  1.00  0.00     0.154 C 
HETATM    5  N   UNL     1      39.931 -10.550   3.663  1.00  0.00    -0.345 N 
HETATM    6  C   UNL     1      39.498 -11.156   2.468  1.00  0.00     0.256 C 
HETATM    7  O   UNL     1      38.780 -12.154   2.484  1.00  0.00    -0.267 OA
HETATM    8  C   UNL     1      39.632 -11.277   4.904  1.00  0.00     0.154 C 
HETATM    9  C   UNL     1      40.799 -12.237   5.234  1.00  0.00     0.256 C 
ENDROOT
BRANCH   6  10
HETATM   10  C   UNL     1      40.064 -10.704   1.172  1.00  0.00     0.058 A 
HETATM   11  C   UNL     1      40.535 -11.556   0.156  1.00  0.00     0.049 A 
HETATM   12  C   UNL     1      40.772 -11.019  -1.118  1.00  0.00     0.030 A 
HETATM   13  C   UNL     1      40.639  -9.648  -1.351  1.00  0.00     0.002 A 
HETATM   14  C   UNL     1      40.250  -8.797  -0.321  1.00  0.00     0.001 A 
HETATM   15  C   UNL     1      39.954  -9.323   0.935  1.00  0.00     0.019 A 
BRANCH  11  16
HETATM   16  N   UNL     1      40.738 -12.947   0.289  1.00  0.00    -0.337 N 
HETATM   17  H   UNL     1      41.590 -13.241   0.756  1.00  0.00     0.168 HD
BRANCH  16  18
HETATM   18  C   UNL     1      39.943 -13.969  -0.109  1.00  0.00     0.157 C 
HETATM   19  S   UNL     1      39.072 -13.803  -1.528  1.00  0.00    -0.047 SA
BRANCH  18  20
HETATM   20  N   UNL     1      39.927 -15.166   0.541  1.00  0.00    -0.199 NA
HETATM   21  C   UNL     1      40.396 -15.305   1.845  1.00  0.00     0.261 C 
HETATM   22  O   UNL     1      39.840 -14.832   2.830  1.00  0.00    -0.271 OA
HETATM   23  H   UNL     1      40.343 -15.867  -0.066  1.00  0.00     0.139 HD
BRANCH  21  24
HETATM   24  C   UNL     1      41.594 -16.115   1.947  1.00  0.00     0.137 A 
HETATM   25  O   UNL     1      41.495 -17.410   2.388  1.00  0.00    -0.318 OA
HETATM   26  C   UNL     1      42.742 -17.946   2.329  1.00  0.00     0.143 A 
HETATM   27  C   UNL     1      43.645 -17.020   1.863  1.00  0.00     0.027 A 
HETATM   28  C   UNL     1      42.908 -15.837   1.623  1.00  0.00     0.044 A 
ENDBRANCH  21  24
ENDBRANCH  18  20
ENDBRANCH  16  18
ENDBRANCH  11  16
ENDBRANCH   6  10
BRANCH   1  29
HETATM   29  C   UNL     1      43.359 -12.225   5.731  1.00  0.00     0.254 C 
BRANCH  29  30
HETATM   30  C   UNL     1      43.113 -13.683   6.112  1.00  0.00    -0.023 A 
HETATM   31  C   UNL     1      42.794 -14.609   5.097  1.00  0.00     0.009 A 
HETATM   32  C   UNL     1      42.508 -15.943   5.395  1.00  0.00     0.001 A 
HETATM   33  C   UNL     1      42.540 -16.383   6.713  1.00  0.00     0.000 A 
HETATM   34  C   UNL     1      42.863 -15.492   7.732  1.00  0.00     0.001 A 
HETATM   35  C   UNL     1      43.145 -14.155   7.435  1.00  0.00     0.009 A 
ENDBRANCH  29  30
BRANCH  29  36
HETATM   36  C   UNL     1      44.310 -11.390   6.587  1.00  0.00    -0.023 A 
HETATM   37  C   UNL     1      43.749 -10.457   7.488  1.00  0.00     0.009 A 
HETATM   38  C   UNL     1      44.555  -9.653   8.297  1.00  0.00     0.001 A 
HETATM   39  C   UNL     1      45.937  -9.765   8.225  1.00  0.00     0.000 A 
HETATM   40  C   UNL     1      46.512 -10.677   7.345  1.00  0.00     0.001 A 
HETATM   41  C   UNL     1      45.708 -11.484   6.534  1.00  0.00     0.009 A 
ENDBRANCH  29  36
ENDBRANCH   1  29
TORSDOF 8
ENDMDL
MODEL 10
REMARK VINA RESULT:      -8.6      2.969      8.724
REMARK  8 active torsions:
REMARK  status: ('A' for Active; 'I' for Inactive)
REMARK    1  A    between atoms: C_4  and  C_5 
REMARK    2  A    between atoms: C_5  and  N_6 
REMARK    3  A    between atoms: C_5  and  C_32 
REMARK       I    between atoms: N_10  and  C_11 
REMARK    4  A    between atoms: C_11  and  C_12 
REMARK    5  A    between atoms: C_13  and  N_14 
REMARK    6  A    between atoms: N_14  and  C_15 
REMARK    7  A    between atoms: C_15  and  N_16 
REMARK       I    between atoms: N_16  and  C_17 
REMARK    8  A    between atoms: C_17  and  C_18 
ROOT
HETATM    1  N   UNL     1      41.876 -10.788   7.145  1.00  0.00    -0.056 N 
HETATM    2  H   UNL     1      41.673 -11.455   7.897  1.00  0.00     0.281 HD
HETATM    3  C   UNL     1      40.596 -10.660   6.317  1.00  0.00     0.256 C 
HETATM    4  C   UNL     1      40.206 -12.031   5.741  1.00  0.00     0.154 C 
HETATM    5  N   UNL     1      41.319 -12.579   4.965  1.00  0.00    -0.345 N 
HETATM    6  C   UNL     1      41.519 -12.303   3.598  1.00  0.00     0.256 C 
HETATM    7  O   UNL     1      42.633 -12.390   3.088  1.00  0.00    -0.267 OA
HETATM    8  C   UNL     1      42.531 -12.790   5.767  1.00  0.00     0.154 C 
HETATM    9  C   UNL     1      43.012 -11.438   6.343  1.00  0.00     0.256 C 
ENDROOT
BRANCH   6  10
HETATM   10  C   UNL     1      40.411 -11.718   2.800  1.00  0.00     0.058 A 
HETATM   11  C   UNL     1      39.228 -12.392   2.447  1.00  0.00     0.049 A 
HETATM   12  C   UNL     1      38.151 -11.645   1.948  1.00  0.00     0.030 A 
HETATM   13  C   UNL     1      38.280 -10.274   1.713  1.00  0.00     0.002 A 
HETATM   14  C   UNL     1      39.481  -9.626   1.989  1.00  0.00     0.001 A 
HETATM   15  C   UNL     1      40.542 -10.343   2.540  1.00  0.00     0.019 A 
BRANCH  11  16
HETATM   16  N   UNL     1      39.000 -13.775   2.609  1.00  0.00    -0.337 N 
HETATM   17  H   UNL     1      38.253 -14.043   3.241  1.00  0.00     0.168 HD
BRANCH  16  18
HETATM   18  C   UNL     1      39.634 -14.820   2.024  1.00  0.00     0.157 C 
HETATM   19  S   UNL     1      40.273 -14.617   0.492  1.00  0.00    -0.047 SA
BRANCH  18  20
HETATM   20  N   UNL     1      39.873 -15.983   2.692  1.00  0.00    -0.199 NA
HETATM   21  C   UNL     1      40.726 -16.044   3.790  1.00  0.00     0.261 C 
HETATM   22  O   UNL     1      40.481 -15.539   4.881  1.00  0.00    -0.271 OA
HETATM   23  H   UNL     1      40.111 -16.701   2.013  1.00  0.00     0.139 HD
BRANCH  21  24
HETATM   24  C   UNL     1      41.932 -16.812   3.545  1.00  0.00     0.137 A 
HETATM   25  O   UNL     1      42.762 -17.112   4.594  1.00  0.00    -0.318 OA
HETATM   26  C   UNL     1      43.769 -17.878   4.098  1.00  0.00     0.143 A 
HETATM   27  C   UNL     1      43.607 -18.073   2.747  1.00  0.00     0.027 A 
HETATM   28  C   UNL     1      42.427 -17.380   2.388  1.00  0.00     0.044 A 
ENDBRANCH  21  24
ENDBRANCH  18  20
ENDBRANCH  16  18
ENDBRANCH  11  16
ENDBRANCH   6  10
BRANCH   1  29
HETATM   29  C   UNL     1      42.212  -9.482   7.871  1.00  0.00     0.254 C 
BRANCH  29  30
HETATM   30  C   UNL     1      43.481  -9.520   8.719  1.00  0.00    -0.023 A 
HETATM   31  C   UNL     1      43.433 -10.123   9.993  1.00  0.00     0.009 A 
HETATM   32  C   UNL     1      44.550 -10.139  10.831  1.00  0.00     0.001 A 
HETATM   33  C   UNL     1      45.741  -9.557  10.413  1.00  0.00     0.000 A 
HETATM   34  C   UNL     1      45.818  -8.965   9.156  1.00  0.00     0.001 A 
HETATM   35  C   UNL     1      44.700  -8.944   8.319  1.00  0.00     0.009 A 
ENDBRANCH  29  30
BRANCH  29  36
HETATM   36  C   UNL     1      40.970  -8.793   8.435  1.00  0.00    -0.023 A 
HETATM   37  C   UNL     1      40.629  -7.518   7.930  1.00  0.00     0.009 A 
HETATM   38  C   UNL     1      39.514  -6.824   8.403  1.00  0.00     0.001 A 
HETATM   39  C   UNL     1      38.714  -7.389   9.387  1.00  0.00     0.000 A 
HETATM   40  C   UNL     1      39.029  -8.643   9.898  1.00  0.00     0.001 A 
HETATM   41  C   UNL     1      40.145  -9.342   9.427  1.00  0.00     0.009 A 
ENDBRANCH  29  36
ENDBRANCH   1  29
TORSDOF 8
ENDMDL
