MODEL 1
REMARK VINA RESULT:      -8.0      0.000      0.000
REMARK  7 active torsions:
REMARK  status: ('A' for Active; 'I' for Inactive)
REMARK       I    between atoms: C_2  and  N_3 
REMARK    1  A    between atoms: N_3  and  C_4 
REMARK    2  A    between atoms: C_7  and  N_8 
REMARK       I    between atoms: N_8  and  C_9 
REMARK    3  A    between atoms: C_9  and  C_10 
REMARK    4  A    between atoms: C_11  and  C_12 
REMARK    5  A    between atoms: C_13  and  O_14 
REMARK    6  A    between atoms: N_20  and  C_21 
REMARK    7  A    between atoms: C_24  and  O_25 
ROOT
HETATM    1  C   UNL     1      42.012 -10.775   2.877  1.00  0.00     0.106 C 
HETATM    2  C   UNL     1      41.323 -10.697   1.505  1.00  0.00     0.142 C 
HETATM    3  N   UNL     1      40.081 -11.518   1.430  1.00  0.00    -0.308 N 
HETATM    4  C   UNL     1      39.197 -11.570   2.521  1.00  0.00     0.225 C 
HETATM    5  O   UNL     1      38.001 -11.848   2.442  1.00  0.00    -0.273 OA
HETATM    6  C   UNL     1      39.795 -11.393   3.906  1.00  0.00     0.104 C 
HETATM    7  C   UNL     1      41.025 -10.518   4.005  1.00  0.00     0.026 C 
ENDROOT
BRANCH   1   8
HETATM    8  C   UNL     1      42.792 -12.076   3.110  1.00  0.00     0.228 C 
HETATM    9  N   UNL     1      42.389 -13.152   2.343  1.00  0.00    -0.327 N 
HETATM   10  H   UNL     1      41.829 -12.959   1.521  1.00  0.00     0.169 HD
HETATM   11  O   UNL     1      43.633 -12.117   4.006  1.00  0.00    -0.273 OA
BRANCH   9  12
HETATM   12  C   UNL     1      42.642 -14.519   2.584  1.00  0.00     0.034 A 
HETATM   13  C   UNL     1      42.227 -15.204   3.724  1.00  0.00     0.032 A 
HETATM   14  C   UNL     1      42.425 -16.588   3.840  1.00  0.00     0.032 A 
HETATM   15  C   UNL     1      43.041 -17.309   2.819  1.00  0.00     0.034 A 
HETATM   16  C   UNL     1      43.487 -16.616   1.688  1.00  0.00     0.032 A 
HETATM   17  C   UNL     1      43.289 -15.235   1.571  1.00  0.00     0.032 A 
BRANCH  15  18
HETATM   18  N   UNL     1      43.225 -18.708   2.835  1.00  0.00    -0.328 N 
HETATM   19  C   UNL     1      43.992 -19.444   3.719  1.00  0.00     0.218 C 
HETATM   20  C   UNL     1      43.894 -20.932   3.485  1.00  0.00     0.117 C 
HETATM   21  O   UNL     1      44.682 -19.010   4.635  1.00  0.00    -0.274 OA
HETATM   22  H   UNL     1      42.704 -19.225   2.139  1.00  0.00     0.169 HD
ENDBRANCH  15  18
ENDBRANCH   9  12
ENDBRANCH   1   8
BRANCH   2  23
HETATM   23  C   UNL     1      41.107  -9.228   1.098  1.00  0.00    -0.001 A 
HETATM   24  C   UNL     1      41.606  -8.765  -0.141  1.00  0.00     0.076 A 
HETATM   25  C   UNL     1      41.475  -7.416  -0.488  1.00  0.00     0.037 A 
HETATM   26  C   UNL     1      40.846  -6.519   0.375  1.00  0.00     0.003 A 
HETATM   27  C   UNL     1      40.335  -6.966   1.587  1.00  0.00     0.001 A 
HETATM   28  C   UNL     1      40.462  -8.308   1.946  1.00  0.00     0.012 A 
BRANCH  24  29
HETATM   29  O   UNL     1      42.210  -9.709  -0.931  1.00  0.00    -0.355 OA
HETATM   30  C   UNL     1      41.669  -9.918  -2.231  1.00  0.00     0.210 C 
ENDBRANCH  24  29
ENDBRANCH   2  23
BRANCH   3  31
HETATM   31  C   UNL     1      39.718 -12.096   0.148  1.00  0.00     0.038 A 
HETATM   32  C   UNL     1      40.300 -13.292  -0.299  1.00  0.00     0.032 A 
HETATM   33  C   UNL     1      40.009 -13.820  -1.565  1.00  0.00     0.039 A 
HETATM   34  C   UNL     1      39.134 -13.168  -2.429  1.00  0.00     0.068 A 
HETATM   35  C   UNL     1      38.540 -11.985  -2.006  1.00  0.00     0.039 A 
HETATM   36  C   UNL     1      38.833 -11.457  -0.736  1.00  0.00     0.032 A 
BRANCH  34  37
HETATM   37  O   UNL     1      38.948 -13.779  -3.635  1.00  0.00    -0.356 OA
HETATM   38  C   UNL     1      38.143 -14.951  -3.646  1.00  0.00     0.210 C 
ENDBRANCH  34  37
ENDBRANCH   3  31
TORSDOF 7
ENDMDL
MODEL 2
REMARK VINA RESULT:      -7.8      4.137      7.715
REMARK  7 active torsions:
REMARK  status: ('A' for Active; 'I' for Inactive)
REMARK       I    between atoms: C_2  and  N_3 
REMARK    1  A    between atoms: N_3  and  C_4 
REMARK    2  A    between atoms: C_7  and  N_8 
REMARK       I    between atoms: N_8  and  C_9 
REMARK    3  A    between atoms: C_9  and  C_10 
REMARK    4  A    between atoms: C_11  and  C_12 
REMARK    5  A    between atoms: C_13  and  O_14 
REMARK    6  A    between atoms: N_20  and  C_21 
REMARK    7  A    between atoms: C_24  and  O_25 
ROOT
HETATM    1  C   UNL     1      41.754 -13.111   4.903  1.00  0.00     0.106 C 
HETATM    2  C   UNL     1      41.148 -13.450   3.531  1.00  0.00     0.142 C 
HETATM    3  N   UNL     1      41.108 -12.281   2.607  1.00  0.00    -0.308 N 
HETATM    4  C   UNL     1      42.181 -11.377   2.559  1.00  0.00     0.225 C 
HETATM    5  O   UNL     1      42.449 -10.656   1.598  1.00  0.00    -0.273 OA
HETATM    6  C   UNL     1      42.989 -11.192   3.832  1.00  0.00     0.104 C 
HETATM    7  C   UNL     1      43.083 -12.387   4.754  1.00  0.00     0.026 C 
ENDROOT
BRANCH   1   8
HETATM    8  C   UNL     1      40.806 -12.341   5.831  1.00  0.00     0.228 C 
HETATM    9  N   UNL     1      41.215 -11.063   6.164  1.00  0.00    -0.327 N 
HETATM   10  H   UNL     1      41.927 -10.633   5.586  1.00  0.00     0.169 HD
HETATM   11  O   UNL     1      39.822 -12.915   6.293  1.00  0.00    -0.273 OA
BRANCH   9  12
HETATM   12  C   UNL     1      40.773 -10.277   7.249  1.00  0.00     0.034 A 
HETATM   13  C   UNL     1      39.436 -10.124   7.612  1.00  0.00     0.032 A 
HETATM   14  C   UNL     1      39.086  -9.411   8.769  1.00  0.00     0.032 A 
HETATM   15  C   UNL     1      40.065  -8.842   9.580  1.00  0.00     0.034 A 
HETATM   16  C   UNL     1      41.404  -8.968   9.198  1.00  0.00     0.032 A 
HETATM   17  C   UNL     1      41.756  -9.680   8.044  1.00  0.00     0.032 A 
BRANCH  15  18
HETATM   18  N   UNL     1      39.797  -8.161  10.786  1.00  0.00    -0.328 N 
HETATM   19  C   UNL     1      39.710  -8.702  12.055  1.00  0.00     0.218 C 
HETATM   20  C   UNL     1      39.486  -7.660  13.125  1.00  0.00     0.117 C 
HETATM   21  O   UNL     1      39.820  -9.884  12.362  1.00  0.00    -0.274 OA
HETATM   22  H   UNL     1      39.692  -7.157  10.708  1.00  0.00     0.169 HD
ENDBRANCH  15  18
ENDBRANCH   9  12
ENDBRANCH   1   8
BRANCH   2  23
HETATM   23  C   UNL     1      41.848 -14.680   2.926  1.00  0.00    -0.001 A 
HETATM   24  C   UNL     1      41.458 -15.977   3.330  1.00  0.00     0.076 A 
HETATM   25  C   UNL     1      42.135 -17.098   2.837  1.00  0.00     0.037 A 
HETATM   26  C   UNL     1      43.192 -16.950   1.939  1.00  0.00     0.003 A 
HETATM   27  C   UNL     1      43.574 -15.681   1.521  1.00  0.00     0.001 A 
HETATM   28  C   UNL     1      42.908 -14.556   2.008  1.00  0.00     0.012 A 
BRANCH  24  29
HETATM   29  O   UNL     1      40.410 -16.037   4.213  1.00  0.00    -0.355 OA
HETATM   30  C   UNL     1      40.697 -16.455   5.542  1.00  0.00     0.210 C 
ENDBRANCH  24  29
ENDBRANCH   2  23
BRANCH   3  31
HETATM   31  C   UNL     1      40.031 -12.213   1.634  1.00  0.00     0.038 A 
HETATM   32  C   UNL     1      40.153 -12.816   0.374  1.00  0.00     0.032 A 
HETATM   33  C   UNL     1      39.149 -12.696  -0.597  1.00  0.00     0.039 A 
HETATM   34  C   UNL     1      37.994 -11.962  -0.344  1.00  0.00     0.068 A 
HETATM   35  C   UNL     1      37.848 -11.360   0.899  1.00  0.00     0.039 A 
HETATM   36  C   UNL     1      38.855 -11.482   1.872  1.00  0.00     0.032 A 
BRANCH  34  37
HETATM   37  O   UNL     1      37.102 -11.910  -1.377  1.00  0.00    -0.356 OA
HETATM   38  C   UNL     1      37.309 -12.818  -2.451  1.00  0.00     0.210 C 
ENDBRANCH  34  37
ENDBRANCH   3  31
TORSDOF 7
ENDMDL
MODEL 3
REMARK VINA RESULT:      -7.8      9.070     12.789
REMARK  7 active torsions:
REMARK  status: ('A' for Active; 'I' for Inactive)
REMARK       I    between atoms: C_2  and  N_3 
REMARK    1  A    between atoms: N_3  and  C_4 
REMARK    2  A    between atoms: C_7  and  N_8 
REMARK       I    between atoms: N_8  and  C_9 
REMARK    3  A    between atoms: C_9  and  C_10 
REMARK    4  A    between atoms: C_11  and  C_12 
REMARK    5  A    between atoms: C_13  and  O_14 
REMARK    6  A    between atoms: N_20  and  C_21 
REMARK    7  A    between atoms: C_24  and  O_25 
ROOT
HETATM    1  C   UNL     1      42.620 -10.238  10.084  1.00  0.00     0.106 C 
HETATM    2  C   UNL     1      42.088  -9.001   9.344  1.00  0.00     0.142 C 
HETATM    3  N   UNL     1      43.096  -7.909   9.232  1.00  0.00    -0.308 N 
HETATM    4  C   UNL     1      44.442  -8.211   8.964  1.00  0.00     0.225 C 
HETATM    5  O   UNL     1      45.247  -7.431   8.455  1.00  0.00    -0.273 OA
HETATM    6  C   UNL     1      44.963  -9.551   9.453  1.00  0.00     0.104 C 
HETATM    7  C   UNL     1      43.961 -10.682   9.520  1.00  0.00     0.026 C 
ENDROOT
BRANCH   1   8
HETATM    8  C   UNL     1      42.690 -10.072  11.608  1.00  0.00     0.228 C 
HETATM    9  N   UNL     1      41.995  -8.992  12.117  1.00  0.00    -0.327 N 
HETATM   10  H   UNL     1      41.291  -8.565  11.525  1.00  0.00     0.169 HD
HETATM   11  O   UNL     1      43.416 -10.820  12.259  1.00  0.00    -0.273 OA
BRANCH   9  12
HETATM   12  C   UNL     1      42.166  -8.378  13.376  1.00  0.00     0.034 A 
HETATM   13  C   UNL     1      43.144  -7.426  13.656  1.00  0.00     0.032 A 
HETATM   14  C   UNL     1      43.182  -6.784  14.903  1.00  0.00     0.032 A 
HETATM   15  C   UNL     1      42.242  -7.082  15.887  1.00  0.00     0.034 A 
HETATM   16  C   UNL     1      41.280  -8.061  15.618  1.00  0.00     0.032 A 
HETATM   17  C   UNL     1      41.241  -8.702  14.373  1.00  0.00     0.032 A 
BRANCH  15  18
HETATM   18  N   UNL     1      42.179  -6.440  17.143  1.00  0.00    -0.328 N 
HETATM   19  C   UNL     1      41.687  -5.178  17.417  1.00  0.00     0.218 C 
HETATM   20  C   UNL     1      41.704  -4.847  18.890  1.00  0.00     0.117 C 
HETATM   21  O   UNL     1      41.243  -4.368  16.610  1.00  0.00    -0.274 OA
HETATM   22  H   UNL     1      42.500  -6.988  17.931  1.00  0.00     0.169 HD
ENDBRANCH  15  18
ENDBRANCH   9  12
ENDBRANCH   1   8
BRANCH   2  23
HETATM   23  C   UNL     1      41.480  -9.408   7.989  1.00  0.00    -0.001 A 
HETATM   24  C   UNL     1      40.085  -9.606   7.879  1.00  0.00     0.076 A 
HETATM   25  C   UNL     1      39.532 -10.043   6.670  1.00  0.00     0.037 A 
HETATM   26  C   UNL     1      40.347 -10.279   5.562  1.00  0.00     0.003 A 
HETATM   27  C   UNL     1      41.717 -10.072   5.653  1.00  0.00     0.001 A 
HETATM   28  C   UNL     1      42.280  -9.639   6.854  1.00  0.00     0.012 A 
BRANCH  24  29
HETATM   29  O   UNL     1      39.355  -9.351   9.012  1.00  0.00    -0.355 OA
HETATM   30  C   UNL     1      38.758 -10.462   9.671  1.00  0.00     0.210 C 
ENDBRANCH  24  29
ENDBRANCH   2  23
BRANCH   3  31
HETATM   31  C   UNL     1      42.622  -6.536   9.216  1.00  0.00     0.038 A 
HETATM   32  C   UNL     1      42.782  -5.700  10.331  1.00  0.00     0.032 A 
HETATM   33  C   UNL     1      42.265  -4.397  10.350  1.00  0.00     0.039 A 
HETATM   34  C   UNL     1      41.564  -3.889   9.260  1.00  0.00     0.068 A 
HETATM   35  C   UNL     1      41.399  -4.697   8.141  1.00  0.00     0.039 A 
HETATM   36  C   UNL     1      41.918  -6.003   8.124  1.00  0.00     0.032 A 
BRANCH  34  37
HETATM   37  O   UNL     1      41.101  -2.614   9.412  1.00  0.00    -0.356 OA
HETATM   38  C   UNL     1      41.840  -1.581   8.772  1.00  0.00     0.210 C 
ENDBRANCH  34  37
ENDBRANCH   3  31
TORSDOF 7
ENDMDL
MODEL 4
REMARK VINA RESULT:      -7.8      2.396      5.108
REMARK  7 active torsions:
REMARK  status: ('A' for Active; 'I' for Inactive)
REMARK       I    between atoms: C_2  and  N_3 
REMARK    1  A    between atoms: N_3  and  C_4 
REMARK    2  A    between atoms: C_7  and  N_8 
REMARK       I    between atoms: N_8  and  C_9 
REMARK    3  A    between atoms: C_9  and  C_10 
REMARK    4  A    between atoms: C_11  and  C_12 
REMARK    5  A    between atoms: C_13  and  O_14 
REMARK    6  A    between atoms: N_20  and  C_21 
REMARK    7  A    between atoms: C_24  and  O_25 
ROOT
HETATM    1  C   UNL     1      39.122 -12.581  -0.373  1.00  0.00     0.106 C 
HETATM    2  C   UNL     1      39.193 -11.087  -0.725  1.00  0.00     0.142 C 
HETATM    3  N   UNL     1      40.237 -10.778  -1.744  1.00  0.00    -0.308 N 
HETATM    4  C   UNL     1      40.444 -11.641  -2.832  1.00  0.00     0.225 C 
HETATM    5  O   UNL     1      40.946 -11.308  -3.906  1.00  0.00    -0.273 OA
HETATM    6  C   UNL     1      40.139 -13.113  -2.618  1.00  0.00     0.104 C 
HETATM    7  C   UNL     1      39.044 -13.440  -1.626  1.00  0.00     0.026 C 
ENDROOT
BRANCH   1   8
HETATM    8  C   UNL     1      40.247 -13.059   0.555  1.00  0.00     0.228 C 
HETATM    9  N   UNL     1      40.488 -14.420   0.539  1.00  0.00    -0.327 N 
HETATM   10  H   UNL     1      40.125 -14.951  -0.243  1.00  0.00     0.169 HD
HETATM   11  O   UNL     1      40.784 -12.251   1.309  1.00  0.00    -0.273 OA
BRANCH   9  12
HETATM   12  C   UNL     1      41.167 -15.182   1.513  1.00  0.00     0.034 A 
HETATM   13  C   UNL     1      40.587 -15.638   2.695  1.00  0.00     0.032 A 
HETATM   14  C   UNL     1      41.299 -16.480   3.563  1.00  0.00     0.032 A 
HETATM   15  C   UNL     1      42.599 -16.880   3.262  1.00  0.00     0.034 A 
HETATM   16  C   UNL     1      43.193 -16.396   2.091  1.00  0.00     0.032 A 
HETATM   17  C   UNL     1      42.484 -15.556   1.224  1.00  0.00     0.032 A 
BRANCH  15  18
HETATM   18  N   UNL     1      43.358 -17.769   4.053  1.00  0.00    -0.328 N 
HETATM   19  C   UNL     1      43.802 -19.032   3.707  1.00  0.00     0.218 C 
HETATM   20  C   UNL     1      44.657 -19.668   4.776  1.00  0.00     0.117 C 
HETATM   21  O   UNL     1      43.590 -19.626   2.655  1.00  0.00    -0.274 OA
HETATM   22  H   UNL     1      43.633 -17.420   4.962  1.00  0.00     0.169 HD
ENDBRANCH  15  18
ENDBRANCH   9  12
ENDBRANCH   1   8
BRANCH   2  23
HETATM   23  C   UNL     1      37.798 -10.559  -1.104  1.00  0.00    -0.001 A 
HETATM   24  C   UNL     1      36.933 -10.079  -0.095  1.00  0.00     0.076 A 
HETATM   25  C   UNL     1      35.638  -9.662  -0.422  1.00  0.00     0.037 A 
HETATM   26  C   UNL     1      35.191  -9.706  -1.742  1.00  0.00     0.003 A 
HETATM   27  C   UNL     1      36.037 -10.159  -2.746  1.00  0.00     0.001 A 
HETATM   28  C   UNL     1      37.330 -10.581  -2.432  1.00  0.00     0.012 A 
BRANCH  24  29
HETATM   29  O   UNL     1      37.449 -10.066   1.176  1.00  0.00    -0.355 OA
HETATM   30  C   UNL     1      37.591  -8.802   1.813  1.00  0.00     0.210 C 
ENDBRANCH  24  29
ENDBRANCH   2  23
BRANCH   3  31
HETATM   31  C   UNL     1      40.890  -9.482  -1.685  1.00  0.00     0.038 A 
HETATM   32  C   UNL     1      40.322  -8.355  -2.297  1.00  0.00     0.032 A 
HETATM   33  C   UNL     1      40.978  -7.116  -2.306  1.00  0.00     0.039 A 
HETATM   34  C   UNL     1      42.228  -6.964  -1.713  1.00  0.00     0.068 A 
HETATM   35  C   UNL     1      42.808  -8.065  -1.094  1.00  0.00     0.039 A 
HETATM   36  C   UNL     1      42.148  -9.306  -1.086  1.00  0.00     0.032 A 
BRANCH  34  37
HETATM   37  O   UNL     1      42.765  -5.712  -1.803  1.00  0.00    -0.356 OA
HETATM   38  C   UNL     1      44.117  -5.561  -1.393  1.00  0.00     0.210 C 
ENDBRANCH  34  37
ENDBRANCH   3  31
TORSDOF 7
ENDMDL
MODEL 5
REMARK VINA RESULT:      -7.7      2.868      6.367
REMARK  7 active torsions:
REMARK  status: ('A' for Active; 'I' for Inactive)
REMARK       I    between atoms: C_2  and  N_3 
REMARK    1  A    between atoms: N_3  and  C_4 
REMARK    2  A    between atoms: C_7  and  N_8 
REMARK       I    between atoms: N_8  and  C_9 
REMARK    3  A    between atoms: C_9  and  C_10 
REMARK    4  A    between atoms: C_11  and  C_12 
REMARK    5  A    between atoms: C_13  and  O_14 
REMARK    6  A    between atoms: N_20  and  C_21 
REMARK    7  A    between atoms: C_24  and  O_25 
ROOT
HETATM    1  C   UNL     1      40.535 -11.214   1.289  1.00  0.00     0.106 C 
HETATM    2  C   UNL     1      41.010 -12.646   0.994  1.00  0.00     0.142 C 
HETATM    3  N   UNL     1      40.619 -13.619   2.054  1.00  0.00    -0.308 N 
HETATM    4  C   UNL     1      39.354 -13.541   2.658  1.00  0.00     0.225 C 
HETATM    5  O   UNL     1      38.779 -14.481   3.207  1.00  0.00    -0.273 OA
HETATM    6  C   UNL     1      38.712 -12.167   2.747  1.00  0.00     0.104 C 
HETATM    7  C   UNL     1      39.057 -11.187   1.647  1.00  0.00     0.026 C 
ENDROOT
BRANCH   1   8
HETATM    8  C   UNL     1      41.374 -10.484   2.346  1.00  0.00     0.228 C 
HETATM    9  N   UNL     1      42.159 -11.295   3.142  1.00  0.00    -0.327 N 
HETATM   10  H   UNL     1      42.341 -12.237   2.816  1.00  0.00     0.169 HD
HETATM   11  O   UNL     1      41.230  -9.271   2.489  1.00  0.00    -0.273 OA
BRANCH   9  12
HETATM   12  C   UNL     1      42.728 -10.977   4.393  1.00  0.00     0.034 A 
HETATM   13  C   UNL     1      42.089 -10.221   5.373  1.00  0.00     0.032 A 
HETATM   14  C   UNL     1      42.679 -10.038   6.634  1.00  0.00     0.032 A 
HETATM   15  C   UNL     1      43.914 -10.609   6.933  1.00  0.00     0.034 A 
HETATM   16  C   UNL     1      44.570 -11.341   5.938  1.00  0.00     0.032 A 
HETATM   17  C   UNL     1      43.982 -11.525   4.680  1.00  0.00     0.032 A 
BRANCH  15  18
HETATM   18  N   UNL     1      44.544 -10.519   8.192  1.00  0.00    -0.328 N 
HETATM   19  C   UNL     1      45.191  -9.422   8.732  1.00  0.00     0.218 C 
HETATM   20  C   UNL     1      45.681  -9.662  10.140  1.00  0.00     0.117 C 
HETATM   21  O   UNL     1      45.362  -8.332   8.199  1.00  0.00    -0.274 OA
HETATM   22  H   UNL     1      44.480 -11.345   8.773  1.00  0.00     0.169 HD
ENDBRANCH  15  18
ENDBRANCH   9  12
ENDBRANCH   1   8
BRANCH   2  23
HETATM   23  C   UNL     1      40.571 -13.076  -0.417  1.00  0.00    -0.001 A 
HETATM   24  C   UNL     1      40.942 -12.293  -1.534  1.00  0.00     0.076 A 
HETATM   25  C   UNL     1      40.490 -12.638  -2.813  1.00  0.00     0.037 A 
HETATM   26  C   UNL     1      39.679 -13.758  -3.000  1.00  0.00     0.003 A 
HETATM   27  C   UNL     1      39.322 -14.545  -1.913  1.00  0.00     0.001 A 
HETATM   28  C   UNL     1      39.764 -14.209  -0.633  1.00  0.00     0.012 A 
BRANCH  24  29
HETATM   29  O   UNL     1      41.741 -11.212  -1.266  1.00  0.00    -0.355 OA
HETATM   30  C   UNL     1      41.473 -10.007  -1.975  1.00  0.00     0.210 C 
ENDBRANCH  24  29
ENDBRANCH   2  23
BRANCH   3  31
HETATM   31  C   UNL     1      41.495 -14.751   2.302  1.00  0.00     0.038 A 
HETATM   32  C   UNL     1      41.157 -16.040   1.865  1.00  0.00     0.032 A 
HETATM   33  C   UNL     1      41.961 -17.149   2.162  1.00  0.00     0.039 A 
HETATM   34  C   UNL     1      43.125 -17.010   2.912  1.00  0.00     0.068 A 
HETATM   35  C   UNL     1      43.485 -15.741   3.350  1.00  0.00     0.039 A 
HETATM   36  C   UNL     1      42.677 -14.630   3.052  1.00  0.00     0.032 A 
BRANCH  34  37
HETATM   37  O   UNL     1      43.809 -18.168   3.142  1.00  0.00    -0.356 OA
HETATM   38  C   UNL     1      43.415 -19.309   2.390  1.00  0.00     0.210 C 
ENDBRANCH  34  37
ENDBRANCH   3  31
TORSDOF 7
ENDMDL
MODEL 6
REMARK VINA RESULT:      -7.5      7.028      9.707
REMARK  7 active torsions:
REMARK  status: ('A' for Active; 'I' for Inactive)
REMARK       I    between atoms: C_2  and  N_3 
REMARK    1  A    between atoms: N_3  and  C_4 
REMARK    2  A    between atoms: C_7  and  N_8 
REMARK       I    between atoms: N_8  and  C_9 
REMARK    3  A    between atoms: C_9  and  C_10 
REMARK    4  A    between atoms: C_11  and  C_12 
REMARK    5  A    between atoms: C_13  and  O_14 
REMARK    6  A    between atoms: N_20  and  C_21 
REMARK    7  A    between atoms: C_24  and  O_25 
ROOT
HETATM    1  C   UNL     1      43.446  -8.667  11.317  1.00  0.00     0.106 C 
HETATM    2  C   UNL     1      42.342  -7.751  10.765  1.00  0.00     0.142 C 
HETATM    3  N   UNL     1      41.005  -8.407  10.726  1.00  0.00    -0.308 N 
HETATM    4  C   UNL     1      40.593  -9.242  11.778  1.00  0.00     0.225 C 
HETATM    5  O   UNL     1      39.421  -9.490  12.059  1.00  0.00    -0.273 OA
HETATM    6  C   UNL     1      41.677  -9.985  12.539  1.00  0.00     0.104 C 
HETATM    7  C   UNL     1      43.025  -9.305  12.632  1.00  0.00     0.026 C 
ENDROOT
BRANCH   1   8
HETATM    8  C   UNL     1      43.934  -9.727  10.321  1.00  0.00     0.228 C 
HETATM    9  N   UNL     1      43.863  -9.363   8.989  1.00  0.00    -0.327 N 
HETATM   10  H   UNL     1      43.767  -8.378   8.776  1.00  0.00     0.169 HD
HETATM   11  O   UNL     1      44.255 -10.838  10.738  1.00  0.00    -0.273 OA
BRANCH   9  12
HETATM   12  C   UNL     1      43.880 -10.216   7.866  1.00  0.00     0.034 A 
HETATM   13  C   UNL     1      44.954 -11.035   7.521  1.00  0.00     0.032 A 
HETATM   14  C   UNL     1      44.853 -11.934   6.448  1.00  0.00     0.032 A 
HETATM   15  C   UNL     1      43.678 -12.029   5.705  1.00  0.00     0.034 A 
HETATM   16  C   UNL     1      42.612 -11.184   6.031  1.00  0.00     0.032 A 
HETATM   17  C   UNL     1      42.711 -10.287   7.101  1.00  0.00     0.032 A 
BRANCH  15  18
HETATM   18  N   UNL     1      43.479 -12.946   4.651  1.00  0.00    -0.328 N 
HETATM   19  C   UNL     1      43.327 -12.661   3.307  1.00  0.00     0.218 C 
HETATM   20  C   UNL     1      43.212 -13.900   2.452  1.00  0.00     0.117 C 
HETATM   21  O   UNL     1      43.306 -11.552   2.786  1.00  0.00    -0.274 OA
HETATM   22  H   UNL     1      43.484 -13.923   4.915  1.00  0.00     0.169 HD
ENDBRANCH  15  18
ENDBRANCH   9  12
ENDBRANCH   1   8
BRANCH   2  23
HETATM   23  C   UNL     1      42.338  -6.406  11.514  1.00  0.00    -0.001 A 
HETATM   24  C   UNL     1      42.424  -5.198  10.786  1.00  0.00     0.076 A 
HETATM   25  C   UNL     1      42.491  -3.975  11.463  1.00  0.00     0.037 A 
HETATM   26  C   UNL     1      42.464  -3.933  12.856  1.00  0.00     0.003 A 
HETATM   27  C   UNL     1      42.362  -5.112  13.583  1.00  0.00     0.001 A 
HETATM   28  C   UNL     1      42.298  -6.338  12.920  1.00  0.00     0.012 A 
BRANCH  24  29
HETATM   29  O   UNL     1      42.444  -5.325   9.420  1.00  0.00    -0.355 OA
HETATM   30  C   UNL     1      41.577  -4.481   8.672  1.00  0.00     0.210 C 
ENDBRANCH  24  29
ENDBRANCH   2  23
BRANCH   3  31
HETATM   31  C   UNL     1      40.077  -8.012   9.680  1.00  0.00     0.038 A 
HETATM   32  C   UNL     1      40.049  -8.678   8.446  1.00  0.00     0.032 A 
HETATM   33  C   UNL     1      39.207  -8.259   7.406  1.00  0.00     0.039 A 
HETATM   34  C   UNL     1      38.372  -7.157   7.562  1.00  0.00     0.068 A 
HETATM   35  C   UNL     1      38.378  -6.485   8.778  1.00  0.00     0.039 A 
HETATM   36  C   UNL     1      39.222  -6.907   9.819  1.00  0.00     0.032 A 
BRANCH  34  37
HETATM   37  O   UNL     1      37.614  -6.845   6.470  1.00  0.00    -0.356 OA
HETATM   38  C   UNL     1      37.809  -7.635   5.304  1.00  0.00     0.210 C 
ENDBRANCH  34  37
ENDBRANCH   3  31
TORSDOF 7
ENDMDL
MODEL 7
REMARK VINA RESULT:      -7.5     16.698     20.381
REMARK  7 active torsions:
REMARK  status: ('A' for Active; 'I' for Inactive)
REMARK       I    between atoms: C_2  and  N_3 
REMARK    1  A    between atoms: N_3  and  C_4 
REMARK    2  A    between atoms: C_7  and  N_8 
REMARK       I    between atoms: N_8  and  C_9 
REMARK    3  A    between atoms: C_9  and  C_10 
REMARK    4  A    between atoms: C_11  and  C_12 
REMARK    5  A    between atoms: C_13  and  O_14 
REMARK    6  A    between atoms: N_20  and  C_21 
REMARK    7  A    between atoms: C_24  and  O_25 
ROOT
HETATM    1  C   UNL     1      45.872 -30.037  -1.016  1.00  0.00     0.106 C 
HETATM    2  C   UNL     1      46.081 -30.461   0.447  1.00  0.00     0.142 C 
HETATM    3  N   UNL     1      47.064 -29.603   1.167  1.00  0.00    -0.308 N 
HETATM    4  C   UNL     1      47.082 -28.214   0.958  1.00  0.00     0.225 C 
HETATM    5  O   UNL     1      47.528 -27.390   1.756  1.00  0.00    -0.273 OA
HETATM    6  C   UNL     1      46.633 -27.712  -0.403  1.00  0.00     0.104 C 
HETATM    7  C   UNL     1      45.595 -28.544  -1.122  1.00  0.00     0.026 C 
ENDROOT
BRANCH   1   8
HETATM    8  C   UNL     1      47.009 -30.456  -1.956  1.00  0.00     0.228 C 
HETATM    9  N   UNL     1      48.054 -31.131  -1.355  1.00  0.00    -0.327 N 
HETATM   10  H   UNL     1      47.888 -31.534  -0.441  1.00  0.00     0.169 HD
HETATM   11  O   UNL     1      46.979 -30.093  -3.131  1.00  0.00    -0.273 OA
BRANCH   9  12
HETATM   12  C   UNL     1      49.362 -31.308  -1.856  1.00  0.00     0.034 A 
HETATM   13  C   UNL     1      50.371 -30.352  -1.762  1.00  0.00     0.032 A 
HETATM   14  C   UNL     1      51.676 -30.645  -2.190  1.00  0.00     0.032 A 
HETATM   15  C   UNL     1      51.990 -31.896  -2.715  1.00  0.00     0.034 A 
HETATM   16  C   UNL     1      50.969 -32.844  -2.839  1.00  0.00     0.032 A 
HETATM   17  C   UNL     1      49.667 -32.554  -2.412  1.00  0.00     0.032 A 
BRANCH  15  18
HETATM   18  N   UNL     1      53.287 -32.286  -3.113  1.00  0.00    -0.328 N 
HETATM   19  C   UNL     1      54.303 -32.767  -2.309  1.00  0.00     0.218 C 
HETATM   20  C   UNL     1      55.535 -33.159  -3.089  1.00  0.00     0.117 C 
HETATM   21  O   UNL     1      54.274 -32.914  -1.092  1.00  0.00    -0.274 OA
HETATM   22  H   UNL     1      53.473 -32.237  -4.107  1.00  0.00     0.169 HD
ENDBRANCH  15  18
ENDBRANCH   9  12
ENDBRANCH   1   8
BRANCH   2  23
HETATM   23  C   UNL     1      44.727 -30.573   1.170  1.00  0.00    -0.001 A 
HETATM   24  C   UNL     1      43.896 -31.691   0.932  1.00  0.00     0.076 A 
HETATM   25  C   UNL     1      42.634 -31.768   1.532  1.00  0.00     0.037 A 
HETATM   26  C   UNL     1      42.187 -30.750   2.375  1.00  0.00     0.003 A 
HETATM   27  C   UNL     1      43.001 -29.654   2.631  1.00  0.00     0.001 A 
HETATM   28  C   UNL     1      44.260 -29.565   2.036  1.00  0.00     0.012 A 
BRANCH  24  29
HETATM   29  O   UNL     1      44.409 -32.647   0.093  1.00  0.00    -0.355 OA
HETATM   30  C   UNL     1      43.622 -33.023  -1.031  1.00  0.00     0.210 C 
ENDBRANCH  24  29
ENDBRANCH   2  23
BRANCH   3  31
HETATM   31  C   UNL     1      47.861 -30.209   2.220  1.00  0.00     0.038 A 
HETATM   32  C   UNL     1      47.343 -30.385   3.512  1.00  0.00     0.032 A 
HETATM   33  C   UNL     1      48.127 -30.903   4.552  1.00  0.00     0.039 A 
HETATM   34  C   UNL     1      49.456 -31.255   4.339  1.00  0.00     0.068 A 
HETATM   35  C   UNL     1      49.990 -31.097   3.065  1.00  0.00     0.039 A 
HETATM   36  C   UNL     1      49.202 -30.577   2.024  1.00  0.00     0.032 A 
BRANCH  34  37
HETATM   37  O   UNL     1      50.113 -31.734   5.436  1.00  0.00    -0.356 OA
HETATM   38  C   UNL     1      51.507 -31.469   5.518  1.00  0.00     0.210 C 
ENDBRANCH  34  37
ENDBRANCH   3  31
TORSDOF 7
ENDMDL
MODEL 8
REMARK VINA RESULT:      -7.5     10.605     13.872
REMARK  7 active torsions:
REMARK  status: ('A' for Active; 'I' for Inactive)
REMARK       I    between atoms: C_2  and  N_3 
REMARK    1  A    between atoms: N_3  and  C_4 
REMARK    2  A    between atoms: C_7  and  N_8 
REMARK       I    between atoms: N_8  and  C_9 
REMARK    3  A    between atoms: C_9  and  C_10 
REMARK    4  A    between atoms: C_11  and  C_12 
REMARK    5  A    between atoms: C_13  and  O_14 
REMARK    6  A    between atoms: N_20  and  C_21 
REMARK    7  A    between atoms: C_24  and  O_25 
ROOT
HETATM    1  C   UNL     1      39.446  -7.061  13.810  1.00  0.00     0.106 C 
HETATM    2  C   UNL     1      39.922  -5.609  13.646  1.00  0.00     0.142 C 
HETATM    3  N   UNL     1      39.686  -5.070  12.276  1.00  0.00    -0.308 N 
HETATM    4  C   UNL     1      38.498  -5.372  11.590  1.00  0.00     0.225 C 
HETATM    5  O   UNL     1      38.018  -4.689  10.685  1.00  0.00    -0.273 OA
HETATM    6  C   UNL     1      37.833  -6.700  11.906  1.00  0.00     0.104 C 
HETATM    7  C   UNL     1      38.020  -7.233  13.309  1.00  0.00     0.026 C 
ENDROOT
BRANCH   1   8
HETATM    8  C   UNL     1      40.382  -8.101  13.180  1.00  0.00     0.228 C 
HETATM    9  N   UNL     1      41.550  -7.595  12.642  1.00  0.00    -0.327 N 
HETATM   10  H   UNL     1      41.835  -6.666  12.929  1.00  0.00     0.169 HD
HETATM   11  O   UNL     1      40.010  -9.270  13.100  1.00  0.00    -0.273 OA
BRANCH   9  12
HETATM   12  C   UNL     1      42.399  -8.214  11.700  1.00  0.00     0.034 A 
HETATM   13  C   UNL     1      43.562  -8.906  12.032  1.00  0.00     0.032 A 
HETATM   14  C   UNL     1      44.296  -9.586  11.047  1.00  0.00     0.032 A 
HETATM   15  C   UNL     1      43.878  -9.585   9.718  1.00  0.00     0.034 A 
HETATM   16  C   UNL     1      42.728  -8.863   9.380  1.00  0.00     0.032 A 
HETATM   17  C   UNL     1      41.994  -8.185  10.362  1.00  0.00     0.032 A 
BRANCH  15  18
HETATM   18  N   UNL     1      44.527 -10.289   8.683  1.00  0.00    -0.328 N 
HETATM   19  C   UNL     1      45.627  -9.881   7.951  1.00  0.00     0.218 C 
HETATM   20  C   UNL     1      46.104 -10.928   6.972  1.00  0.00     0.117 C 
HETATM   21  O   UNL     1      46.222  -8.814   8.047  1.00  0.00    -0.274 OA
HETATM   22  H   UNL     1      44.161 -11.211   8.484  1.00  0.00     0.169 HD
ENDBRANCH  15  18
ENDBRANCH   9  12
ENDBRANCH   1   8
BRANCH   2  23
HETATM   23  C   UNL     1      39.333  -4.723  14.758  1.00  0.00    -0.001 A 
HETATM   24  C   UNL     1      40.059  -4.526  15.955  1.00  0.00     0.076 A 
HETATM   25  C   UNL     1      39.501  -3.779  16.998  1.00  0.00     0.037 A 
HETATM   26  C   UNL     1      38.232  -3.215  16.867  1.00  0.00     0.003 A 
HETATM   27  C   UNL     1      37.515  -3.387  15.689  1.00  0.00     0.001 A 
HETATM   28  C   UNL     1      38.060  -4.133  14.643  1.00  0.00     0.012 A 
BRANCH  24  29
HETATM   29  O   UNL     1      41.298  -5.111  16.004  1.00  0.00    -0.355 OA
HETATM   30  C   UNL     1      41.663  -5.773  17.210  1.00  0.00     0.210 C 
ENDBRANCH  24  29
ENDBRANCH   2  23
BRANCH   3  31
HETATM   31  C   UNL     1      40.616  -4.082  11.758  1.00  0.00     0.038 A 
HETATM   32  C   UNL     1      41.770  -4.467  11.060  1.00  0.00     0.032 A 
HETATM   33  C   UNL     1      42.709  -3.525  10.619  1.00  0.00     0.039 A 
HETATM   34  C   UNL     1      42.532  -2.167  10.867  1.00  0.00     0.068 A 
HETATM   35  C   UNL     1      41.393  -1.760  11.552  1.00  0.00     0.039 A 
HETATM   36  C   UNL     1      40.452  -2.707  11.993  1.00  0.00     0.032 A 
BRANCH  34  37
HETATM   37  O   UNL     1      43.525  -1.357  10.397  1.00  0.00    -0.356 OA
HETATM   38  C   UNL     1      43.188  -0.478   9.332  1.00  0.00     0.210 C 
ENDBRANCH  34  37
ENDBRANCH   3  31
TORSDOF 7
ENDMDL
MODEL 9
REMARK VINA RESULT:      -7.4      3.119      9.023
REMARK  7 active torsions:
REMARK  status: ('A' for Active; 'I' for Inactive)
REMARK       I    between atoms: C_2  and  N_3 
REMARK    1  A    between atoms: N_3  and  C_4 
REMARK    2  A    between atoms: C_7  and  N_8 
REMARK       I    between atoms: N_8  and  C_9 
REMARK    3  A    between atoms: C_9  and  C_10 
REMARK    4  A    between atoms: C_11  and  C_12 
REMARK    5  A    between atoms: C_13  and  O_14 
REMARK    6  A    between atoms: N_20  and  C_21 
REMARK    7  A    between atoms: C_24  and  O_25 
ROOT
HETATM    1  C   UNL     1      41.312 -13.305   2.907  1.00  0.00     0.106 C 
HETATM    2  C   UNL     1      42.224 -13.276   4.143  1.00  0.00     0.142 C 
HETATM    3  N   UNL     1      41.767 -12.311   5.183  1.00  0.00    -0.308 N 
HETATM    4  C   UNL     1      40.399 -12.171   5.469  1.00  0.00     0.225 C 
HETATM    5  O   UNL     1      39.944 -11.750   6.533  1.00  0.00    -0.273 OA
HETATM    6  C   UNL     1      39.423 -12.443   4.338  1.00  0.00     0.104 C 
HETATM    7  C   UNL     1      39.851 -13.461   3.304  1.00  0.00     0.026 C 
ENDROOT
BRANCH   1   8
HETATM    8  C   UNL     1      41.502 -12.111   1.962  1.00  0.00     0.228 C 
HETATM    9  N   UNL     1      40.564 -12.001   0.953  1.00  0.00    -0.327 N 
HETATM   10  H   UNL     1      39.698 -12.515   1.060  1.00  0.00     0.169 HD
HETATM   11  O   UNL     1      42.500 -11.403   2.086  1.00  0.00    -0.273 OA
BRANCH   9  12
HETATM   12  C   UNL     1      40.677 -11.266  -0.246  1.00  0.00     0.034 A 
HETATM   13  C   UNL     1      41.027 -11.823  -1.475  1.00  0.00     0.032 A 
HETATM   14  C   UNL     1      41.014 -11.045  -2.643  1.00  0.00     0.032 A 
HETATM   15  C   UNL     1      40.650  -9.701  -2.600  1.00  0.00     0.034 A 
HETATM   16  C   UNL     1      40.330  -9.134  -1.362  1.00  0.00     0.032 A 
HETATM   17  C   UNL     1      40.342  -9.909  -0.196  1.00  0.00     0.032 A 
BRANCH  15  18
HETATM   18  N   UNL     1      40.557  -8.869  -3.736  1.00  0.00    -0.328 N 
HETATM   19  C   UNL     1      41.485  -7.944  -4.179  1.00  0.00     0.218 C 
HETATM   20  C   UNL     1      41.087  -7.287  -5.479  1.00  0.00     0.117 C 
HETATM   21  O   UNL     1      42.549  -7.654  -3.644  1.00  0.00    -0.274 OA
HETATM   22  H   UNL     1      39.729  -8.996  -4.305  1.00  0.00     0.169 HD
ENDBRANCH  15  18
ENDBRANCH   9  12
ENDBRANCH   1   8
BRANCH   2  23
HETATM   23  C   UNL     1      42.435 -14.701   4.686  1.00  0.00    -0.001 A 
HETATM   24  C   UNL     1      43.112 -15.658   3.897  1.00  0.00     0.076 A 
HETATM   25  C   UNL     1      43.248 -16.974   4.354  1.00  0.00     0.037 A 
HETATM   26  C   UNL     1      42.726 -17.352   5.591  1.00  0.00     0.003 A 
HETATM   27  C   UNL     1      42.074 -16.417   6.384  1.00  0.00     0.001 A 
HETATM   28  C   UNL     1      41.930 -15.102   5.938  1.00  0.00     0.012 A 
BRANCH  24  29
HETATM   29  O   UNL     1      43.596 -15.206   2.696  1.00  0.00    -0.355 OA
HETATM   30  C   UNL     1      43.327 -15.995   1.543  1.00  0.00     0.210 C 
ENDBRANCH  24  29
ENDBRANCH   2  23
BRANCH   3  31
HETATM   31  C   UNL     1      42.772 -11.671   6.014  1.00  0.00     0.038 A 
HETATM   32  C   UNL     1      43.998 -12.297   6.282  1.00  0.00     0.032 A 
HETATM   33  C   UNL     1      44.945 -11.719   7.139  1.00  0.00     0.039 A 
HETATM   34  C   UNL     1      44.694 -10.502   7.765  1.00  0.00     0.068 A 
HETATM   35  C   UNL     1      43.489  -9.859   7.510  1.00  0.00     0.039 A 
HETATM   36  C   UNL     1      42.541 -10.440   6.650  1.00  0.00     0.032 A 
BRANCH  34  37
HETATM   37  O   UNL     1      45.690 -10.056   8.586  1.00  0.00    -0.356 OA
HETATM   38  C   UNL     1      45.349  -9.829   9.947  1.00  0.00     0.210 C 
ENDBRANCH  34  37
ENDBRANCH   3  31
TORSDOF 7
ENDMDL
MODEL 10
REMARK VINA RESULT:      -7.3     11.101     14.057
REMARK  7 active torsions:
REMARK  status: ('A' for Active; 'I' for Inactive)
REMARK       I    between atoms: C_2  and  N_3 
REMARK    1  A    between atoms: N_3  and  C_4 
REMARK    2  A    between atoms: C_7  and  N_8 
REMARK       I    between atoms: N_8  and  C_9 
REMARK    3  A    between atoms: C_9  and  C_10 
REMARK    4  A    between atoms: C_11  and  C_12 
REMARK    5  A    between atoms: C_13  and  O_14 
REMARK    6  A    between atoms: N_20  and  C_21 
REMARK    7  A    between atoms: C_24  and  O_25 
ROOT
HETATM    1  C   UNL     1      40.651  -6.414  12.680  1.00  0.00     0.106 C 
HETATM    2  C   UNL     1      41.402  -6.885  11.425  1.00  0.00     0.142 C 
HETATM    3  N   UNL     1      41.239  -8.343  11.161  1.00  0.00    -0.308 N 
HETATM    4  C   UNL     1      39.996  -8.966  11.360  1.00  0.00     0.225 C 
HETATM    5  O   UNL     1      39.636 -10.006  10.809  1.00  0.00    -0.273 OA
HETATM    6  C   UNL     1      39.089  -8.377  12.426  1.00  0.00     0.104 C 
HETATM    7  C   UNL     1      39.205  -6.888  12.667  1.00  0.00     0.026 C 
ENDROOT
BRANCH   1   8
HETATM    8  C   UNL     1      41.342  -6.786  13.998  1.00  0.00     0.228 C 
HETATM    9  N   UNL     1      40.536  -6.745  15.120  1.00  0.00    -0.327 N 
HETATM   10  H   UNL     1      39.533  -6.750  14.977  1.00  0.00     0.169 HD
HETATM   11  O   UNL     1      42.554  -6.992  14.000  1.00  0.00    -0.273 OA
BRANCH   9  12
HETATM   12  C   UNL     1      40.946  -6.669  16.468  1.00  0.00     0.034 A 
HETATM   13  C   UNL     1      40.988  -7.759  17.335  1.00  0.00     0.032 A 
HETATM   14  C   UNL     1      41.508  -7.621  18.632  1.00  0.00     0.032 A 
HETATM   15  C   UNL     1      41.995  -6.395  19.079  1.00  0.00     0.034 A 
HETATM   16  C   UNL     1      41.923  -5.294  18.219  1.00  0.00     0.032 A 
HETATM   17  C   UNL     1      41.404  -5.430  16.925  1.00  0.00     0.032 A 
BRANCH  15  18
HETATM   18  N   UNL     1      42.585  -6.190  20.344  1.00  0.00    -0.328 N 
HETATM   19  C   UNL     1      43.839  -6.595  20.762  1.00  0.00     0.218 C 
HETATM   20  C   UNL     1      44.170  -6.133  22.161  1.00  0.00     0.117 C 
HETATM   21  O   UNL     1      44.660  -7.236  20.116  1.00  0.00    -0.274 OA
HETATM   22  H   UNL     1      42.032  -5.655  21.002  1.00  0.00     0.169 HD
ENDBRANCH  15  18
ENDBRANCH   9  12
ENDBRANCH   1   8
BRANCH   2  23
HETATM   23  C   UNL     1      41.034  -6.004  10.218  1.00  0.00    -0.001 A 
HETATM   24  C   UNL     1      41.705  -4.776  10.016  1.00  0.00     0.076 A 
HETATM   25  C   UNL     1      41.329  -3.936   8.961  1.00  0.00     0.037 A 
HETATM   26  C   UNL     1      40.298  -4.304   8.096  1.00  0.00     0.003 A 
HETATM   27  C   UNL     1      39.643  -5.515   8.273  1.00  0.00     0.001 A 
HETATM   28  C   UNL     1      40.007  -6.359   9.322  1.00  0.00     0.012 A 
BRANCH  24  29
HETATM   29  O   UNL     1      42.706  -4.490  10.909  1.00  0.00    -0.355 OA
HETATM   30  C   UNL     1      43.202  -3.157  10.931  1.00  0.00     0.210 C 
ENDBRANCH  24  29
ENDBRANCH   2  23
BRANCH   3  31
HETATM   31  C   UNL     1      42.333  -9.050  10.517  1.00  0.00     0.038 A 
HETATM   32  C   UNL     1      43.450  -9.480  11.248  1.00  0.00     0.032 A 
HETATM   33  C   UNL     1      44.541 -10.099  10.624  1.00  0.00     0.039 A 
HETATM   34  C   UNL     1      44.557 -10.302   9.247  1.00  0.00     0.068 A 
HETATM   35  C   UNL     1      43.459  -9.891   8.502  1.00  0.00     0.039 A 
HETATM   36  C   UNL     1      42.366  -9.270   9.130  1.00  0.00     0.032 A 
BRANCH  34  37
HETATM   37  O   UNL     1      45.684 -10.903   8.763  1.00  0.00    -0.356 OA
HETATM   38  C   UNL     1      45.862 -10.892   7.352  1.00  0.00     0.210 C 
ENDBRANCH  34  37
ENDBRANCH   3  31
TORSDOF 7
ENDMDL
