MODEL 1
REMARK VINA RESULT:      -8.4      0.000      0.000
REMARK  5 active torsions:
REMARK  status: ('A' for Active; 'I' for Inactive)
REMARK    1  A    between atoms: C_2  and  O_3 
REMARK    2  A    between atoms: C_2  and  C_4 
REMARK    3  A    between atoms: C_7  and  N_8 
REMARK    4  A    between atoms: N_12  and  C_13 
REMARK    5  A    between atoms: C_13  and  C_14 
ROOT
HETATM    1  N   UNL     1      44.161 -12.206   6.448  1.00  0.00    -0.367 N 
HETATM    2  C   UNL     1      43.753 -13.533   6.952  1.00  0.00     0.127 C 
HETATM    3  C   UNL     1      43.478 -14.512   5.821  1.00  0.00     0.057 C 
HETATM    4  C   UNL     1      42.454 -14.024   4.769  1.00  0.00     0.075 C 
HETATM    5  N   UNL     1      40.999 -14.079   5.181  1.00  0.00    -0.398 N 
HETATM    6  C   UNL     1      40.509 -15.450   5.489  1.00  0.00     0.124 C 
HETATM    7  C   UNL     1      40.514 -16.377   4.247  1.00  0.00     0.078 C 
HETATM    8  C   UNL     1      41.678 -16.065   3.407  1.00  0.00     0.037 A 
HETATM    9  C   UNL     1      42.545 -15.007   3.597  1.00  0.00     0.061 A 
HETATM   10  N   UNL     1      43.472 -15.097   2.569  1.00  0.00    -0.352 N 
HETATM   11  H   UNL     1      44.262 -14.478   2.412  1.00  0.00     0.166 HD
HETATM   12  C   UNL     1      43.179 -16.126   1.759  1.00  0.00     0.181 A 
HETATM   13  N   UNL     1      42.099 -16.723   2.270  1.00  0.00    -0.354 N 
HETATM   14  H   UNL     1      41.646 -17.537   1.858  1.00  0.00     0.166 HD
HETATM   15  C   UNL     1      42.937 -12.632   4.289  1.00  0.00     0.057 C 
HETATM   16  C   UNL     1      43.314 -11.634   5.388  1.00  0.00     0.127 C 
ENDROOT
BRANCH   5  17
HETATM   17  C   UNL     1      40.467 -13.034   6.060  1.00  0.00     0.122 C 
BRANCH  17  18
HETATM   18  C   UNL     1      39.360 -12.100   5.505  1.00  0.00    -0.005 C 
HETATM   19  C   UNL     1      39.637 -10.661   5.957  1.00  0.00     0.011 C 
HETATM   20  C   UNL     1      39.272 -12.149   3.978  1.00  0.00     0.011 C 
ENDBRANCH  17  18
ENDBRANCH   5  17
BRANCH   1  21
HETATM   21  C   UNL     1      44.582 -11.309   7.459  1.00  0.00     0.103 A 
HETATM   22  N   UNL     1      43.914 -11.197   8.620  1.00  0.00    -0.344 N 
HETATM   23  C   UNL     1      44.270 -10.411   9.654  1.00  0.00     0.039 A 
HETATM   24  H   UNL     1      43.055 -11.719   8.800  1.00  0.00     0.167 HD
HETATM   25  C   UNL     1      45.388  -9.598   9.549  1.00  0.00     0.028 A 
HETATM   26  C   UNL     1      46.102  -9.614   8.362  1.00  0.00     0.006 A 
HETATM   27  C   UNL     1      45.700 -10.455   7.321  1.00  0.00     0.048 A 
BRANCH  23  28
HETATM   28  C   UNL     1      43.382 -10.506  10.862  1.00  0.00     0.163 C 
HETATM   29  C   UNL     1      43.505  -9.293  11.772  1.00  0.00     0.046 C 
BRANCH  28  30
HETATM   30  O   UNL     1      43.850 -11.666  11.578  1.00  0.00    -0.390 OA
HETATM   31  H   UNL     1      43.779 -12.419  10.951  1.00  0.00     0.210 HD
ENDBRANCH  28  30
ENDBRANCH  23  28
ENDBRANCH   1  21
TORSDOF 5
ENDMDL
MODEL 2
REMARK VINA RESULT:      -8.3      4.628      7.249
REMARK  5 active torsions:
REMARK  status: ('A' for Active; 'I' for Inactive)
REMARK    1  A    between atoms: C_2  and  O_3 
REMARK    2  A    between atoms: C_2  and  C_4 
REMARK    3  A    between atoms: C_7  and  N_8 
REMARK    4  A    between atoms: N_12  and  C_13 
REMARK    5  A    between atoms: C_13  and  C_14 
ROOT
HETATM    1  N   UNL     1      42.373 -16.070   2.654  1.00  0.00    -0.367 N 
HETATM    2  C   UNL     1      40.899 -16.001   2.695  1.00  0.00     0.127 C 
HETATM    3  C   UNL     1      40.345 -15.030   1.663  1.00  0.00     0.057 C 
HETATM    4  C   UNL     1      40.929 -13.599   1.732  1.00  0.00     0.075 C 
HETATM    5  N   UNL     1      40.409 -12.721   2.850  1.00  0.00    -0.398 N 
HETATM    6  C   UNL     1      38.945 -12.463   2.784  1.00  0.00     0.124 C 
HETATM    7  C   UNL     1      38.540 -11.644   1.534  1.00  0.00     0.078 C 
HETATM    8  C   UNL     1      39.378 -12.041   0.394  1.00  0.00     0.037 A 
HETATM    9  C   UNL     1      40.467 -12.888   0.455  1.00  0.00     0.061 A 
HETATM   10  N   UNL     1      40.953 -12.963  -0.841  1.00  0.00    -0.352 N 
HETATM   11  H   UNL     1      41.747 -13.512  -1.158  1.00  0.00     0.166 HD
HETATM   12  C   UNL     1      40.237 -12.178  -1.659  1.00  0.00     0.181 A 
HETATM   13  N   UNL     1      39.273 -11.626  -0.917  1.00  0.00    -0.354 N 
HETATM   14  H   UNL     1      38.576 -10.974  -1.275  1.00  0.00     0.166 HD
HETATM   15  C   UNL     1      42.471 -13.745   1.690  1.00  0.00     0.057 C 
HETATM   16  C   UNL     1      43.077 -14.776   2.647  1.00  0.00     0.127 C 
ENDROOT
BRANCH   5  17
HETATM   17  C   UNL     1      40.932 -12.908   4.205  1.00  0.00     0.122 C 
BRANCH  17  18
HETATM   18  C   UNL     1      39.921 -13.157   5.355  1.00  0.00    -0.005 C 
HETATM   19  C   UNL     1      40.374 -14.372   6.175  1.00  0.00     0.011 C 
HETATM   20  C   UNL     1      39.780 -11.943   6.275  1.00  0.00     0.011 C 
ENDBRANCH  17  18
ENDBRANCH   5  17
BRANCH   1  21
HETATM   21  C   UNL     1      42.928 -17.075   3.482  1.00  0.00     0.103 A 
HETATM   22  N   UNL     1      43.309 -18.264   2.983  1.00  0.00    -0.344 N 
HETATM   23  C   UNL     1      43.890 -19.256   3.683  1.00  0.00     0.039 A 
HETATM   24  H   UNL     1      43.171 -18.505   2.000  1.00  0.00     0.167 HD
HETATM   25  C   UNL     1      44.102 -19.106   5.045  1.00  0.00     0.028 A 
HETATM   26  C   UNL     1      43.689 -17.929   5.648  1.00  0.00     0.006 A 
HETATM   27  C   UNL     1      43.098 -16.924   4.876  1.00  0.00     0.048 A 
BRANCH  23  28
HETATM   28  C   UNL     1      44.268 -20.467   2.880  1.00  0.00     0.163 C 
HETATM   29  C   UNL     1      43.474 -20.581   1.588  1.00  0.00     0.046 C 
BRANCH  28  30
HETATM   30  O   UNL     1      43.938 -21.590   3.722  1.00  0.00    -0.390 OA
HETATM   31  H   UNL     1      44.040 -21.276   4.647  1.00  0.00     0.210 HD
ENDBRANCH  28  30
ENDBRANCH  23  28
ENDBRANCH   1  21
TORSDOF 5
ENDMDL
MODEL 3
REMARK VINA RESULT:      -8.3      5.162      8.084
REMARK  5 active torsions:
REMARK  status: ('A' for Active; 'I' for Inactive)
REMARK    1  A    between atoms: C_2  and  O_3 
REMARK    2  A    between atoms: C_2  and  C_4 
REMARK    3  A    between atoms: C_7  and  N_8 
REMARK    4  A    between atoms: N_12  and  C_13 
REMARK    5  A    between atoms: C_13  and  C_14 
ROOT
HETATM    1  N   UNL     1      41.135 -14.762   0.760  1.00  0.00    -0.367 N 
HETATM    2  C   UNL     1      42.448 -14.437   1.354  1.00  0.00     0.127 C 
HETATM    3  C   UNL     1      43.143 -15.670   1.911  1.00  0.00     0.057 C 
HETATM    4  C   UNL     1      42.307 -16.489   2.924  1.00  0.00     0.075 C 
HETATM    5  N   UNL     1      42.199 -15.910   4.319  1.00  0.00    -0.398 N 
HETATM    6  C   UNL     1      43.505 -15.773   5.020  1.00  0.00     0.124 C 
HETATM    7  C   UNL     1      44.174 -17.140   5.304  1.00  0.00     0.078 C 
HETATM    8  C   UNL     1      43.908 -18.059   4.188  1.00  0.00     0.037 A 
HETATM    9  C   UNL     1      43.059 -17.809   3.128  1.00  0.00     0.061 A 
HETATM   10  N   UNL     1      43.108 -18.947   2.337  1.00  0.00    -0.352 N 
HETATM   11  H   UNL     1      42.609 -19.098   1.465  1.00  0.00     0.166 HD
HETATM   12  C   UNL     1      43.908 -19.871   2.889  1.00  0.00     0.181 A 
HETATM   13  N   UNL     1      44.404 -19.333   4.006  1.00  0.00    -0.354 N 
HETATM   14  H   UNL     1      45.043 -19.813   4.639  1.00  0.00     0.166 HD
HETATM   15  C   UNL     1      40.949 -16.790   2.243  1.00  0.00     0.057 C 
HETATM   16  C   UNL     1      40.246 -15.598   1.585  1.00  0.00     0.127 C 
ENDROOT
BRANCH   5  17
HETATM   17  C   UNL     1      41.262 -14.810   4.563  1.00  0.00     0.122 C 
BRANCH  17  18
HETATM   18  C   UNL     1      40.830 -14.524   6.025  1.00  0.00    -0.005 C 
HETATM   19  C   UNL     1      39.931 -13.281   6.054  1.00  0.00     0.011 C 
HETATM   20  C   UNL     1      40.089 -15.706   6.653  1.00  0.00     0.011 C 
ENDBRANCH  17  18
ENDBRANCH   5  17
BRANCH   1  21
HETATM   21  C   UNL     1      40.521 -13.680   0.086  1.00  0.00     0.103 A 
HETATM   22  N   UNL     1      39.543 -13.878  -0.814  1.00  0.00    -0.344 N 
HETATM   23  C   UNL     1      38.870 -12.909  -1.463  1.00  0.00     0.039 A 
HETATM   24  H   UNL     1      39.237 -14.815  -1.080  1.00  0.00     0.167 HD
HETATM   25  C   UNL     1      39.200 -11.580  -1.252  1.00  0.00     0.028 A 
HETATM   26  C   UNL     1      40.235 -11.292  -0.377  1.00  0.00     0.006 A 
HETATM   27  C   UNL     1      40.898 -12.332   0.281  1.00  0.00     0.048 A 
BRANCH  23  28
HETATM   28  C   UNL     1      37.785 -13.393  -2.382  1.00  0.00     0.163 C 
HETATM   29  C   UNL     1      38.270 -14.466  -3.344  1.00  0.00     0.046 C 
BRANCH  28  30
HETATM   30  O   UNL     1      37.399 -12.233  -3.146  1.00  0.00    -0.390 OA
HETATM   31  H   UNL     1      37.364 -12.524  -4.083  1.00  0.00     0.210 HD
ENDBRANCH  28  30
ENDBRANCH  23  28
ENDBRANCH   1  21
TORSDOF 5
ENDMDL
MODEL 4
REMARK VINA RESULT:      -8.3      1.885      3.091
REMARK  5 active torsions:
REMARK  status: ('A' for Active; 'I' for Inactive)
REMARK    1  A    between atoms: C_2  and  O_3 
REMARK    2  A    between atoms: C_2  and  C_4 
REMARK    3  A    between atoms: C_7  and  N_8 
REMARK    4  A    between atoms: N_12  and  C_13 
REMARK    5  A    between atoms: C_13  and  C_14 
ROOT
HETATM    1  N   UNL     1      43.067 -11.510   5.676  1.00  0.00    -0.367 N 
HETATM    2  C   UNL     1      43.758 -11.925   4.439  1.00  0.00     0.127 C 
HETATM    3  C   UNL     1      42.783 -12.165   3.296  1.00  0.00     0.057 C 
HETATM    4  C   UNL     1      41.642 -13.163   3.608  1.00  0.00     0.075 C 
HETATM    5  N   UNL     1      42.020 -14.629   3.605  1.00  0.00    -0.398 N 
HETATM    6  C   UNL     1      42.522 -15.121   2.293  1.00  0.00     0.124 C 
HETATM    7  C   UNL     1      41.438 -15.079   1.188  1.00  0.00     0.078 C 
HETATM    8  C   UNL     1      40.590 -13.893   1.376  1.00  0.00     0.037 A 
HETATM    9  C   UNL     1      40.638 -13.036   2.457  1.00  0.00     0.061 A 
HETATM   10  N   UNL     1      39.661 -12.081   2.218  1.00  0.00    -0.352 N 
HETATM   11  H   UNL     1      39.432 -11.289   2.813  1.00  0.00     0.166 HD
HETATM   12  C   UNL     1      39.011 -12.348   1.075  1.00  0.00     0.181 A 
HETATM   13  N   UNL     1      39.579 -13.438   0.555  1.00  0.00    -0.354 N 
HETATM   14  H   UNL     1      39.285 -13.877  -0.317  1.00  0.00     0.166 HD
HETATM   15  C   UNL     1      40.967 -12.673   4.914  1.00  0.00     0.057 C 
HETATM   16  C   UNL     1      41.909 -12.329   6.072  1.00  0.00     0.127 C 
ENDROOT
BRANCH   5  17
HETATM   17  C   UNL     1      42.713 -15.188   4.768  1.00  0.00     0.122 C 
BRANCH  17  18
HETATM   18  C   UNL     1      41.981 -16.263   5.613  1.00  0.00    -0.005 C 
HETATM   19  C   UNL     1      42.164 -15.948   7.103  1.00  0.00     0.011 C 
HETATM   20  C   UNL     1      40.489 -16.340   5.286  1.00  0.00     0.011 C 
ENDBRANCH  17  18
ENDBRANCH   5  17
BRANCH   1  21
HETATM   21  C   UNL     1      43.938 -11.119   6.721  1.00  0.00     0.103 A 
HETATM   22  N   UNL     1      43.474 -10.820   7.947  1.00  0.00    -0.344 N 
HETATM   23  C   UNL     1      44.230 -10.490   9.010  1.00  0.00     0.039 A 
HETATM   24  H   UNL     1      42.475 -10.817   8.158  1.00  0.00     0.167 HD
HETATM   25  C   UNL     1      45.606 -10.399   8.876  1.00  0.00     0.028 A 
HETATM   26  C   UNL     1      46.162 -10.640   7.630  1.00  0.00     0.006 A 
HETATM   27  C   UNL     1      45.336 -10.989   6.557  1.00  0.00     0.048 A 
BRANCH  23  28
HETATM   28  C   UNL     1      43.470 -10.250  10.284  1.00  0.00     0.163 C 
HETATM   29  C   UNL     1      44.076  -9.136  11.122  1.00  0.00     0.046 C 
BRANCH  28  30
HETATM   30  O   UNL     1      43.575 -11.486  11.018  1.00  0.00    -0.390 OA
HETATM   31  H   UNL     1      42.703 -11.929  10.930  1.00  0.00     0.210 HD
ENDBRANCH  28  30
ENDBRANCH  23  28
ENDBRANCH   1  21
TORSDOF 5
ENDMDL
MODEL 5
REMARK VINA RESULT:      -8.2      4.333      8.485
REMARK  5 active torsions:
REMARK  status: ('A' for Active; 'I' for Inactive)
REMARK    1  A    between atoms: C_2  and  O_3 
REMARK    2  A    between atoms: C_2  and  C_4 
REMARK    3  A    between atoms: C_7  and  N_8 
REMARK    4  A    between atoms: N_12  and  C_13 
REMARK    5  A    between atoms: C_13  and  C_14 
ROOT
HETATM    1  N   UNL     1      40.148 -12.770   1.831  1.00  0.00    -0.367 N 
HETATM    2  C   UNL     1      39.416 -13.309   2.995  1.00  0.00     0.127 C 
HETATM    3  C   UNL     1      40.241 -13.232   4.271  1.00  0.00     0.057 C 
HETATM    4  C   UNL     1      41.637 -13.893   4.188  1.00  0.00     0.075 C 
HETATM    5  N   UNL     1      41.661 -15.406   4.255  1.00  0.00    -0.398 N 
HETATM    6  C   UNL     1      41.119 -15.964   5.523  1.00  0.00     0.124 C 
HETATM    7  C   UNL     1      41.979 -15.587   6.755  1.00  0.00     0.078 C 
HETATM    8  C   UNL     1      42.504 -14.224   6.589  1.00  0.00     0.037 A 
HETATM    9  C   UNL     1      42.392 -13.455   5.448  1.00  0.00     0.061 A 
HETATM   10  N   UNL     1      43.038 -12.262   5.739  1.00  0.00    -0.352 N 
HETATM   11  H   UNL     1      43.135 -11.462   5.121  1.00  0.00     0.166 HD
HETATM   12  C   UNL     1      43.559 -12.298   6.975  1.00  0.00     0.181 A 
HETATM   13  N   UNL     1      43.228 -13.481   7.499  1.00  0.00    -0.354 N 
HETATM   14  H   UNL     1      43.495 -13.790   8.432  1.00  0.00     0.166 HD
HETATM   15  C   UNL     1      42.344 -13.290   2.949  1.00  0.00     0.057 C 
HETATM   16  C   UNL     1      41.526 -13.260   1.654  1.00  0.00     0.127 C 
ENDROOT
BRANCH   5  17
HETATM   17  C   UNL     1      41.318 -16.177   3.057  1.00  0.00     0.122 C 
BRANCH  17  18
HETATM   18  C   UNL     1      42.400 -17.106   2.446  1.00  0.00    -0.005 C 
HETATM   19  C   UNL     1      43.222 -16.319   1.418  1.00  0.00     0.011 C 
HETATM   20  C   UNL     1      43.333 -17.687   3.510  1.00  0.00     0.011 C 
ENDBRANCH  17  18
ENDBRANCH   5  17
BRANCH   1  21
HETATM   21  C   UNL     1      39.368 -12.671   0.653  1.00  0.00     0.103 A 
HETATM   22  N   UNL     1      39.486 -13.566  -0.343  1.00  0.00    -0.344 N 
HETATM   23  C   UNL     1      38.753 -13.581  -1.472  1.00  0.00     0.039 A 
HETATM   24  H   UNL     1      40.173 -14.322  -0.310  1.00  0.00     0.167 HD
HETATM   25  C   UNL     1      37.810 -12.590  -1.694  1.00  0.00     0.028 A 
HETATM   26  C   UNL     1      37.663 -11.597  -0.738  1.00  0.00     0.006 A 
HETATM   27  C   UNL     1      38.441 -11.630   0.423  1.00  0.00     0.048 A 
BRANCH  23  28
HETATM   28  C   UNL     1      39.044 -14.719  -2.407  1.00  0.00     0.163 C 
HETATM   29  C   UNL     1      38.182 -14.680  -3.659  1.00  0.00     0.046 C 
BRANCH  28  30
HETATM   30  O   UNL     1      38.716 -15.908  -1.661  1.00  0.00    -0.390 OA
HETATM   31  H   UNL     1      37.794 -16.138  -1.908  1.00  0.00     0.210 HD
ENDBRANCH  28  30
ENDBRANCH  23  28
ENDBRANCH   1  21
TORSDOF 5
ENDMDL
MODEL 6
REMARK VINA RESULT:      -8.1      4.542      7.785
REMARK  5 active torsions:
REMARK  status: ('A' for Active; 'I' for Inactive)
REMARK    1  A    between atoms: C_2  and  O_3 
REMARK    2  A    between atoms: C_2  and  C_4 
REMARK    3  A    between atoms: C_7  and  N_8 
REMARK    4  A    between atoms: N_12  and  C_13 
REMARK    5  A    between atoms: C_13  and  C_14 
ROOT
HETATM    1  N   UNL     1      41.280 -14.792   0.974  1.00  0.00    -0.367 N 
HETATM    2  C   UNL     1      42.664 -14.655   1.472  1.00  0.00     0.127 C 
HETATM    3  C   UNL     1      43.256 -15.994   1.885  1.00  0.00     0.057 C 
HETATM    4  C   UNL     1      42.416 -16.792   2.911  1.00  0.00     0.075 C 
HETATM    5  N   UNL     1      42.485 -16.310   4.344  1.00  0.00    -0.398 N 
HETATM    6  C   UNL     1      43.849 -16.368   4.937  1.00  0.00     0.124 C 
HETATM    7  C   UNL     1      44.379 -17.817   5.072  1.00  0.00     0.078 C 
HETATM    8  C   UNL     1      43.923 -18.615   3.926  1.00  0.00     0.037 A 
HETATM    9  C   UNL     1      43.027 -18.197   2.962  1.00  0.00     0.061 A 
HETATM   10  N   UNL     1      42.884 -19.271   2.096  1.00  0.00    -0.352 N 
HETATM   11  H   UNL     1      42.304 -19.302   1.263  1.00  0.00     0.166 HD
HETATM   12  C   UNL     1      43.615 -20.315   2.515  1.00  0.00     0.181 A 
HETATM   13  N   UNL     1      44.256 -19.918   3.618  1.00  0.00    -0.354 N 
HETATM   14  H   UNL     1      44.884 -20.510   4.160  1.00  0.00     0.166 HD
HETATM   15  C   UNL     1      40.983 -16.893   2.332  1.00  0.00     0.057 C 
HETATM   16  C   UNL     1      40.370 -15.587   1.817  1.00  0.00     0.127 C 
ENDROOT
BRANCH   5  17
HETATM   17  C   UNL     1      41.700 -15.138   4.741  1.00  0.00     0.122 C 
BRANCH  17  18
HETATM   18  C   UNL     1      42.445 -13.796   4.964  1.00  0.00    -0.005 C 
HETATM   19  C   UNL     1      41.665 -12.664   4.285  1.00  0.00     0.011 C 
HETATM   20  C   UNL     1      42.627 -13.474   6.448  1.00  0.00     0.011 C 
ENDBRANCH  17  18
ENDBRANCH   5  17
BRANCH   1  21
HETATM   21  C   UNL     1      40.742 -13.602   0.429  1.00  0.00     0.103 A 
HETATM   22  N   UNL     1      41.196 -13.094  -0.730  1.00  0.00    -0.344 N 
HETATM   23  C   UNL     1      40.711 -11.999  -1.346  1.00  0.00     0.039 A 
HETATM   24  H   UNL     1      41.975 -13.518  -1.236  1.00  0.00     0.167 HD
HETATM   25  C   UNL     1      39.683 -11.277  -0.761  1.00  0.00     0.028 A 
HETATM   26  C   UNL     1      39.193 -11.705   0.462  1.00  0.00     0.006 A 
HETATM   27  C   UNL     1      39.723 -12.853   1.059  1.00  0.00     0.048 A 
BRANCH  23  28
HETATM   28  C   UNL     1      41.360 -11.667  -2.659  1.00  0.00     0.163 C 
HETATM   29  C   UNL     1      40.539 -10.689  -3.485  1.00  0.00     0.046 C 
BRANCH  28  30
HETATM   30  O   UNL     1      41.430 -12.920  -3.368  1.00  0.00    -0.390 OA
HETATM   31  H   UNL     1      41.655 -13.600  -2.696  1.00  0.00     0.210 HD
ENDBRANCH  28  30
ENDBRANCH  23  28
ENDBRANCH   1  21
TORSDOF 5
ENDMDL
MODEL 7
REMARK VINA RESULT:      -7.9      4.475      7.572
REMARK  5 active torsions:
REMARK  status: ('A' for Active; 'I' for Inactive)
REMARK    1  A    between atoms: C_2  and  O_3 
REMARK    2  A    between atoms: C_2  and  C_4 
REMARK    3  A    between atoms: C_7  and  N_8 
REMARK    4  A    between atoms: N_12  and  C_13 
REMARK    5  A    between atoms: C_13  and  C_14 
ROOT
HETATM    1  N   UNL     1      40.757 -14.708   0.515  1.00  0.00    -0.367 N 
HETATM    2  C   UNL     1      41.881 -14.013   1.174  1.00  0.00     0.127 C 
HETATM    3  C   UNL     1      42.749 -14.970   1.979  1.00  0.00     0.057 C 
HETATM    4  C   UNL     1      41.987 -15.823   3.022  1.00  0.00     0.075 C 
HETATM    5  N   UNL     1      41.579 -15.110   4.293  1.00  0.00    -0.398 N 
HETATM    6  C   UNL     1      42.724 -14.586   5.087  1.00  0.00     0.124 C 
HETATM    7  C   UNL     1      43.630 -15.713   5.641  1.00  0.00     0.078 C 
HETATM    8  C   UNL     1      43.713 -16.804   4.660  1.00  0.00     0.037 A 
HETATM    9  C   UNL     1      42.973 -16.895   3.498  1.00  0.00     0.061 A 
HETATM   10  N   UNL     1      43.367 -18.083   2.899  1.00  0.00    -0.352 N 
HETATM   11  H   UNL     1      43.028 -18.456   2.017  1.00  0.00     0.166 HD
HETATM   12  C   UNL     1      44.269 -18.718   3.661  1.00  0.00     0.181 A 
HETATM   13  N   UNL     1      44.491 -17.941   4.724  1.00  0.00    -0.354 N 
HETATM   14  H   UNL     1      45.132 -18.174   5.481  1.00  0.00     0.166 HD
HETATM   15  C   UNL     1      40.824 -16.515   2.268  1.00  0.00     0.057 C 
HETATM   16  C   UNL     1      39.971 -15.614   1.370  1.00  0.00     0.127 C 
ENDROOT
BRANCH   5  17
HETATM   17  C   UNL     1      40.403 -14.236   4.275  1.00  0.00     0.122 C 
BRANCH  17  18
HETATM   18  C   UNL     1      40.584 -12.752   4.686  1.00  0.00    -0.005 C 
HETATM   19  C   UNL     1      40.094 -11.847   3.549  1.00  0.00     0.011 C 
HETATM   20  C   UNL     1      39.830 -12.411   5.973  1.00  0.00     0.011 C 
ENDBRANCH  17  18
ENDBRANCH   5  17
BRANCH   1  21
HETATM   21  C   UNL     1      40.016 -13.892  -0.373  1.00  0.00     0.103 A 
HETATM   22  N   UNL     1      39.095 -13.022   0.077  1.00  0.00    -0.344 N 
HETATM   23  C   UNL     1      38.381 -12.174  -0.687  1.00  0.00     0.039 A 
HETATM   24  H   UNL     1      38.862 -12.949   1.069  1.00  0.00     0.167 HD
HETATM   25  C   UNL     1      38.542 -12.185  -2.064  1.00  0.00     0.028 A 
HETATM   26  C   UNL     1      39.435 -13.091  -2.613  1.00  0.00     0.006 A 
HETATM   27  C   UNL     1      40.160 -13.945  -1.778  1.00  0.00     0.048 A 
BRANCH  23  28
HETATM   28  C   UNL     1      37.451 -11.266   0.065  1.00  0.00     0.163 C 
HETATM   29  C   UNL     1      38.063  -9.900   0.335  1.00  0.00     0.046 C 
BRANCH  28  30
HETATM   30  O   UNL     1      37.226 -11.925   1.327  1.00  0.00    -0.390 OA
HETATM   31  H   UNL     1      36.533 -11.403   1.787  1.00  0.00     0.210 HD
ENDBRANCH  28  30
ENDBRANCH  23  28
ENDBRANCH   1  21
TORSDOF 5
ENDMDL
MODEL 8
REMARK VINA RESULT:      -7.8      3.704      6.532
REMARK  5 active torsions:
REMARK  status: ('A' for Active; 'I' for Inactive)
REMARK    1  A    between atoms: C_2  and  O_3 
REMARK    2  A    between atoms: C_2  and  C_4 
REMARK    3  A    between atoms: C_7  and  N_8 
REMARK    4  A    between atoms: N_12  and  C_13 
REMARK    5  A    between atoms: C_13  and  C_14 
ROOT
HETATM    1  N   UNL     1      41.855 -16.170   2.341  1.00  0.00    -0.367 N 
HETATM    2  C   UNL     1      40.715 -15.646   3.120  1.00  0.00     0.127 C 
HETATM    3  C   UNL     1      39.785 -14.795   2.268  1.00  0.00     0.057 C 
HETATM    4  C   UNL     1      40.473 -13.632   1.514  1.00  0.00     0.075 C 
HETATM    5  N   UNL     1      40.832 -12.420   2.347  1.00  0.00    -0.398 N 
HETATM    6  C   UNL     1      39.661 -11.746   2.971  1.00  0.00     0.124 C 
HETATM    7  C   UNL     1      38.702 -11.128   1.924  1.00  0.00     0.078 C 
HETATM    8  C   UNL     1      38.643 -11.995   0.739  1.00  0.00     0.037 A 
HETATM    9  C   UNL     1      39.438 -13.101   0.515  1.00  0.00     0.061 A 
HETATM   10  N   UNL     1      39.047 -13.595  -0.721  1.00  0.00    -0.352 N 
HETATM   11  H   UNL     1      39.422 -14.415  -1.190  1.00  0.00     0.166 HD
HETATM   12  C   UNL     1      38.093 -12.821  -1.257  1.00  0.00     0.181 A 
HETATM   13  N   UNL     1      37.836 -11.856  -0.370  1.00  0.00    -0.354 N 
HETATM   14  H   UNL     1      37.152 -11.114  -0.512  1.00  0.00     0.166 HD
HETATM   15  C   UNL     1      41.656 -14.248   0.726  1.00  0.00     0.057 C 
HETATM   16  C   UNL     1      42.574 -15.186   1.514  1.00  0.00     0.127 C 
ENDROOT
BRANCH   5  17
HETATM   17  C   UNL     1      42.028 -12.465   3.193  1.00  0.00     0.122 C 
BRANCH  17  18
HETATM   18  C   UNL     1      41.852 -12.291   4.723  1.00  0.00    -0.005 C 
HETATM   19  C   UNL     1      42.581 -13.427   5.451  1.00  0.00     0.011 C 
HETATM   20  C   UNL     1      42.382 -10.943   5.218  1.00  0.00     0.011 C 
ENDBRANCH  17  18
ENDBRANCH   5  17
BRANCH   1  21
HETATM   21  C   UNL     1      42.659 -17.097   3.046  1.00  0.00     0.103 A 
HETATM   22  N   UNL     1      43.004 -16.891   4.329  1.00  0.00    -0.344 N 
HETATM   23  C   UNL     1      43.721 -17.739   5.091  1.00  0.00     0.039 A 
HETATM   24  H   UNL     1      42.739 -16.041   4.829  1.00  0.00     0.167 HD
HETATM   25  C   UNL     1      44.201 -18.919   4.545  1.00  0.00     0.028 A 
HETATM   26  C   UNL     1      43.935 -19.181   3.211  1.00  0.00     0.006 A 
HETATM   27  C   UNL     1      43.178 -18.275   2.463  1.00  0.00     0.048 A 
BRANCH  23  28
HETATM   28  C   UNL     1      43.928 -17.299   6.512  1.00  0.00     0.163 C 
HETATM   29  C   UNL     1      42.687 -16.657   7.110  1.00  0.00     0.046 C 
BRANCH  28  30
HETATM   30  O   UNL     1      44.972 -16.308   6.447  1.00  0.00    -0.390 OA
HETATM   31  H   UNL     1      45.412 -16.432   5.578  1.00  0.00     0.210 HD
ENDBRANCH  28  30
ENDBRANCH  23  28
ENDBRANCH   1  21
TORSDOF 5
ENDMDL
MODEL 9
REMARK VINA RESULT:      -7.3      6.130     10.050
REMARK  5 active torsions:
REMARK  status: ('A' for Active; 'I' for Inactive)
REMARK    1  A    between atoms: C_2  and  O_3 
REMARK    2  A    between atoms: C_2  and  C_4 
REMARK    3  A    between atoms: C_7  and  N_8 
REMARK    4  A    between atoms: N_12  and  C_13 
REMARK    5  A    between atoms: C_13  and  C_14 
ROOT
HETATM    1  N   UNL     1      41.870  -7.900  15.423  1.00  0.00    -0.367 N 
HETATM    2  C   UNL     1      40.739  -8.444  14.644  1.00  0.00     0.127 C 
HETATM    3  C   UNL     1      41.205  -9.134  13.371  1.00  0.00     0.057 C 
HETATM    4  C   UNL     1      42.097  -8.271  12.449  1.00  0.00     0.075 C 
HETATM    5  N   UNL     1      41.384  -7.218  11.627  1.00  0.00    -0.398 N 
HETATM    6  C   UNL     1      40.383  -7.771  10.674  1.00  0.00     0.124 C 
HETATM    7  C   UNL     1      41.031  -8.640   9.568  1.00  0.00     0.078 C 
HETATM    8  C   UNL     1      42.163  -9.389  10.131  1.00  0.00     0.037 A 
HETATM    9  C   UNL     1      42.679  -9.227  11.401  1.00  0.00     0.061 A 
HETATM   10  N   UNL     1      43.735 -10.121  11.490  1.00  0.00    -0.352 N 
HETATM   11  H   UNL     1      44.333 -10.273  12.298  1.00  0.00     0.166 HD
HETATM   12  C   UNL     1      43.897 -10.776  10.330  1.00  0.00     0.181 A 
HETATM   13  N   UNL     1      42.939 -10.343   9.507  1.00  0.00    -0.354 N 
HETATM   14  H   UNL     1      42.819 -10.665   8.547  1.00  0.00     0.166 HD
HETATM   15  C   UNL     1      43.254  -7.730  13.326  1.00  0.00     0.057 C 
HETATM   16  C   UNL     1      42.849  -7.104  14.664  1.00  0.00     0.127 C 
ENDROOT
BRANCH   5  17
HETATM   17  C   UNL     1      40.981  -5.965  12.270  1.00  0.00     0.122 C 
BRANCH  17  18
HETATM   18  C   UNL     1      41.607  -4.642  11.757  1.00  0.00    -0.005 C 
HETATM   19  C   UNL     1      42.269  -3.906  12.929  1.00  0.00     0.011 C 
HETATM   20  C   UNL     1      42.639  -4.879  10.653  1.00  0.00     0.011 C 
ENDBRANCH  17  18
ENDBRANCH   5  17
BRANCH   1  21
HETATM   21  C   UNL     1      41.505  -7.391  16.693  1.00  0.00     0.103 A 
HETATM   22  N   UNL     1      40.827  -8.139  17.580  1.00  0.00    -0.344 N 
HETATM   23  C   UNL     1      40.484  -7.757  18.825  1.00  0.00     0.039 A 
HETATM   24  H   UNL     1      40.510  -9.084  17.358  1.00  0.00     0.167 HD
HETATM   25  C   UNL     1      40.797  -6.480  19.264  1.00  0.00     0.028 A 
HETATM   26  C   UNL     1      41.449  -5.626  18.390  1.00  0.00     0.006 A 
HETATM   27  C   UNL     1      41.794  -6.072  17.111  1.00  0.00     0.048 A 
BRANCH  23  28
HETATM   28  C   UNL     1      39.773  -8.799  19.639  1.00  0.00     0.163 C 
HETATM   29  C   UNL     1      39.331  -8.276  20.997  1.00  0.00     0.046 C 
BRANCH  28  30
HETATM   30  O   UNL     1      40.748  -9.841  19.844  1.00  0.00    -0.390 OA
HETATM   31  H   UNL     1      41.613  -9.459  19.580  1.00  0.00     0.210 HD
ENDBRANCH  28  30
ENDBRANCH  23  28
ENDBRANCH   1  21
TORSDOF 5
ENDMDL
MODEL 10
REMARK VINA RESULT:      -7.3      2.277      3.632
REMARK  5 active torsions:
REMARK  status: ('A' for Active; 'I' for Inactive)
REMARK    1  A    between atoms: C_2  and  O_3 
REMARK    2  A    between atoms: C_2  and  C_4 
REMARK    3  A    between atoms: C_7  and  N_8 
REMARK    4  A    between atoms: N_12  and  C_13 
REMARK    5  A    between atoms: C_13  and  C_14 
ROOT
HETATM    1  N   UNL     1      41.358 -11.139   5.508  1.00  0.00    -0.367 N 
HETATM    2  C   UNL     1      42.579 -11.460   4.742  1.00  0.00     0.127 C 
HETATM    3  C   UNL     1      42.257 -12.074   3.388  1.00  0.00     0.057 C 
HETATM    4  C   UNL     1      41.338 -13.318   3.436  1.00  0.00     0.075 C 
HETATM    5  N   UNL     1      41.990 -14.611   3.876  1.00  0.00    -0.398 N 
HETATM    6  C   UNL     1      43.093 -15.065   2.987  1.00  0.00     0.124 C 
HETATM    7  C   UNL     1      42.598 -15.437   1.567  1.00  0.00     0.078 C 
HETATM    8  C   UNL     1      41.515 -14.526   1.170  1.00  0.00     0.037 A 
HETATM    9  C   UNL     1      40.914 -13.591   1.988  1.00  0.00     0.061 A 
HETATM   10  N   UNL     1      39.948 -12.977   1.205  1.00  0.00    -0.352 N 
HETATM   11  H   UNL     1      39.323 -12.228   1.491  1.00  0.00     0.166 HD
HETATM   12  C   UNL     1      39.917 -13.524  -0.020  1.00  0.00     0.181 A 
HETATM   13  N   UNL     1      40.874 -14.456  -0.049  1.00  0.00    -0.354 N 
HETATM   14  H   UNL     1      41.079 -15.041  -0.858  1.00  0.00     0.166 HD
HETATM   15  C   UNL     1      40.085 -12.915   4.254  1.00  0.00     0.057 C 
HETATM   16  C   UNL     1      40.350 -12.210   5.588  1.00  0.00     0.127 C 
ENDROOT
BRANCH   5  17
HETATM   17  C   UNL     1      42.230 -14.838   5.304  1.00  0.00     0.122 C 
BRANCH  17  18
HETATM   18  C   UNL     1      41.659 -16.128   5.949  1.00  0.00    -0.005 C 
HETATM   19  C   UNL     1      42.610 -16.606   7.053  1.00  0.00     0.011 C 
HETATM   20  C   UNL     1      40.262 -15.914   6.534  1.00  0.00     0.011 C 
ENDBRANCH  17  18
ENDBRANCH   5  17
BRANCH   1  21
HETATM   21  C   UNL     1      41.598 -10.421   6.704  1.00  0.00     0.103 A 
HETATM   22  N   UNL     1      42.762 -10.533   7.368  1.00  0.00    -0.344 N 
HETATM   23  C   UNL     1      43.096  -9.853   8.480  1.00  0.00     0.039 A 
HETATM   24  H   UNL     1      43.496 -11.174   7.063  1.00  0.00     0.167 HD
HETATM   25  C   UNL     1      42.185  -8.979   9.053  1.00  0.00     0.028 A 
HETATM   26  C   UNL     1      40.941  -8.845   8.459  1.00  0.00     0.006 A 
HETATM   27  C   UNL     1      40.644  -9.566   7.299  1.00  0.00     0.048 A 
BRANCH  23  28
HETATM   28  C   UNL     1      44.478 -10.121   9.001  1.00  0.00     0.163 C 
HETATM   29  C   UNL     1      45.463  -9.022   8.635  1.00  0.00     0.046 C 
BRANCH  28  30
HETATM   30  O   UNL     1      44.891 -11.341   8.353  1.00  0.00    -0.390 OA
HETATM   31  H   UNL     1      45.228 -11.927   9.066  1.00  0.00     0.210 HD
ENDBRANCH  28  30
ENDBRANCH  23  28
ENDBRANCH   1  21
TORSDOF 5
ENDMDL
