MODEL 1
REMARK VINA RESULT:      -9.7      0.000      0.000
REMARK  12 active torsions:
REMARK  status: ('A' for Active; 'I' for Inactive)
REMARK    1  A    between atoms: C_2  and  N_3 
REMARK    2  A    between atoms: N_3  and  C_5 
REMARK    3  A    between atoms: N_3  and  C_25 
REMARK    4  A    between atoms: C_7  and  C_8 
REMARK    5  A    between atoms: C_8  and  C_9 
REMARK    6  A    between atoms: C_9  and  C_10 
REMARK    7  A    between atoms: C_18  and  C_19 
REMARK    8  A    between atoms: C_25  and  C_26 
REMARK    9  A    between atoms: C_28  and  N_29 
REMARK   10  A    between atoms: C_32  and  N_33 
REMARK   11  A    between atoms: C_39  and  O_40 
REMARK   12  A    between atoms: C_41  and  O_42 
ROOT
HETATM    1  N   UNL     1      41.912 -11.476   4.153  1.00  0.00    -0.061 N 
HETATM    2  H   UNL     1      42.382 -11.662   3.254  1.00  0.00     0.280 HD
ENDROOT
BRANCH   1   3
HETATM    3  C   UNL     1      40.781 -10.488   3.864  1.00  0.00     0.180 C 
HETATM    4  C   UNL     1      41.178  -9.053   4.197  1.00  0.00     0.039 C 
HETATM    5  C   UNL     1      39.453 -10.877   4.507  1.00  0.00     0.039 C 
ENDBRANCH   1   3
BRANCH   1   6
HETATM    6  C   UNL     1      42.896 -10.919   5.151  1.00  0.00     0.189 C 
HETATM    7  C   UNL     1      42.777 -11.510   6.589  1.00  0.00     0.038 C 
HETATM    8  C   UNL     1      44.324 -11.512   6.667  1.00  0.00    -0.010 C 
HETATM    9  C   UNL     1      44.304 -11.578   5.119  1.00  0.00     0.038 C 
BRANCH   8  10
HETATM   10  C   UNL     1      45.025 -10.277   7.235  1.00  0.00     0.012 C 
BRANCH  10  11
HETATM   11  C   UNL     1      45.754 -10.604   8.542  1.00  0.00     0.079 C 
BRANCH  11  12
HETATM   12  C   UNL     1      44.922 -10.232   9.721  1.00  0.00     0.105 A 
HETATM   13  N   UNL     1      44.289 -11.062  10.526  1.00  0.00    -0.233 NA
HETATM   14  C   UNL     1      43.641 -10.265  11.441  1.00  0.00     0.085 A 
HETATM   15  C   UNL     1      43.894  -8.924  11.199  1.00  0.00     0.063 A 
HETATM   16  C   UNL     1      42.810 -10.611  12.512  1.00  0.00     0.034 A 
HETATM   17  N   UNL     1      44.720  -8.928  10.105  1.00  0.00    -0.343 N 
HETATM   18  C   UNL     1      43.363  -7.888  11.973  1.00  0.00     0.039 A 
HETATM   19  H   UNL     1      45.101  -8.108   9.656  1.00  0.00     0.167 HD
HETATM   20  C   UNL     1      42.518  -8.225  13.056  1.00  0.00    -0.048 A 
HETATM   21  C   UNL     1      42.259  -9.587  13.303  1.00  0.00     0.010 A 
BRANCH  20  22
HETATM   22  C   UNL     1      41.916  -7.101  13.925  1.00  0.00    -0.024 C 
HETATM   23  C   UNL     1      42.480  -7.046  15.363  1.00  0.00     0.019 C 
HETATM   24  C   UNL     1      42.204  -5.732  13.269  1.00  0.00     0.019 C 
HETATM   25  C   UNL     1      40.388  -7.295  14.044  1.00  0.00     0.019 C 
ENDBRANCH  20  22
ENDBRANCH  11  12
ENDBRANCH  10  11
ENDBRANCH   8  10
ENDBRANCH   1   6
BRANCH   1  26
HETATM   26  C   UNL     1      41.454 -12.852   4.664  1.00  0.00     0.270 C 
BRANCH  26  27
HETATM   27  C   UNL     1      41.707 -13.949   3.624  1.00  0.00     0.181 C 
HETATM   28  O   UNL     1      42.862 -14.744   3.959  1.00  0.00    -0.354 OA
HETATM   29  C   UNL     1      42.710 -15.984   3.198  1.00  0.00     0.262 C 
HETATM   30  C   UNL     1      41.232 -16.086   2.763  1.00  0.00     0.198 C 
HETATM   31  C   UNL     1      40.575 -14.955   3.540  1.00  0.00     0.181 C 
BRANCH  29  32
HETATM   32  N   UNL     1      43.158 -17.116   3.979  1.00  0.00    -0.294 N 
HETATM   33  C   UNL     1      43.334 -18.368   3.456  1.00  0.00     0.167 A 
HETATM   34  C   UNL     1      43.811 -19.133   4.506  1.00  0.00     0.149 A 
HETATM   35  N   UNL     1      43.090 -18.759   2.194  1.00  0.00    -0.222 NA
HETATM   36  C   UNL     1      44.095 -20.479   4.221  1.00  0.00     0.155 A 
HETATM   37  N   UNL     1      43.897 -18.369   5.655  1.00  0.00    -0.236 NA
HETATM   38  N   UNL     1      43.861 -20.932   2.967  1.00  0.00    -0.222 NA
HETATM   39  C   UNL     1      43.390 -20.069   2.042  1.00  0.00     0.237 A 
HETATM   40  C   UNL     1      43.511 -17.163   5.297  1.00  0.00     0.214 A 
BRANCH  36  41
HETATM   41  N   UNL     1      44.594 -21.370   5.156  1.00  0.00    -0.382 N 
HETATM   42  H   UNL     1      45.328 -21.002   5.748  1.00  0.00     0.157 HD
HETATM   43  H   UNL     1      43.873 -21.934   5.588  1.00  0.00     0.157 HD
ENDBRANCH  36  41
ENDBRANCH  29  32
BRANCH  30  44
HETATM   44  O   UNL     1      41.083 -15.807   1.361  1.00  0.00    -0.388 OA
HETATM   45  H   UNL     1      40.427 -16.446   1.012  1.00  0.00     0.210 HD
ENDBRANCH  30  44
BRANCH  31  46
HETATM   46  O   UNL     1      39.441 -14.403   2.898  1.00  0.00    -0.390 OA
HETATM   47  H   UNL     1      38.852 -15.158   2.676  1.00  0.00     0.210 HD
ENDBRANCH  31  46
ENDBRANCH  26  27
ENDBRANCH   1  26
TORSDOF 12
ENDMDL
MODEL 2
REMARK VINA RESULT:      -9.3      3.430      5.664
REMARK  12 active torsions:
REMARK  status: ('A' for Active; 'I' for Inactive)
REMARK    1  A    between atoms: C_2  and  N_3 
REMARK    2  A    between atoms: N_3  and  C_5 
REMARK    3  A    between atoms: N_3  and  C_25 
REMARK    4  A    between atoms: C_7  and  C_8 
REMARK    5  A    between atoms: C_8  and  C_9 
REMARK    6  A    between atoms: C_9  and  C_10 
REMARK    7  A    between atoms: C_18  and  C_19 
REMARK    8  A    between atoms: C_25  and  C_26 
REMARK    9  A    between atoms: C_28  and  N_29 
REMARK   10  A    between atoms: C_32  and  N_33 
REMARK   11  A    between atoms: C_39  and  O_40 
REMARK   12  A    between atoms: C_41  and  O_42 
ROOT
HETATM    1  N   UNL     1      42.685 -13.952   5.646  1.00  0.00    -0.061 N 
HETATM    2  H   UNL     1      41.807 -13.495   5.935  1.00  0.00     0.280 HD
ENDROOT
BRANCH   1   3
HETATM    3  C   UNL     1      42.666 -15.360   6.243  1.00  0.00     0.180 C 
HETATM    4  C   UNL     1      44.071 -15.867   6.555  1.00  0.00     0.039 C 
HETATM    5  C   UNL     1      41.869 -16.363   5.414  1.00  0.00     0.039 C 
ENDBRANCH   1   3
BRANCH   1   6
HETATM    6  C   UNL     1      43.872 -13.158   6.130  1.00  0.00     0.189 C 
HETATM    7  C   UNL     1      44.175 -11.866   5.311  1.00  0.00     0.038 C 
HETATM    8  C   UNL     1      44.497 -11.151   6.646  1.00  0.00    -0.010 C 
HETATM    9  C   UNL     1      43.577 -12.199   7.318  1.00  0.00     0.038 C 
BRANCH   8  10
HETATM   10  C   UNL     1      45.942 -11.167   7.148  1.00  0.00     0.012 C 
BRANCH  10  11
HETATM   11  C   UNL     1      46.413  -9.761   7.533  1.00  0.00     0.079 C 
BRANCH  11  12
HETATM   12  C   UNL     1      45.463  -9.125   8.487  1.00  0.00     0.105 A 
HETATM   13  N   UNL     1      44.761  -8.029   8.281  1.00  0.00    -0.233 NA
HETATM   14  C   UNL     1      44.055  -7.818   9.443  1.00  0.00     0.085 A 
HETATM   15  C   UNL     1      44.321  -8.812  10.371  1.00  0.00     0.063 A 
HETATM   16  C   UNL     1      43.166  -6.794   9.787  1.00  0.00     0.034 A 
HETATM   17  N   UNL     1      45.212  -9.639   9.737  1.00  0.00    -0.343 N 
HETATM   18  C   UNL     1      43.743  -8.852  11.644  1.00  0.00     0.039 A 
HETATM   19  H   UNL     1      45.620 -10.473  10.133  1.00  0.00     0.167 HD
HETATM   20  C   UNL     1      42.845  -7.820  12.005  1.00  0.00    -0.048 A 
HETATM   21  C   UNL     1      42.574  -6.809  11.063  1.00  0.00     0.010 A 
BRANCH  20  22
HETATM   22  C   UNL     1      42.195  -7.838  13.405  1.00  0.00    -0.024 C 
HETATM   23  C   UNL     1      42.049  -9.251  14.014  1.00  0.00     0.019 C 
HETATM   24  C   UNL     1      43.054  -7.006  14.383  1.00  0.00     0.019 C 
HETATM   25  C   UNL     1      40.777  -7.228  13.329  1.00  0.00     0.019 C 
ENDBRANCH  20  22
ENDBRANCH  11  12
ENDBRANCH  10  11
ENDBRANCH   8  10
ENDBRANCH   1   6
BRANCH   1  26
HETATM   26  C   UNL     1      42.682 -13.902   4.109  1.00  0.00     0.270 C 
BRANCH  26  27
HETATM   27  C   UNL     1      41.542 -13.025   3.579  1.00  0.00     0.181 C 
HETATM   28  O   UNL     1      41.570 -12.926   2.142  1.00  0.00    -0.354 OA
HETATM   29  C   UNL     1      40.226 -12.495   1.759  1.00  0.00     0.262 C 
HETATM   30  C   UNL     1      39.288 -12.775   2.953  1.00  0.00     0.198 C 
HETATM   31  C   UNL     1      40.169 -13.593   3.887  1.00  0.00     0.181 C 
BRANCH  29  32
HETATM   32  N   UNL     1      39.811 -13.151   0.538  1.00  0.00    -0.294 N 
HETATM   33  C   UNL     1      38.979 -12.572  -0.381  1.00  0.00     0.167 A 
HETATM   34  C   UNL     1      38.878 -13.497  -1.406  1.00  0.00     0.149 A 
HETATM   35  N   UNL     1      38.392 -11.368  -0.295  1.00  0.00    -0.222 NA
HETATM   36  C   UNL     1      38.079 -13.130  -2.503  1.00  0.00     0.155 A 
HETATM   37  N   UNL     1      39.611 -14.630  -1.105  1.00  0.00    -0.236 NA
HETATM   38  N   UNL     1      37.455 -11.929  -2.468  1.00  0.00    -0.222 NA
HETATM   39  C   UNL     1      37.645 -11.129  -1.397  1.00  0.00     0.237 A 
HETATM   40  C   UNL     1      40.167 -14.380   0.062  1.00  0.00     0.214 A 
BRANCH  36  41
HETATM   41  N   UNL     1      37.890 -13.934  -3.614  1.00  0.00    -0.382 N 
HETATM   42  H   UNL     1      38.202 -13.533  -4.490  1.00  0.00     0.157 HD
HETATM   43  H   UNL     1      38.099 -14.909  -3.437  1.00  0.00     0.157 HD
ENDBRANCH  36  41
ENDBRANCH  29  32
BRANCH  30  44
HETATM   44  O   UNL     1      38.932 -11.559   3.630  1.00  0.00    -0.388 OA
HETATM   45  H   UNL     1      39.711 -10.967   3.579  1.00  0.00     0.210 HD
ENDBRANCH  30  44
BRANCH  31  46
HETATM   46  O   UNL     1      39.845 -13.445   5.256  1.00  0.00    -0.390 OA
HETATM   47  H   UNL     1      40.620 -13.777   5.763  1.00  0.00     0.210 HD
ENDBRANCH  31  46
ENDBRANCH  26  27
ENDBRANCH   1  26
TORSDOF 12
ENDMDL
MODEL 3
REMARK VINA RESULT:      -9.3      3.464      5.601
REMARK  12 active torsions:
REMARK  status: ('A' for Active; 'I' for Inactive)
REMARK    1  A    between atoms: C_2  and  N_3 
REMARK    2  A    between atoms: N_3  and  C_5 
REMARK    3  A    between atoms: N_3  and  C_25 
REMARK    4  A    between atoms: C_7  and  C_8 
REMARK    5  A    between atoms: C_8  and  C_9 
REMARK    6  A    between atoms: C_9  and  C_10 
REMARK    7  A    between atoms: C_18  and  C_19 
REMARK    8  A    between atoms: C_25  and  C_26 
REMARK    9  A    between atoms: C_28  and  N_29 
REMARK   10  A    between atoms: C_32  and  N_33 
REMARK   11  A    between atoms: C_39  and  O_40 
REMARK   12  A    between atoms: C_41  and  O_42 
ROOT
HETATM    1  N   UNL     1      42.051 -13.477   5.829  1.00  0.00    -0.061 N 
HETATM    2  H   UNL     1      41.437 -13.338   6.646  1.00  0.00     0.280 HD
ENDROOT
BRANCH   1   3
HETATM    3  C   UNL     1      42.172 -14.988   5.622  1.00  0.00     0.180 C 
HETATM    4  C   UNL     1      41.256 -15.768   6.560  1.00  0.00     0.039 C 
HETATM    5  C   UNL     1      43.610 -15.496   5.675  1.00  0.00     0.039 C 
ENDBRANCH   1   3
BRANCH   1   6
HETATM    6  C   UNL     1      43.395 -12.839   6.071  1.00  0.00     0.189 C 
HETATM    7  C   UNL     1      43.521 -11.367   5.574  1.00  0.00     0.038 C 
HETATM    8  C   UNL     1      44.329 -11.051   6.857  1.00  0.00    -0.010 C 
HETATM    9  C   UNL     1      43.595 -12.255   7.498  1.00  0.00     0.038 C 
BRANCH   8  10
HETATM   10  C   UNL     1      45.851 -11.193   6.811  1.00  0.00     0.012 C 
BRANCH  10  11
HETATM   11  C   UNL     1      46.540 -10.035   7.539  1.00  0.00     0.079 C 
BRANCH  11  12
HETATM   12  C   UNL     1      45.591  -9.345   8.457  1.00  0.00     0.105 A 
HETATM   13  N   UNL     1      44.935  -8.229   8.210  1.00  0.00    -0.233 NA
HETATM   14  C   UNL     1      44.210  -7.968   9.350  1.00  0.00     0.085 A 
HETATM   15  C   UNL     1      44.417  -8.950  10.305  1.00  0.00     0.063 A 
HETATM   16  C   UNL     1      43.351  -6.905   9.651  1.00  0.00     0.034 A 
HETATM   17  N   UNL     1      45.292  -9.822   9.710  1.00  0.00    -0.343 N 
HETATM   18  C   UNL     1      43.807  -8.942  11.563  1.00  0.00     0.039 A 
HETATM   19  H   UNL     1      45.660 -10.662  10.132  1.00  0.00     0.167 HD
HETATM   20  C   UNL     1      42.939  -7.871  11.881  1.00  0.00    -0.048 A 
HETATM   21  C   UNL     1      42.729  -6.871  10.912  1.00  0.00     0.010 A 
BRANCH  20  22
HETATM   22  C   UNL     1      42.255  -7.835  13.264  1.00  0.00    -0.024 C 
HETATM   23  C   UNL     1      40.854  -7.183  13.257  1.00  0.00     0.019 C 
HETATM   24  C   UNL     1      42.085  -9.277  13.792  1.00  0.00     0.019 C 
HETATM   25  C   UNL     1      43.125  -7.031  14.256  1.00  0.00     0.019 C 
ENDBRANCH  20  22
ENDBRANCH  11  12
ENDBRANCH  10  11
ENDBRANCH   8  10
ENDBRANCH   1   6
BRANCH   1  26
HETATM   26  C   UNL     1      41.372 -12.719   4.677  1.00  0.00     0.270 C 
BRANCH  26  27
HETATM   27  C   UNL     1      41.329 -13.564   3.398  1.00  0.00     0.181 C 
HETATM   28  O   UNL     1      40.037 -13.503   2.762  1.00  0.00    -0.354 OA
HETATM   29  C   UNL     1      40.268 -13.926   1.381  1.00  0.00     0.262 C 
HETATM   30  C   UNL     1      41.781 -13.805   1.102  1.00  0.00     0.198 C 
HETATM   31  C   UNL     1      42.292 -13.071   2.334  1.00  0.00     0.181 C 
BRANCH  29  32
HETATM   32  N   UNL     1      39.453 -13.151   0.471  1.00  0.00    -0.294 N 
HETATM   33  C   UNL     1      39.073 -13.598  -0.765  1.00  0.00     0.167 A 
HETATM   34  C   UNL     1      38.274 -12.592  -1.282  1.00  0.00     0.149 A 
HETATM   35  N   UNL     1      39.411 -14.762  -1.343  1.00  0.00    -0.222 NA
HETATM   36  C   UNL     1      37.732 -12.817  -2.558  1.00  0.00     0.155 A 
HETATM   37  N   UNL     1      38.192 -11.539  -0.389  1.00  0.00    -0.236 NA
HETATM   38  N   UNL     1      38.045 -13.971  -3.193  1.00  0.00    -0.222 NA
HETATM   39  C   UNL     1      38.842 -14.863  -2.566  1.00  0.00     0.237 A 
HETATM   40  C   UNL     1      38.899 -11.916   0.655  1.00  0.00     0.214 A 
BRANCH  36  41
HETATM   41  N   UNL     1      36.900 -11.919  -3.205  1.00  0.00    -0.382 N 
HETATM   42  H   UNL     1      37.360 -11.087  -3.555  1.00  0.00     0.157 HD
HETATM   43  H   UNL     1      36.219 -12.371  -3.802  1.00  0.00     0.157 HD
ENDBRANCH  36  41
ENDBRANCH  29  32
BRANCH  30  44
HETATM   44  O   UNL     1      42.407 -15.098   1.064  1.00  0.00    -0.388 OA
HETATM   45  H   UNL     1      43.115 -15.051   0.388  1.00  0.00     0.210 HD
ENDBRANCH  30  44
BRANCH  31  46
HETATM   46  O   UNL     1      43.631 -13.378   2.668  1.00  0.00    -0.390 OA
HETATM   47  H   UNL     1      43.620 -13.693   3.600  1.00  0.00     0.210 HD
ENDBRANCH  31  46
ENDBRANCH  26  27
ENDBRANCH   1  26
TORSDOF 12
ENDMDL
MODEL 4
REMARK VINA RESULT:      -9.1      2.936      6.486
REMARK  12 active torsions:
REMARK  status: ('A' for Active; 'I' for Inactive)
REMARK    1  A    between atoms: C_2  and  N_3 
REMARK    2  A    between atoms: N_3  and  C_5 
REMARK    3  A    between atoms: N_3  and  C_25 
REMARK    4  A    between atoms: C_7  and  C_8 
REMARK    5  A    between atoms: C_8  and  C_9 
REMARK    6  A    between atoms: C_9  and  C_10 
REMARK    7  A    between atoms: C_18  and  C_19 
REMARK    8  A    between atoms: C_25  and  C_26 
REMARK    9  A    between atoms: C_28  and  N_29 
REMARK   10  A    between atoms: C_32  and  N_33 
REMARK   11  A    between atoms: C_39  and  O_40 
REMARK   12  A    between atoms: C_41  and  O_42 
ROOT
HETATM    1  N   UNL     1      42.970 -14.079   6.168  1.00  0.00    -0.061 N 
HETATM    2  H   UNL     1      42.100 -13.763   6.621  1.00  0.00     0.280 HD
ENDROOT
BRANCH   1   3
HETATM    3  C   UNL     1      43.217 -15.513   6.639  1.00  0.00     0.180 C 
HETATM    4  C   UNL     1      43.022 -15.661   8.145  1.00  0.00     0.039 C 
HETATM    5  C   UNL     1      44.555 -16.084   6.177  1.00  0.00     0.039 C 
ENDBRANCH   1   3
BRANCH   1   6
HETATM    6  C   UNL     1      44.112 -13.167   6.539  1.00  0.00     0.189 C 
HETATM    7  C   UNL     1      44.319 -11.952   5.583  1.00  0.00     0.038 C 
HETATM    8  C   UNL     1      44.618 -11.082   6.828  1.00  0.00    -0.010 C 
HETATM    9  C   UNL     1      43.777 -12.108   7.627  1.00  0.00     0.038 C 
BRANCH   8  10
HETATM   10  C   UNL     1      46.069 -10.957   7.296  1.00  0.00     0.012 C 
BRANCH  10  11
HETATM   11  C   UNL     1      46.427  -9.502   7.616  1.00  0.00     0.079 C 
BRANCH  11  12
HETATM   12  C   UNL     1      45.448  -8.913   8.573  1.00  0.00     0.105 A 
HETATM   13  N   UNL     1      44.704  -7.844   8.374  1.00  0.00    -0.233 NA
HETATM   14  C   UNL     1      43.987  -7.672   9.535  1.00  0.00     0.085 A 
HETATM   15  C   UNL     1      44.289  -8.663  10.456  1.00  0.00     0.063 A 
HETATM   16  C   UNL     1      43.056  -6.688   9.885  1.00  0.00     0.034 A 
HETATM   17  N   UNL     1      45.215  -9.448   9.818  1.00  0.00    -0.343 N 
HETATM   18  C   UNL     1      43.708  -8.737  11.726  1.00  0.00     0.039 A 
HETATM   19  H   UNL     1      45.654 -10.269  10.207  1.00  0.00     0.167 HD
HETATM   20  C   UNL     1      42.769  -7.745  12.093  1.00  0.00    -0.048 A 
HETATM   21  C   UNL     1      42.461  -6.737  11.158  1.00  0.00     0.010 A 
BRANCH  20  22
HETATM   22  C   UNL     1      42.115  -7.801  13.490  1.00  0.00    -0.024 C 
HETATM   23  C   UNL     1      40.708  -7.166  13.552  1.00  0.00     0.019 C 
HETATM   24  C   UNL     1      41.971  -9.274  13.932  1.00  0.00     0.019 C 
HETATM   25  C   UNL     1      42.998  -7.049  14.510  1.00  0.00     0.019 C 
ENDBRANCH  20  22
ENDBRANCH  11  12
ENDBRANCH  10  11
ENDBRANCH   8  10
ENDBRANCH   1   6
BRANCH   1  26
HETATM   26  C   UNL     1      42.720 -13.928   4.658  1.00  0.00     0.270 C 
BRANCH  26  27
HETATM   27  C   UNL     1      41.236 -13.692   4.357  1.00  0.00     0.181 C 
HETATM   28  O   UNL     1      40.650 -12.745   5.272  1.00  0.00    -0.354 OA
HETATM   29  C   UNL     1      39.437 -12.268   4.608  1.00  0.00     0.262 C 
HETATM   30  C   UNL     1      39.560 -12.612   3.108  1.00  0.00     0.198 C 
HETATM   31  C   UNL     1      41.003 -13.080   2.988  1.00  0.00     0.181 C 
BRANCH  29  32
HETATM   32  N   UNL     1      39.244 -10.857   4.859  1.00  0.00    -0.294 N 
HETATM   33  C   UNL     1      39.149 -10.323   6.115  1.00  0.00     0.167 A 
HETATM   34  C   UNL     1      39.023  -8.958   5.917  1.00  0.00     0.149 A 
HETATM   35  N   UNL     1      39.173 -10.989   7.281  1.00  0.00    -0.222 NA
HETATM   36  C   UNL     1      38.925  -8.165   7.073  1.00  0.00     0.155 A 
HETATM   37  N   UNL     1      39.012  -8.669   4.565  1.00  0.00    -0.236 NA
HETATM   38  N   UNL     1      38.935  -8.783   8.277  1.00  0.00    -0.222 NA
HETATM   39  C   UNL     1      39.062 -10.127   8.317  1.00  0.00     0.237 A 
HETATM   40  C   UNL     1      39.160  -9.830   3.963  1.00  0.00     0.214 A 
BRANCH  36  41
HETATM   41  N   UNL     1      38.811  -6.785   7.046  1.00  0.00    -0.382 N 
HETATM   42  H   UNL     1      37.905  -6.437   6.758  1.00  0.00     0.157 HD
HETATM   43  H   UNL     1      39.264  -6.336   7.832  1.00  0.00     0.157 HD
ENDBRANCH  36  41
ENDBRANCH  29  32
BRANCH  30  44
HETATM   44  O   UNL     1      38.706 -13.713   2.757  1.00  0.00    -0.388 OA
HETATM   45  H   UNL     1      37.787 -13.431   2.945  1.00  0.00     0.210 HD
ENDBRANCH  30  44
BRANCH  31  46
HETATM   46  O   UNL     1      41.215 -14.025   1.957  1.00  0.00    -0.390 OA
HETATM   47  H   UNL     1      42.095 -13.821   1.569  1.00  0.00     0.210 HD
ENDBRANCH  31  46
ENDBRANCH  26  27
ENDBRANCH   1  26
TORSDOF 12
ENDMDL
MODEL 5
REMARK VINA RESULT:      -8.9      2.085      3.045
REMARK  12 active torsions:
REMARK  status: ('A' for Active; 'I' for Inactive)
REMARK    1  A    between atoms: C_2  and  N_3 
REMARK    2  A    between atoms: N_3  and  C_5 
REMARK    3  A    between atoms: N_3  and  C_25 
REMARK    4  A    between atoms: C_7  and  C_8 
REMARK    5  A    between atoms: C_8  and  C_9 
REMARK    6  A    between atoms: C_9  and  C_10 
REMARK    7  A    between atoms: C_18  and  C_19 
REMARK    8  A    between atoms: C_25  and  C_26 
REMARK    9  A    between atoms: C_28  and  N_29 
REMARK   10  A    between atoms: C_32  and  N_33 
REMARK   11  A    between atoms: C_39  and  O_40 
REMARK   12  A    between atoms: C_41  and  O_42 
ROOT
HETATM    1  N   UNL     1      42.428 -12.584   5.260  1.00  0.00    -0.061 N 
HETATM    2  H   UNL     1      41.696 -13.299   5.387  1.00  0.00     0.280 HD
ENDROOT
BRANCH   1   3
HETATM    3  C   UNL     1      43.574 -12.955   6.203  1.00  0.00     0.180 C 
HETATM    4  C   UNL     1      43.267 -14.214   7.007  1.00  0.00     0.039 C 
HETATM    5  C   UNL     1      44.024 -11.803   7.097  1.00  0.00     0.039 C 
ENDBRANCH   1   3
BRANCH   1   6
HETATM    6  C   UNL     1      41.878 -11.214   5.566  1.00  0.00     0.189 C 
HETATM    7  C   UNL     1      41.251 -10.471   4.346  1.00  0.00     0.038 C 
HETATM    8  C   UNL     1      40.131  -9.965   5.287  1.00  0.00    -0.010 C 
HETATM    9  C   UNL     1      40.442 -11.203   6.164  1.00  0.00     0.038 C 
BRANCH   8  10
HETATM   10  C   UNL     1      40.328  -8.625   5.997  1.00  0.00     0.012 C 
BRANCH  10  11
HETATM   11  C   UNL     1      39.125  -8.281   6.881  1.00  0.00     0.079 C 
BRANCH  11  12
HETATM   12  C   UNL     1      39.458  -8.455   8.323  1.00  0.00     0.105 A 
HETATM   13  N   UNL     1      39.121  -9.476   9.086  1.00  0.00    -0.233 NA
HETATM   14  C   UNL     1      39.621  -9.183  10.334  1.00  0.00     0.085 A 
HETATM   15  C   UNL     1      40.287  -7.968  10.329  1.00  0.00     0.063 A 
HETATM   16  C   UNL     1      39.545  -9.905  11.530  1.00  0.00     0.034 A 
HETATM   17  N   UNL     1      40.179  -7.528   9.035  1.00  0.00    -0.343 N 
HETATM   18  C   UNL     1      40.896  -7.419  11.462  1.00  0.00     0.039 A 
HETATM   19  H   UNL     1      40.556  -6.662   8.678  1.00  0.00     0.167 HD
HETATM   20  C   UNL     1      40.822  -8.137  12.677  1.00  0.00    -0.048 A 
HETATM   21  C   UNL     1      40.145  -9.372  12.685  1.00  0.00     0.010 A 
BRANCH  20  22
HETATM   22  C   UNL     1      41.483  -7.553  13.944  1.00  0.00    -0.024 C 
HETATM   23  C   UNL     1      41.613  -8.560  15.108  1.00  0.00     0.019 C 
HETATM   24  C   UNL     1      42.908  -7.064  13.603  1.00  0.00     0.019 C 
HETATM   25  C   UNL     1      40.649  -6.361  14.465  1.00  0.00     0.019 C 
ENDBRANCH  20  22
ENDBRANCH  11  12
ENDBRANCH  10  11
ENDBRANCH   8  10
ENDBRANCH   1   6
BRANCH   1  26
HETATM   26  C   UNL     1      42.782 -12.625   3.765  1.00  0.00     0.270 C 
BRANCH  26  27
HETATM   27  C   UNL     1      42.283 -13.916   3.106  1.00  0.00     0.181 C 
HETATM   28  O   UNL     1      43.278 -14.958   3.155  1.00  0.00    -0.354 OA
HETATM   29  C   UNL     1      42.541 -16.204   2.948  1.00  0.00     0.262 C 
HETATM   30  C   UNL     1      41.050 -15.916   3.223  1.00  0.00     0.198 C 
HETATM   31  C   UNL     1      41.083 -14.514   3.815  1.00  0.00     0.181 C 
BRANCH  29  32
HETATM   32  N   UNL     1      43.085 -17.258   3.777  1.00  0.00    -0.294 N 
HETATM   33  C   UNL     1      43.283 -18.537   3.333  1.00  0.00     0.167 A 
HETATM   34  C   UNL     1      43.855 -19.204   4.402  1.00  0.00     0.149 A 
HETATM   35  N   UNL     1      42.980 -19.028   2.120  1.00  0.00    -0.222 NA
HETATM   36  C   UNL     1      44.180 -20.555   4.195  1.00  0.00     0.155 A 
HETATM   37  N   UNL     1      43.978 -18.355   5.487  1.00  0.00    -0.236 NA
HETATM   38  N   UNL     1      43.890 -21.107   2.994  1.00  0.00    -0.222 NA
HETATM   39  C   UNL     1      43.327 -20.333   2.042  1.00  0.00     0.237 A 
HETATM   40  C   UNL     1      43.518 -17.194   5.070  1.00  0.00     0.214 A 
BRANCH  36  41
HETATM   41  N   UNL     1      44.773 -21.355   5.157  1.00  0.00    -0.382 N 
HETATM   42  H   UNL     1      44.304 -22.236   5.328  1.00  0.00     0.157 HD
HETATM   43  H   UNL     1      45.784 -21.359   5.100  1.00  0.00     0.157 HD
ENDBRANCH  36  41
ENDBRANCH  29  32
BRANCH  30  44
HETATM   44  O   UNL     1      40.297 -15.864   2.001  1.00  0.00    -0.388 OA
HETATM   45  H   UNL     1      40.944 -15.760   1.273  1.00  0.00     0.210 HD
ENDBRANCH  30  44
BRANCH  31  46
HETATM   46  O   UNL     1      39.911 -13.761   3.570  1.00  0.00    -0.390 OA
HETATM   47  H   UNL     1      39.171 -14.250   3.995  1.00  0.00     0.210 HD
ENDBRANCH  31  46
ENDBRANCH  26  27
ENDBRANCH   1  26
TORSDOF 12
ENDMDL
MODEL 6
REMARK VINA RESULT:      -8.8      3.556      5.657
REMARK  12 active torsions:
REMARK  status: ('A' for Active; 'I' for Inactive)
REMARK    1  A    between atoms: C_2  and  N_3 
REMARK    2  A    between atoms: N_3  and  C_5 
REMARK    3  A    between atoms: N_3  and  C_25 
REMARK    4  A    between atoms: C_7  and  C_8 
REMARK    5  A    between atoms: C_8  and  C_9 
REMARK    6  A    between atoms: C_9  and  C_10 
REMARK    7  A    between atoms: C_18  and  C_19 
REMARK    8  A    between atoms: C_25  and  C_26 
REMARK    9  A    between atoms: C_28  and  N_29 
REMARK   10  A    between atoms: C_32  and  N_33 
REMARK   11  A    between atoms: C_39  and  O_40 
REMARK   12  A    between atoms: C_41  and  O_42 
ROOT
HETATM    1  N   UNL     1      41.759 -14.060   4.173  1.00  0.00    -0.061 N 
HETATM    2  H   UNL     1      40.844 -13.780   4.560  1.00  0.00     0.280 HD
ENDROOT
BRANCH   1   3
HETATM    3  C   UNL     1      41.786 -15.590   4.169  1.00  0.00     0.180 C 
HETATM    4  C   UNL     1      41.331 -16.165   2.832  1.00  0.00     0.039 C 
HETATM    5  C   UNL     1      41.038 -16.214   5.343  1.00  0.00     0.039 C 
ENDBRANCH   1   3
BRANCH   1   6
HETATM    6  C   UNL     1      42.876 -13.486   5.007  1.00  0.00     0.189 C 
HETATM    7  C   UNL     1      43.638 -12.294   4.352  1.00  0.00     0.038 C 
HETATM    8  C   UNL     1      43.680 -11.615   5.743  1.00  0.00    -0.010 C 
HETATM    9  C   UNL     1      42.426 -12.458   6.084  1.00  0.00     0.038 C 
BRANCH   8  10
HETATM   10  C   UNL     1      44.885 -11.884   6.647  1.00  0.00     0.012 C 
BRANCH  10  11
HETATM   11  C   UNL     1      45.449 -10.582   7.224  1.00  0.00     0.079 C 
BRANCH  11  12
HETATM   12  C   UNL     1      44.816 -10.265   8.535  1.00  0.00     0.105 A 
HETATM   13  N   UNL     1      44.492 -11.127   9.477  1.00  0.00    -0.233 NA
HETATM   14  C   UNL     1      43.917 -10.379  10.479  1.00  0.00     0.085 A 
HETATM   15  C   UNL     1      43.903  -9.034  10.148  1.00  0.00     0.063 A 
HETATM   16  C   UNL     1      43.377 -10.777  11.707  1.00  0.00     0.034 A 
HETATM   17  N   UNL     1      44.490  -8.984   8.910  1.00  0.00    -0.343 N 
HETATM   18  C   UNL     1      43.377  -8.041  10.980  1.00  0.00     0.039 A 
HETATM   19  H   UNL     1      44.641  -8.146   8.367  1.00  0.00     0.167 HD
HETATM   20  C   UNL     1      42.824  -8.431  12.222  1.00  0.00    -0.048 A 
HETATM   21  C   UNL     1      42.837  -9.798  12.560  1.00  0.00     0.010 A 
BRANCH  20  22
HETATM   22  C   UNL     1      42.234  -7.356  13.160  1.00  0.00    -0.024 C 
HETATM   23  C   UNL     1      40.916  -7.776  13.847  1.00  0.00     0.019 C 
HETATM   24  C   UNL     1      43.250  -7.034  14.278  1.00  0.00     0.019 C 
HETATM   25  C   UNL     1      41.938  -6.069  12.357  1.00  0.00     0.019 C 
ENDBRANCH  20  22
ENDBRANCH  11  12
ENDBRANCH  10  11
ENDBRANCH   8  10
ENDBRANCH   1   6
BRANCH   1  26
HETATM   26  C   UNL     1      41.828 -13.409   2.783  1.00  0.00     0.270 C 
BRANCH  26  27
HETATM   27  C   UNL     1      40.728 -12.358   2.600  1.00  0.00     0.181 C 
HETATM   28  O   UNL     1      40.611 -11.942   1.225  1.00  0.00    -0.354 OA
HETATM   29  C   UNL     1      39.281 -11.343   1.115  1.00  0.00     0.262 C 
HETATM   30  C   UNL     1      38.454 -11.817   2.329  1.00  0.00     0.198 C 
HETATM   31  C   UNL     1      39.348 -12.882   2.948  1.00  0.00     0.181 C 
BRANCH  29  32
HETATM   32  N   UNL     1      38.678 -11.678  -0.156  1.00  0.00    -0.294 N 
HETATM   33  C   UNL     1      38.872 -12.876  -0.788  1.00  0.00     0.167 A 
HETATM   34  C   UNL     1      38.092 -12.812  -1.929  1.00  0.00     0.149 A 
HETATM   35  N   UNL     1      39.656 -13.888  -0.380  1.00  0.00    -0.222 NA
HETATM   36  C   UNL     1      38.100 -13.947  -2.758  1.00  0.00     0.155 A 
HETATM   37  N   UNL     1      37.456 -11.587  -2.007  1.00  0.00    -0.236 NA
HETATM   38  N   UNL     1      38.879 -14.995  -2.401  1.00  0.00    -0.222 NA
HETATM   39  C   UNL     1      39.592 -14.915  -1.257  1.00  0.00     0.237 A 
HETATM   40  C   UNL     1      37.821 -10.940  -0.920  1.00  0.00     0.214 A 
BRANCH  36  41
HETATM   41  N   UNL     1      37.361 -14.048  -3.924  1.00  0.00    -0.382 N 
HETATM   42  H   UNL     1      36.652 -13.335  -4.043  1.00  0.00     0.157 HD
HETATM   43  H   UNL     1      37.923 -14.297  -4.728  1.00  0.00     0.157 HD
ENDBRANCH  36  41
ENDBRANCH  29  32
BRANCH  30  44
HETATM   44  O   UNL     1      38.291 -10.761   3.290  1.00  0.00    -0.388 OA
HETATM   45  H   UNL     1      39.107 -10.219   3.258  1.00  0.00     0.210 HD
ENDBRANCH  30  44
BRANCH  31  46
HETATM   46  O   UNL     1      39.187 -13.022   4.347  1.00  0.00    -0.390 OA
HETATM   47  H   UNL     1      38.336 -12.585   4.575  1.00  0.00     0.210 HD
ENDBRANCH  31  46
ENDBRANCH  26  27
ENDBRANCH   1  26
TORSDOF 12
ENDMDL
MODEL 7
REMARK VINA RESULT:      -8.7      3.727      6.612
REMARK  12 active torsions:
REMARK  status: ('A' for Active; 'I' for Inactive)
REMARK    1  A    between atoms: C_2  and  N_3 
REMARK    2  A    between atoms: N_3  and  C_5 
REMARK    3  A    between atoms: N_3  and  C_25 
REMARK    4  A    between atoms: C_7  and  C_8 
REMARK    5  A    between atoms: C_8  and  C_9 
REMARK    6  A    between atoms: C_9  and  C_10 
REMARK    7  A    between atoms: C_18  and  C_19 
REMARK    8  A    between atoms: C_25  and  C_26 
REMARK    9  A    between atoms: C_28  and  N_29 
REMARK   10  A    between atoms: C_32  and  N_33 
REMARK   11  A    between atoms: C_39  and  O_40 
REMARK   12  A    between atoms: C_41  and  O_42 
ROOT
HETATM    1  N   UNL     1      42.004 -14.123   4.031  1.00  0.00    -0.061 N 
HETATM    2  H   UNL     1      41.097 -13.753   4.355  1.00  0.00     0.280 HD
ENDROOT
BRANCH   1   3
HETATM    3  C   UNL     1      41.953 -15.640   4.218  1.00  0.00     0.180 C 
HETATM    4  C   UNL     1      42.063 -16.382   2.890  1.00  0.00     0.039 C 
HETATM    5  C   UNL     1      40.757 -16.112   5.039  1.00  0.00     0.039 C 
ENDBRANCH   1   3
BRANCH   1   6
HETATM    6  C   UNL     1      43.131 -13.503   4.819  1.00  0.00     0.189 C 
HETATM    7  C   UNL     1      43.352 -11.981   4.560  1.00  0.00     0.038 C 
HETATM    8  C   UNL     1      43.616 -11.808   6.076  1.00  0.00    -0.010 C 
HETATM    9  C   UNL     1      42.763 -13.086   6.271  1.00  0.00     0.038 C 
BRANCH   8  10
HETATM   10  C   UNL     1      45.054 -11.928   6.582  1.00  0.00     0.012 C 
BRANCH  10  11
HETATM   11  C   UNL     1      45.572 -10.586   7.109  1.00  0.00     0.079 C 
BRANCH  11  12
HETATM   12  C   UNL     1      44.937 -10.247   8.413  1.00  0.00     0.105 A 
HETATM   13  N   UNL     1      44.658 -11.086   9.390  1.00  0.00    -0.233 NA
HETATM   14  C   UNL     1      44.059 -10.326  10.369  1.00  0.00     0.085 A 
HETATM   15  C   UNL     1      43.984  -8.996   9.987  1.00  0.00     0.063 A 
HETATM   16  C   UNL     1      43.546 -10.701  11.616  1.00  0.00     0.034 A 
HETATM   17  N   UNL     1      44.558  -8.968   8.743  1.00  0.00    -0.343 N 
HETATM   18  C   UNL     1      43.422  -7.996  10.787  1.00  0.00     0.039 A 
HETATM   19  H   UNL     1      44.668  -8.146   8.167  1.00  0.00     0.167 HD
HETATM   20  C   UNL     1      42.896  -8.363  12.048  1.00  0.00    -0.048 A 
HETATM   21  C   UNL     1      42.971  -9.715  12.437  1.00  0.00     0.010 A 
BRANCH  20  22
HETATM   22  C   UNL     1      42.267  -7.280  12.950  1.00  0.00    -0.024 C 
HETATM   23  C   UNL     1      42.123  -5.900  12.270  1.00  0.00     0.019 C 
HETATM   24  C   UNL     1      40.852  -7.726  13.381  1.00  0.00     0.019 C 
HETATM   25  C   UNL     1      43.140  -7.076  14.208  1.00  0.00     0.019 C 
ENDBRANCH  20  22
ENDBRANCH  11  12
ENDBRANCH  10  11
ENDBRANCH   8  10
ENDBRANCH   1   6
BRANCH   1  26
HETATM   26  C   UNL     1      42.137 -13.655   2.573  1.00  0.00     0.270 C 
BRANCH  26  27
HETATM   27  C   UNL     1      40.931 -12.815   2.141  1.00  0.00     0.181 C 
HETATM   28  O   UNL     1      41.296 -11.819   1.166  1.00  0.00    -0.354 OA
HETATM   29  C   UNL     1      40.042 -11.439   0.514  1.00  0.00     0.262 C 
HETATM   30  C   UNL     1      39.008 -12.546   0.812  1.00  0.00     0.198 C 
HETATM   31  C   UNL     1      39.857 -13.636   1.451  1.00  0.00     0.181 C 
BRANCH  29  32
HETATM   32  N   UNL     1      40.253 -11.216  -0.899  1.00  0.00    -0.294 N 
HETATM   33  C   UNL     1      40.507  -9.983  -1.436  1.00  0.00     0.167 A 
HETATM   34  C   UNL     1      40.694 -10.211  -2.788  1.00  0.00     0.149 A 
HETATM   35  N   UNL     1      40.558  -8.811  -0.781  1.00  0.00    -0.222 NA
HETATM   36  C   UNL     1      40.992  -9.086  -3.577  1.00  0.00     0.155 A 
HETATM   37  N   UNL     1      40.529 -11.553  -3.076  1.00  0.00    -0.236 NA
HETATM   38  N   UNL     1      41.049  -7.876  -2.972  1.00  0.00    -0.222 NA
HETATM   39  C   UNL     1      40.841  -7.805  -1.640  1.00  0.00     0.237 A 
HETATM   40  C   UNL     1      40.280 -12.125  -1.917  1.00  0.00     0.214 A 
BRANCH  36  41
HETATM   41  N   UNL     1      41.224  -9.148  -4.940  1.00  0.00    -0.382 N 
HETATM   42  H   UNL     1      40.660  -9.825  -5.439  1.00  0.00     0.157 HD
HETATM   43  H   UNL     1      41.354  -8.237  -5.361  1.00  0.00     0.157 HD
ENDBRANCH  36  41
ENDBRANCH  29  32
BRANCH  30  44
HETATM   44  O   UNL     1      38.044 -12.108   1.782  1.00  0.00    -0.388 OA
HETATM   45  H   UNL     1      38.523 -11.999   2.630  1.00  0.00     0.210 HD
ENDBRANCH  30  44
BRANCH  31  46
HETATM   46  O   UNL     1      39.152 -14.443   2.374  1.00  0.00    -0.390 OA
HETATM   47  H   UNL     1      38.792 -15.202   1.862  1.00  0.00     0.210 HD
ENDBRANCH  31  46
ENDBRANCH  26  27
ENDBRANCH   1  26
TORSDOF 12
ENDMDL
MODEL 8
REMARK VINA RESULT:      -8.6      5.755     13.259
REMARK  12 active torsions:
REMARK  status: ('A' for Active; 'I' for Inactive)
REMARK    1  A    between atoms: C_2  and  N_3 
REMARK    2  A    between atoms: N_3  and  C_5 
REMARK    3  A    between atoms: N_3  and  C_25 
REMARK    4  A    between atoms: C_7  and  C_8 
REMARK    5  A    between atoms: C_8  and  C_9 
REMARK    6  A    between atoms: C_9  and  C_10 
REMARK    7  A    between atoms: C_18  and  C_19 
REMARK    8  A    between atoms: C_25  and  C_26 
REMARK    9  A    between atoms: C_28  and  N_29 
REMARK   10  A    between atoms: C_32  and  N_33 
REMARK   11  A    between atoms: C_39  and  O_40 
REMARK   12  A    between atoms: C_41  and  O_42 
ROOT
HETATM    1  N   UNL     1      41.746  -9.787  12.611  1.00  0.00    -0.061 N 
HETATM    2  H   UNL     1      41.874 -10.768  12.902  1.00  0.00     0.280 HD
ENDROOT
BRANCH   1   3
HETATM    3  C   UNL     1      40.237  -9.548  12.525  1.00  0.00     0.180 C 
HETATM    4  C   UNL     1      39.439 -10.768  12.974  1.00  0.00     0.039 C 
HETATM    5  C   UNL     1      39.779  -9.035  11.163  1.00  0.00     0.039 C 
ENDBRANCH   1   3
BRANCH   1   6
HETATM    6  C   UNL     1      42.424  -9.543  11.287  1.00  0.00     0.189 C 
HETATM    7  C   UNL     1      43.556  -8.471  11.318  1.00  0.00     0.038 C 
HETATM    8  C   UNL     1      44.376  -9.375  10.365  1.00  0.00    -0.010 C 
HETATM    9  C   UNL     1      43.549 -10.556  10.932  1.00  0.00     0.038 C 
BRANCH   8  10
HETATM   10  C   UNL     1      44.225  -9.167   8.857  1.00  0.00     0.012 C 
BRANCH  10  11
HETATM   11  C   UNL     1      45.268  -9.973   8.077  1.00  0.00     0.079 C 
BRANCH  11  12
HETATM   12  C   UNL     1      44.630 -11.114   7.362  1.00  0.00     0.105 A 
HETATM   13  N   UNL     1      44.304 -12.281   7.881  1.00  0.00    -0.233 NA
HETATM   14  C   UNL     1      43.776 -13.012   6.843  1.00  0.00     0.085 A 
HETATM   15  C   UNL     1      43.766 -12.273   5.671  1.00  0.00     0.063 A 
HETATM   16  C   UNL     1      43.283 -14.321   6.820  1.00  0.00     0.034 A 
HETATM   17  N   UNL     1      44.306 -11.065   6.027  1.00  0.00    -0.343 N 
HETATM   18  C   UNL     1      43.285 -12.766   4.454  1.00  0.00     0.039 A 
HETATM   19  H   UNL     1      44.449 -10.282   5.407  1.00  0.00     0.167 HD
HETATM   20  C   UNL     1      42.788 -14.090   4.416  1.00  0.00    -0.048 A 
HETATM   21  C   UNL     1      42.797 -14.842   5.607  1.00  0.00     0.010 A 
BRANCH  20  22
HETATM   22  C   UNL     1      42.252 -14.660   3.085  1.00  0.00    -0.024 C 
HETATM   23  C   UNL     1      42.180 -13.625   1.941  1.00  0.00     0.019 C 
HETATM   24  C   UNL     1      43.174 -15.805   2.608  1.00  0.00     0.019 C 
HETATM   25  C   UNL     1      40.824 -15.212   3.291  1.00  0.00     0.019 C 
ENDBRANCH  20  22
ENDBRANCH  11  12
ENDBRANCH  10  11
ENDBRANCH   8  10
ENDBRANCH   1   6
BRANCH   1  26
HETATM   26  C   UNL     1      42.474  -8.949  13.674  1.00  0.00     0.270 C 
BRANCH  26  27
HETATM   27  C   UNL     1      41.511  -8.000  14.396  1.00  0.00     0.181 C 
HETATM   28  O   UNL     1      41.237  -8.439  15.741  1.00  0.00    -0.354 OA
HETATM   29  C   UNL     1      40.731  -7.257  16.437  1.00  0.00     0.262 C 
HETATM   30  C   UNL     1      41.133  -6.019  15.608  1.00  0.00     0.198 C 
HETATM   31  C   UNL     1      42.080  -6.604  14.570  1.00  0.00     0.181 C 
BRANCH  29  32
HETATM   32  N   UNL     1      41.222  -7.221  17.797  1.00  0.00    -0.294 N 
HETATM   33  C   UNL     1      40.540  -7.755  18.857  1.00  0.00     0.167 A 
HETATM   34  C   UNL     1      41.365  -7.557  19.951  1.00  0.00     0.149 A 
HETATM   35  N   UNL     1      39.331  -8.338  18.829  1.00  0.00    -0.222 NA
HETATM   36  C   UNL     1      40.894  -8.041  21.184  1.00  0.00     0.155 A 
HETATM   37  N   UNL     1      42.515  -6.891  19.571  1.00  0.00    -0.236 NA
HETATM   38  N   UNL     1      39.677  -8.632  21.219  1.00  0.00    -0.222 NA
HETATM   39  C   UNL     1      38.980  -8.753  20.068  1.00  0.00     0.237 A 
HETATM   40  C   UNL     1      42.399  -6.719  18.271  1.00  0.00     0.214 A 
BRANCH  36  41
HETATM   41  N   UNL     1      41.606  -7.939  22.368  1.00  0.00    -0.382 N 
HETATM   42  H   UNL     1      41.671  -8.795  22.903  1.00  0.00     0.157 HD
HETATM   43  H   UNL     1      42.439  -7.370  22.280  1.00  0.00     0.157 HD
ENDBRANCH  36  41
ENDBRANCH  29  32
BRANCH  30  44
HETATM   44  O   UNL     1      40.001  -5.467  14.916  1.00  0.00    -0.388 OA
HETATM   45  H   UNL     1      40.267  -4.579  14.599  1.00  0.00     0.210 HD
ENDBRANCH  30  44
BRANCH  31  46
HETATM   46  O   UNL     1      42.094  -5.896  13.345  1.00  0.00    -0.390 OA
HETATM   47  H   UNL     1      41.245  -6.105  12.894  1.00  0.00     0.210 HD
ENDBRANCH  31  46
ENDBRANCH  26  27
ENDBRANCH   1  26
TORSDOF 12
ENDMDL
MODEL 9
REMARK VINA RESULT:      -8.5      3.561      6.782
REMARK  12 active torsions:
REMARK  status: ('A' for Active; 'I' for Inactive)
REMARK    1  A    between atoms: C_2  and  N_3 
REMARK    2  A    between atoms: N_3  and  C_5 
REMARK    3  A    between atoms: N_3  and  C_25 
REMARK    4  A    between atoms: C_7  and  C_8 
REMARK    5  A    between atoms: C_8  and  C_9 
REMARK    6  A    between atoms: C_9  and  C_10 
REMARK    7  A    between atoms: C_18  and  C_19 
REMARK    8  A    between atoms: C_25  and  C_26 
REMARK    9  A    between atoms: C_28  and  N_29 
REMARK   10  A    between atoms: C_32  and  N_33 
REMARK   11  A    between atoms: C_39  and  O_40 
REMARK   12  A    between atoms: C_41  and  O_42 
ROOT
HETATM    1  N   UNL     1      41.523 -16.109   2.995  1.00  0.00    -0.061 N 
HETATM    2  H   UNL     1      40.921 -16.864   3.356  1.00  0.00     0.280 HD
ENDROOT
BRANCH   1   3
HETATM    3  C   UNL     1      42.830 -16.764   2.545  1.00  0.00     0.180 C 
HETATM    4  C   UNL     1      43.289 -16.247   1.185  1.00  0.00     0.039 C 
HETATM    5  C   UNL     1      42.794 -18.289   2.593  1.00  0.00     0.039 C 
ENDBRANCH   1   3
BRANCH   1   6
HETATM    6  C   UNL     1      41.759 -15.074   4.065  1.00  0.00     0.189 C 
HETATM    7  C   UNL     1      41.866 -15.640   5.514  1.00  0.00     0.038 C 
HETATM    8  C   UNL     1      43.009 -14.628   5.776  1.00  0.00    -0.010 C 
HETATM    9  C   UNL     1      43.242 -14.645   4.245  1.00  0.00     0.038 C 
BRANCH   8  10
HETATM   10  C   UNL     1      42.647 -13.255   6.343  1.00  0.00     0.012 C 
BRANCH  10  11
HETATM   11  C   UNL     1      43.842 -12.298   6.288  1.00  0.00     0.079 C 
BRANCH  11  12
HETATM   12  C   UNL     1      43.892 -11.439   7.504  1.00  0.00     0.105 A 
HETATM   13  N   UNL     1      44.919 -11.289   8.316  1.00  0.00    -0.233 NA
HETATM   14  C   UNL     1      44.488 -10.429   9.300  1.00  0.00     0.085 A 
HETATM   15  C   UNL     1      43.179 -10.036   9.077  1.00  0.00     0.063 A 
HETATM   16  C   UNL     1      45.158  -9.938  10.426  1.00  0.00     0.034 A 
HETATM   17  N   UNL     1      42.823 -10.683   7.922  1.00  0.00    -0.343 N 
HETATM   18  C   UNL     1      42.482  -9.164   9.920  1.00  0.00     0.039 A 
HETATM   19  H   UNL     1      41.922 -10.621   7.470  1.00  0.00     0.167 HD
HETATM   20  C   UNL     1      43.147  -8.663  11.063  1.00  0.00    -0.048 A 
HETATM   21  C   UNL     1      44.478  -9.063  11.292  1.00  0.00     0.010 A 
BRANCH  20  22
HETATM   22  C   UNL     1      42.401  -7.701  12.012  1.00  0.00    -0.024 C 
HETATM   23  C   UNL     1      40.945  -8.121  12.317  1.00  0.00     0.019 C 
HETATM   24  C   UNL     1      43.147  -7.627  13.363  1.00  0.00     0.019 C 
HETATM   25  C   UNL     1      42.344  -6.290  11.386  1.00  0.00     0.019 C 
ENDBRANCH  20  22
ENDBRANCH  11  12
ENDBRANCH  10  11
ENDBRANCH   8  10
ENDBRANCH   1   6
BRANCH   1  26
HETATM   26  C   UNL     1      40.712 -15.445   1.870  1.00  0.00     0.270 C 
BRANCH  26  27
HETATM   27  C   UNL     1      40.761 -13.917   1.970  1.00  0.00     0.181 C 
HETATM   28  O   UNL     1      41.474 -13.332   0.862  1.00  0.00    -0.354 OA
HETATM   29  C   UNL     1      41.047 -11.934   0.824  1.00  0.00     0.262 C 
HETATM   30  C   UNL     1      39.742 -11.821   1.641  1.00  0.00     0.198 C 
HETATM   31  C   UNL     1      39.386 -13.277   1.906  1.00  0.00     0.181 C 
BRANCH  29  32
HETATM   32  N   UNL     1      40.908 -11.484  -0.544  1.00  0.00    -0.294 N 
HETATM   33  C   UNL     1      41.368 -10.274  -0.988  1.00  0.00     0.167 A 
HETATM   34  C   UNL     1      41.084 -10.258  -2.343  1.00  0.00     0.149 A 
HETATM   35  N   UNL     1      41.962  -9.318  -0.257  1.00  0.00    -0.222 NA
HETATM   36  C   UNL     1      41.481  -9.110  -3.051  1.00  0.00     0.155 A 
HETATM   37  N   UNL     1      40.438 -11.423  -2.713  1.00  0.00    -0.236 NA
HETATM   38  N   UNL     1      42.078  -8.108  -2.364  1.00  0.00    -0.222 NA
HETATM   39  C   UNL     1      42.288  -8.263  -1.039  1.00  0.00     0.237 A 
HETATM   40  C   UNL     1      40.362 -12.139  -1.611  1.00  0.00     0.214 A 
BRANCH  36  41
HETATM   41  N   UNL     1      41.286  -8.945  -4.412  1.00  0.00    -0.382 N 
HETATM   42  H   UNL     1      40.484  -9.433  -4.790  1.00  0.00     0.157 HD
HETATM   43  H   UNL     1      41.455  -7.997  -4.723  1.00  0.00     0.157 HD
ENDBRANCH  36  41
ENDBRANCH  29  32
BRANCH  30  44
HETATM   44  O   UNL     1      39.976 -11.184   2.907  1.00  0.00    -0.388 OA
HETATM   45  H   UNL     1      39.696 -10.250   2.811  1.00  0.00     0.210 HD
ENDBRANCH  30  44
BRANCH  31  46
HETATM   46  O   UNL     1      38.667 -13.481   3.107  1.00  0.00    -0.390 OA
HETATM   47  H   UNL     1      37.767 -13.113   2.959  1.00  0.00     0.210 HD
ENDBRANCH  31  46
ENDBRANCH  26  27
ENDBRANCH   1  26
TORSDOF 12
ENDMDL
MODEL 10
REMARK VINA RESULT:      -8.5      6.572     13.835
REMARK  12 active torsions:
REMARK  status: ('A' for Active; 'I' for Inactive)
REMARK    1  A    between atoms: C_2  and  N_3 
REMARK    2  A    between atoms: N_3  and  C_5 
REMARK    3  A    between atoms: N_3  and  C_25 
REMARK    4  A    between atoms: C_7  and  C_8 
REMARK    5  A    between atoms: C_8  and  C_9 
REMARK    6  A    between atoms: C_9  and  C_10 
REMARK    7  A    between atoms: C_18  and  C_19 
REMARK    8  A    between atoms: C_25  and  C_26 
REMARK    9  A    between atoms: C_28  and  N_29 
REMARK   10  A    between atoms: C_32  and  N_33 
REMARK   11  A    between atoms: C_39  and  O_40 
REMARK   12  A    between atoms: C_41  and  O_42 
ROOT
HETATM    1  N   UNL     1      40.234  -7.018  14.527  1.00  0.00    -0.061 N 
HETATM    2  H   UNL     1      39.939  -7.655  15.283  1.00  0.00     0.280 HD
ENDROOT
BRANCH   1   3
HETATM    3  C   UNL     1      38.958  -6.417  13.935  1.00  0.00     0.180 C 
HETATM    4  C   UNL     1      38.351  -7.313  12.860  1.00  0.00     0.039 C 
HETATM    5  C   UNL     1      39.131  -4.980  13.450  1.00  0.00     0.039 C 
ENDBRANCH   1   3
BRANCH   1   6
HETATM    6  C   UNL     1      41.028  -7.771  13.490  1.00  0.00     0.189 C 
HETATM    7  C   UNL     1      42.193  -6.963  12.841  1.00  0.00     0.038 C 
HETATM    8  C   UNL     1      43.054  -8.249  12.894  1.00  0.00    -0.010 C 
HETATM    9  C   UNL     1      42.140  -8.696  14.061  1.00  0.00     0.038 C 
BRANCH   8  10
HETATM   10  C   UNL     1      43.035  -9.187  11.685  1.00  0.00     0.012 C 
BRANCH  10  11
HETATM   11  C   UNL     1      44.455  -9.502  11.204  1.00  0.00     0.079 C 
BRANCH  11  12
HETATM   12  C   UNL     1      44.434 -10.071   9.827  1.00  0.00     0.105 A 
HETATM   13  N   UNL     1      45.482 -10.432   9.113  1.00  0.00    -0.233 NA
HETATM   14  C   UNL     1      44.976 -10.868   7.910  1.00  0.00     0.085 A 
HETATM   15  C   UNL     1      43.593 -10.784   7.895  1.00  0.00     0.063 A 
HETATM   16  C   UNL     1      45.635 -11.349   6.774  1.00  0.00     0.034 A 
HETATM   17  N   UNL     1      43.270 -10.283   9.129  1.00  0.00    -0.343 N 
HETATM   18  C   UNL     1      42.811 -11.159   6.797  1.00  0.00     0.039 A 
HETATM   19  H   UNL     1      42.334 -10.093   9.457  1.00  0.00     0.167 HD
HETATM   20  C   UNL     1      43.466 -11.643   5.641  1.00  0.00    -0.048 A 
HETATM   21  C   UNL     1      44.872 -11.729   5.656  1.00  0.00     0.010 A 
BRANCH  20  22
HETATM   22  C   UNL     1      42.627 -12.062   4.415  1.00  0.00    -0.024 C 
HETATM   23  C   UNL     1      42.984 -11.300   3.119  1.00  0.00     0.019 C 
HETATM   24  C   UNL     1      42.841 -13.566   4.134  1.00  0.00     0.019 C 
HETATM   25  C   UNL     1      41.130 -11.806   4.695  1.00  0.00     0.019 C 
ENDBRANCH  20  22
ENDBRANCH  11  12
ENDBRANCH  10  11
ENDBRANCH   8  10
ENDBRANCH   1   6
BRANCH   1  26
HETATM   26  C   UNL     1      41.177  -6.004  15.195  1.00  0.00     0.270 C 
BRANCH  26  27
HETATM   27  C   UNL     1      40.803  -5.774  16.663  1.00  0.00     0.181 C 
HETATM   28  O   UNL     1      41.005  -6.959  17.458  1.00  0.00    -0.354 OA
HETATM   29  C   UNL     1      41.076  -6.489  18.841  1.00  0.00     0.262 C 
HETATM   30  C   UNL     1      41.360  -4.972  18.804  1.00  0.00     0.198 C 
HETATM   31  C   UNL     1      41.669  -4.724  17.335  1.00  0.00     0.181 C 
BRANCH  29  32
HETATM   32  N   UNL     1      42.066  -7.240  19.581  1.00  0.00    -0.294 N 
HETATM   33  C   UNL     1      41.818  -8.464  20.140  1.00  0.00     0.167 A 
HETATM   34  C   UNL     1      43.022  -8.853  20.703  1.00  0.00     0.149 A 
HETATM   35  N   UNL     1      40.654  -9.133  20.138  1.00  0.00    -0.222 NA
HETATM   36  C   UNL     1      43.040 -10.108  21.336  1.00  0.00     0.155 A 
HETATM   37  N   UNL     1      43.978  -7.871  20.517  1.00  0.00    -0.236 NA
HETATM   38  N   UNL     1      41.892 -10.824  21.372  1.00  0.00    -0.222 NA
HETATM   39  C   UNL     1      40.789 -10.315  20.780  1.00  0.00     0.237 A 
HETATM   40  C   UNL     1      43.372  -6.927  19.829  1.00  0.00     0.214 A 
BRANCH  36  41
HETATM   41  N   UNL     1      44.167 -10.648  21.931  1.00  0.00    -0.382 N 
HETATM   42  H   UNL     1      44.205 -11.659  21.935  1.00  0.00     0.157 HD
HETATM   43  H   UNL     1      45.014 -10.141  21.705  1.00  0.00     0.157 HD
ENDBRANCH  36  41
ENDBRANCH  29  32
BRANCH  30  44
HETATM   44  O   UNL     1      40.187  -4.216  19.145  1.00  0.00    -0.388 OA
HETATM   45  H   UNL     1      39.648  -4.145  18.329  1.00  0.00     0.210 HD
ENDBRANCH  30  44
BRANCH  31  46
HETATM   46  O   UNL     1      41.337  -3.422  16.892  1.00  0.00    -0.390 OA
HETATM   47  H   UNL     1      40.556  -3.519  16.302  1.00  0.00     0.210 HD
ENDBRANCH  31  46
ENDBRANCH  26  27
ENDBRANCH   1  26
TORSDOF 12
ENDMDL
