MODEL 1
REMARK VINA RESULT:      -8.8      0.000      0.000
REMARK  4 active torsions:
REMARK  status: ('A' for Active; 'I' for Inactive)
REMARK    1  A    between atoms: C_9  and  C_10 
REMARK    2  A    between atoms: C_18  and  C_19 
REMARK       I    between atoms: C_19  and  N_20 
REMARK    3  A    between atoms: N_20  and  C_21 
REMARK    4  A    between atoms: C_24  and  O_25 
ROOT
HETATM    1  C   UNL     1      44.554 -11.601   3.814  1.00  0.00     0.070 C 
HETATM    2  C   UNL     1      43.103 -11.663   3.405  1.00  0.00     0.037 C 
HETATM    3  N   UNL     1      42.374 -10.499   3.640  1.00  0.00    -0.192 N 
HETATM    4  C   UNL     1      41.030 -10.443   3.576  1.00  0.00     0.725 A 
HETATM    5  N   UNL     1      40.337 -11.521   3.098  1.00  0.00    -0.084 N 
HETATM    6  N   UNL     1      39.004 -11.332   3.194  1.00  0.00    -0.149 NA
HETATM    7  C   UNL     1      38.968 -10.091   3.692  1.00  0.00     0.275 A 
HETATM    8  N   UNL     1      40.187  -9.511   3.939  1.00  0.00    -0.054 NA
HETATM    9  C   UNL     1      40.967 -12.776   2.672  1.00  0.00     0.204 C 
HETATM   10  C   UNL     1      42.474 -12.766   2.923  1.00  0.00     0.062 C 
HETATM   11  H   UNL     1      42.859  -9.715   4.069  1.00  0.00     0.184 HD
ENDROOT
BRANCH  10  12
HETATM   12  C   UNL     1      43.106 -14.109   2.798  1.00  0.00     0.256 C 
HETATM   13  N   UNL     1      42.881 -14.958   3.857  1.00  0.00    -0.323 N 
HETATM   14  H   UNL     1      42.393 -14.579   4.660  1.00  0.00     0.169 HD
HETATM   15  O   UNL     1      43.792 -14.332   1.806  1.00  0.00    -0.267 OA
BRANCH  13  16
HETATM   16  C   UNL     1      43.186 -16.337   3.911  1.00  0.00     0.035 A 
HETATM   17  C   UNL     1      43.710 -16.975   5.035  1.00  0.00     0.032 A 
HETATM   18  C   UNL     1      44.033 -18.337   4.994  1.00  0.00     0.039 A 
HETATM   19  C   UNL     1      43.840 -19.084   3.833  1.00  0.00     0.068 A 
HETATM   20  C   UNL     1      43.316 -18.455   2.706  1.00  0.00     0.039 A 
HETATM   21  C   UNL     1      42.988 -17.092   2.748  1.00  0.00     0.032 A 
BRANCH  19  22
HETATM   22  O   UNL     1      44.207 -20.396   3.932  1.00  0.00    -0.356 OA
HETATM   23  C   UNL     1      44.402 -20.917   5.239  1.00  0.00     0.210 C 
ENDBRANCH  19  22
ENDBRANCH  13  16
ENDBRANCH  10  12
BRANCH   9  24
HETATM   24  C   UNL     1      40.556 -13.131   1.240  1.00  0.00    -0.006 A 
HETATM   25  C   UNL     1      40.072 -14.387   0.833  1.00  0.00     0.044 A 
HETATM   26 CL   UNL     1      39.772 -15.681   1.937  1.00  0.00    -0.084 Cl
HETATM   27  C   UNL     1      39.789 -14.647  -0.514  1.00  0.00     0.048 A 
HETATM   28  C   UNL     1      39.967 -13.651  -1.468  1.00  0.00     0.035 A 
HETATM   29 CL   UNL     1      39.627 -13.979  -3.122  1.00  0.00    -0.084 Cl
HETATM   30  C   UNL     1      40.415 -12.391  -1.090  1.00  0.00     0.024 A 
HETATM   31  C   UNL     1      40.705 -12.133   0.251  1.00  0.00     0.013 A 
ENDBRANCH   9  24
TORSDOF 4
ENDMDL
MODEL 2
REMARK VINA RESULT:      -8.5      2.571      4.363
REMARK  4 active torsions:
REMARK  status: ('A' for Active; 'I' for Inactive)
REMARK    1  A    between atoms: C_9  and  C_10 
REMARK    2  A    between atoms: C_18  and  C_19 
REMARK       I    between atoms: C_19  and  N_20 
REMARK    3  A    between atoms: N_20  and  C_21 
REMARK    4  A    between atoms: C_24  and  O_25 
ROOT
HETATM    1  C   UNL     1      39.449 -14.982  -0.764  1.00  0.00     0.070 C 
HETATM    2  C   UNL     1      40.044 -13.794  -0.051  1.00  0.00     0.037 C 
HETATM    3  N   UNL     1      40.004 -12.597  -0.764  1.00  0.00    -0.192 N 
HETATM    4  C   UNL     1      40.699 -11.500  -0.406  1.00  0.00     0.725 A 
HETATM    5  N   UNL     1      41.348 -11.481   0.797  1.00  0.00    -0.084 N 
HETATM    6  N   UNL     1      42.069 -10.350   0.950  1.00  0.00    -0.149 NA
HETATM    7  C   UNL     1      41.762  -9.710  -0.183  1.00  0.00     0.275 A 
HETATM    8  N   UNL     1      40.925 -10.378  -1.039  1.00  0.00    -0.054 NA
HETATM    9  C   UNL     1      41.370 -12.611   1.734  1.00  0.00     0.204 C 
HETATM   10  C   UNL     1      40.668 -13.839   1.155  1.00  0.00     0.062 C 
HETATM   11  H   UNL     1      39.595 -12.615  -1.694  1.00  0.00     0.184 HD
ENDROOT
BRANCH  10  12
HETATM   12  C   UNL     1      40.927 -15.088   1.923  1.00  0.00     0.256 C 
HETATM   13  N   UNL     1      42.214 -15.568   1.836  1.00  0.00    -0.323 N 
HETATM   14  H   UNL     1      42.843 -15.097   1.197  1.00  0.00     0.169 HD
HETATM   15  O   UNL     1      39.988 -15.599   2.526  1.00  0.00    -0.267 OA
BRANCH  13  16
HETATM   16  C   UNL     1      42.781 -16.605   2.612  1.00  0.00     0.035 A 
HETATM   17  C   UNL     1      43.202 -16.449   3.932  1.00  0.00     0.032 A 
HETATM   18  C   UNL     1      43.800 -17.513   4.618  1.00  0.00     0.039 A 
HETATM   19  C   UNL     1      43.991 -18.748   4.000  1.00  0.00     0.068 A 
HETATM   20  C   UNL     1      43.573 -18.912   2.681  1.00  0.00     0.039 A 
HETATM   21  C   UNL     1      42.969 -17.848   1.994  1.00  0.00     0.032 A 
BRANCH  19  22
HETATM   22  O   UNL     1      44.595 -19.690   4.782  1.00  0.00    -0.356 OA
HETATM   23  C   UNL     1      43.954 -20.954   4.885  1.00  0.00     0.210 C 
ENDBRANCH  19  22
ENDBRANCH  13  16
ENDBRANCH  10  12
BRANCH   9  24
HETATM   24  C   UNL     1      40.875 -12.179   3.117  1.00  0.00    -0.006 A 
HETATM   25  C   UNL     1      41.593 -12.350   4.315  1.00  0.00     0.044 A 
HETATM   26 CL   UNL     1      43.199 -12.982   4.365  1.00  0.00    -0.084 Cl
HETATM   27  C   UNL     1      41.031 -11.992   5.547  1.00  0.00     0.048 A 
HETATM   28  C   UNL     1      39.755 -11.442   5.597  1.00  0.00     0.035 A 
HETATM   29 CL   UNL     1      39.067 -11.013   7.114  1.00  0.00    -0.084 Cl
HETATM   30  C   UNL     1      39.036 -11.234   4.427  1.00  0.00     0.024 A 
HETATM   31  C   UNL     1      39.591 -11.598   3.199  1.00  0.00     0.013 A 
ENDBRANCH   9  24
TORSDOF 4
ENDMDL
MODEL 3
REMARK VINA RESULT:      -8.1      1.171      1.593
REMARK  4 active torsions:
REMARK  status: ('A' for Active; 'I' for Inactive)
REMARK    1  A    between atoms: C_9  and  C_10 
REMARK    2  A    between atoms: C_18  and  C_19 
REMARK       I    between atoms: C_19  and  N_20 
REMARK    3  A    between atoms: N_20  and  C_21 
REMARK    4  A    between atoms: C_24  and  O_25 
ROOT
HETATM    1  C   UNL     1      44.041 -11.765   5.407  1.00  0.00     0.070 C 
HETATM    2  C   UNL     1      42.739 -11.590   4.664  1.00  0.00     0.037 C 
HETATM    3  N   UNL     1      41.941 -10.540   5.114  1.00  0.00    -0.192 N 
HETATM    4  C   UNL     1      40.653 -10.383   4.750  1.00  0.00     0.725 A 
HETATM    5  N   UNL     1      40.132 -11.180   3.769  1.00  0.00    -0.084 N 
HETATM    6  N   UNL     1      38.812 -10.955   3.601  1.00  0.00    -0.149 NA
HETATM    7  C   UNL     1      38.618  -9.968   4.482  1.00  0.00     0.275 A 
HETATM    8  N   UNL     1      39.720  -9.587   5.205  1.00  0.00    -0.054 NA
HETATM    9  C   UNL     1      40.885 -12.242   3.091  1.00  0.00     0.204 C 
HETATM   10  C   UNL     1      42.282 -12.413   3.686  1.00  0.00     0.062 C 
HETATM   11  H   UNL     1      42.281  -9.988   5.896  1.00  0.00     0.184 HD
ENDROOT
BRANCH  10  12
HETATM   12  C   UNL     1      42.964 -13.663   3.250  1.00  0.00     0.256 C 
HETATM   13  N   UNL     1      42.670 -14.778   4.001  1.00  0.00    -0.323 N 
HETATM   14  H   UNL     1      42.101 -14.644   4.828  1.00  0.00     0.169 HD
HETATM   15  O   UNL     1      43.743 -13.594   2.304  1.00  0.00    -0.267 OA
BRANCH  13  16
HETATM   16  C   UNL     1      43.012 -16.115   3.695  1.00  0.00     0.035 A 
HETATM   17  C   UNL     1      42.562 -16.794   2.563  1.00  0.00     0.032 A 
HETATM   18  C   UNL     1      42.906 -18.135   2.355  1.00  0.00     0.039 A 
HETATM   19  C   UNL     1      43.701 -18.821   3.270  1.00  0.00     0.068 A 
HETATM   20  C   UNL     1      44.156 -18.151   4.403  1.00  0.00     0.039 A 
HETATM   21  C   UNL     1      43.816 -16.806   4.611  1.00  0.00     0.032 A 
BRANCH  19  22
HETATM   22  O   UNL     1      43.949 -20.125   2.946  1.00  0.00    -0.356 OA
HETATM   23  C   UNL     1      43.932 -21.070   4.007  1.00  0.00     0.210 C 
ENDBRANCH  19  22
ENDBRANCH  13  16
ENDBRANCH  10  12
BRANCH   9  24
HETATM   24  C   UNL     1      40.852 -12.046   1.573  1.00  0.00    -0.006 A 
HETATM   25  C   UNL     1      40.535 -13.052   0.641  1.00  0.00     0.044 A 
HETATM   26 CL   UNL     1      40.028 -14.635   1.106  1.00  0.00    -0.084 Cl
HETATM   27  C   UNL     1      40.601 -12.803  -0.736  1.00  0.00     0.048 A 
HETATM   28  C   UNL     1      40.966 -11.544  -1.199  1.00  0.00     0.035 A 
HETATM   29 CL   UNL     1      41.055 -11.248  -2.892  1.00  0.00    -0.084 Cl
HETATM   30  C   UNL     1      41.255 -10.523  -0.302  1.00  0.00     0.024 A 
HETATM   31  C   UNL     1      41.197 -10.772   1.071  1.00  0.00     0.013 A 
ENDBRANCH   9  24
TORSDOF 4
ENDMDL
MODEL 4
REMARK VINA RESULT:      -8.1      2.323      4.313
REMARK  4 active torsions:
REMARK  status: ('A' for Active; 'I' for Inactive)
REMARK    1  A    between atoms: C_9  and  C_10 
REMARK    2  A    between atoms: C_18  and  C_19 
REMARK       I    between atoms: C_19  and  N_20 
REMARK    3  A    between atoms: N_20  and  C_21 
REMARK    4  A    between atoms: C_24  and  O_25 
ROOT
HETATM    1  C   UNL     1      39.986 -15.323   0.581  1.00  0.00     0.070 C 
HETATM    2  C   UNL     1      40.462 -13.946   0.971  1.00  0.00     0.037 C 
HETATM    3  N   UNL     1      39.700 -12.894   0.464  1.00  0.00    -0.192 N 
HETATM    4  C   UNL     1      40.103 -11.609   0.492  1.00  0.00     0.725 A 
HETATM    5  N   UNL     1      41.230 -11.276   1.192  1.00  0.00    -0.084 N 
HETATM    6  N   UNL     1      41.540  -9.972   1.034  1.00  0.00    -0.149 NA
HETATM    7  C   UNL     1      40.522  -9.570   0.266  1.00  0.00     0.275 A 
HETATM    8  N   UNL     1      39.619 -10.541  -0.087  1.00  0.00    -0.054 NA
HETATM    9  C   UNL     1      42.069 -12.247   1.903  1.00  0.00     0.204 C 
HETATM   10  C   UNL     1      41.589 -13.680   1.681  1.00  0.00     0.062 C 
HETATM   11  H   UNL     1      38.905 -13.127  -0.124  1.00  0.00     0.184 HD
ENDROOT
BRANCH  10  12
HETATM   12  C   UNL     1      42.571 -14.711   2.119  1.00  0.00     0.256 C 
HETATM   13  N   UNL     1      42.137 -15.533   3.133  1.00  0.00    -0.323 N 
HETATM   14  H   UNL     1      41.242 -15.317   3.555  1.00  0.00     0.169 HD
HETATM   15  O   UNL     1      43.673 -14.720   1.581  1.00  0.00    -0.267 OA
BRANCH  13  16
HETATM   16  C   UNL     1      42.773 -16.707   3.597  1.00  0.00     0.035 A 
HETATM   17  C   UNL     1      43.259 -16.869   4.894  1.00  0.00     0.032 A 
HETATM   18  C   UNL     1      43.923 -18.045   5.263  1.00  0.00     0.039 A 
HETATM   19  C   UNL     1      44.115 -19.077   4.347  1.00  0.00     0.068 A 
HETATM   20  C   UNL     1      43.633 -18.924   3.049  1.00  0.00     0.039 A 
HETATM   21  C   UNL     1      42.964 -17.748   2.679  1.00  0.00     0.032 A 
BRANCH  19  22
HETATM   22  O   UNL     1      44.787 -20.160   4.840  1.00  0.00    -0.356 OA
HETATM   23  C   UNL     1      44.004 -21.249   5.306  1.00  0.00     0.210 C 
ENDBRANCH  19  22
ENDBRANCH  13  16
ENDBRANCH  10  12
BRANCH   9  24
HETATM   24  C   UNL     1      42.238 -11.846   3.371  1.00  0.00    -0.006 A 
HETATM   25  C   UNL     1      41.182 -11.702   4.290  1.00  0.00     0.044 A 
HETATM   26 CL   UNL     1      39.542 -12.072   3.900  1.00  0.00    -0.084 Cl
HETATM   27  C   UNL     1      41.422 -11.258   5.597  1.00  0.00     0.048 A 
HETATM   28  C   UNL     1      42.718 -10.970   6.008  1.00  0.00     0.035 A 
HETATM   29 CL   UNL     1      43.004 -10.416   7.611  1.00  0.00    -0.084 Cl
HETATM   30  C   UNL     1      43.784 -11.132   5.132  1.00  0.00     0.024 A 
HETATM   31  C   UNL     1      43.546 -11.567   3.826  1.00  0.00     0.013 A 
ENDBRANCH   9  24
TORSDOF 4
ENDMDL
MODEL 5
REMARK VINA RESULT:      -8.1      3.351      7.204
REMARK  4 active torsions:
REMARK  status: ('A' for Active; 'I' for Inactive)
REMARK    1  A    between atoms: C_9  and  C_10 
REMARK    2  A    between atoms: C_18  and  C_19 
REMARK       I    between atoms: C_19  and  N_20 
REMARK    3  A    between atoms: N_20  and  C_21 
REMARK    4  A    between atoms: C_24  and  O_25 
ROOT
HETATM    1  C   UNL     1      43.123 -16.393   1.738  1.00  0.00     0.070 C 
HETATM    2  C   UNL     1      42.754 -15.908   3.118  1.00  0.00     0.037 C 
HETATM    3  N   UNL     1      43.652 -16.257   4.125  1.00  0.00    -0.192 N 
HETATM    4  C   UNL     1      43.374 -16.136   5.438  1.00  0.00     0.725 A 
HETATM    5  N   UNL     1      42.233 -15.488   5.824  1.00  0.00    -0.084 N 
HETATM    6  N   UNL     1      42.065 -15.543   7.162  1.00  0.00    -0.149 NA
HETATM    7  C   UNL     1      43.175 -16.196   7.522  1.00  0.00     0.275 A 
HETATM    8  N   UNL     1      44.004 -16.575   6.497  1.00  0.00    -0.054 NA
HETATM    9  C   UNL     1      41.250 -14.933   4.886  1.00  0.00     0.204 C 
HETATM   10  C   UNL     1      41.605 -15.257   3.436  1.00  0.00     0.062 C 
HETATM   11  H   UNL     1      44.465 -16.808   3.864  1.00  0.00     0.184 HD
ENDROOT
BRANCH  10  12
HETATM   12  C   UNL     1      40.496 -14.989   2.479  1.00  0.00     0.256 C 
HETATM   13  N   UNL     1      40.692 -13.908   1.650  1.00  0.00    -0.323 N 
HETATM   14  H   UNL     1      41.512 -13.338   1.817  1.00  0.00     0.169 HD
HETATM   15  O   UNL     1      39.506 -15.711   2.529  1.00  0.00    -0.267 OA
BRANCH  13  16
HETATM   16  C   UNL     1      39.908 -13.554   0.528  1.00  0.00     0.035 A 
HETATM   17  C   UNL     1      39.160 -12.380   0.441  1.00  0.00     0.032 A 
HETATM   18  C   UNL     1      38.368 -12.124  -0.685  1.00  0.00     0.039 A 
HETATM   19  C   UNL     1      38.309 -13.031  -1.741  1.00  0.00     0.068 A 
HETATM   20  C   UNL     1      39.054 -14.206  -1.663  1.00  0.00     0.039 A 
HETATM   21  C   UNL     1      39.851 -14.462  -0.537  1.00  0.00     0.032 A 
BRANCH  19  22
HETATM   22  O   UNL     1      37.491 -12.658  -2.769  1.00  0.00    -0.356 OA
HETATM   23  C   UNL     1      36.903 -11.367  -2.692  1.00  0.00     0.210 C 
ENDBRANCH  19  22
ENDBRANCH  13  16
ENDBRANCH  10  12
BRANCH   9  24
HETATM   24  C   UNL     1      41.004 -13.449   5.173  1.00  0.00    -0.006 A 
HETATM   25  C   UNL     1      41.934 -12.422   4.932  1.00  0.00     0.044 A 
HETATM   26 CL   UNL     1      43.458 -12.695   4.167  1.00  0.00    -0.084 Cl
HETATM   27  C   UNL     1      41.654 -11.098   5.294  1.00  0.00     0.048 A 
HETATM   28  C   UNL     1      40.435 -10.781   5.884  1.00  0.00     0.035 A 
HETATM   29 CL   UNL     1      40.100  -9.155   6.335  1.00  0.00    -0.084 Cl
HETATM   30  C   UNL     1      39.485 -11.770   6.105  1.00  0.00     0.024 A 
HETATM   31  C   UNL     1      39.767 -13.091   5.753  1.00  0.00     0.013 A 
ENDBRANCH   9  24
TORSDOF 4
ENDMDL
MODEL 6
REMARK VINA RESULT:      -8.0      2.834      6.582
REMARK  4 active torsions:
REMARK  status: ('A' for Active; 'I' for Inactive)
REMARK    1  A    between atoms: C_9  and  C_10 
REMARK    2  A    between atoms: C_18  and  C_19 
REMARK       I    between atoms: C_19  and  N_20 
REMARK    3  A    between atoms: N_20  and  C_21 
REMARK    4  A    between atoms: C_24  and  O_25 
ROOT
HETATM    1  C   UNL     1      39.087 -11.540   5.637  1.00  0.00     0.070 C 
HETATM    2  C   UNL     1      40.531 -11.969   5.564  1.00  0.00     0.037 C 
HETATM    3  N   UNL     1      41.366 -11.396   6.521  1.00  0.00    -0.192 N 
HETATM    4  C   UNL     1      42.710 -11.459   6.463  1.00  0.00     0.725 A 
HETATM    5  N   UNL     1      43.303 -12.257   5.523  1.00  0.00    -0.084 N 
HETATM    6  N   UNL     1      44.646 -12.126   5.543  1.00  0.00    -0.149 NA
HETATM    7  C   UNL     1      44.793 -11.269   6.559  1.00  0.00     0.275 A 
HETATM    8  N   UNL     1      43.633 -10.838   7.150  1.00  0.00    -0.054 NA
HETATM    9  C   UNL     1      42.561 -13.042   4.529  1.00  0.00     0.204 C 
HETATM   10  C   UNL     1      41.058 -12.778   4.608  1.00  0.00     0.062 C 
HETATM   11  H   UNL     1      40.952 -10.739   7.177  1.00  0.00     0.184 HD
ENDROOT
BRANCH  10  12
HETATM   12  C   UNL     1      40.301 -13.303   3.438  1.00  0.00     0.256 C 
HETATM   13  N   UNL     1      40.257 -12.462   2.349  1.00  0.00    -0.323 N 
HETATM   14  H   UNL     1      40.653 -11.537   2.461  1.00  0.00     0.169 HD
HETATM   15  O   UNL     1      39.757 -14.397   3.548  1.00  0.00    -0.267 OA
BRANCH  13  16
HETATM   16  C   UNL     1      39.788 -12.783   1.055  1.00  0.00     0.035 A 
HETATM   17  C   UNL     1      40.287 -13.833   0.284  1.00  0.00     0.032 A 
HETATM   18  C   UNL     1      39.803 -14.056  -1.011  1.00  0.00     0.039 A 
HETATM   19  C   UNL     1      38.817 -13.237  -1.559  1.00  0.00     0.068 A 
HETATM   20  C   UNL     1      38.313 -12.187  -0.796  1.00  0.00     0.039 A 
HETATM   21  C   UNL     1      38.793 -11.965   0.504  1.00  0.00     0.032 A 
BRANCH  19  22
HETATM   22  O   UNL     1      38.447 -13.564  -2.833  1.00  0.00    -0.356 OA
HETATM   23  C   UNL     1      38.405 -14.945  -3.160  1.00  0.00     0.210 C 
ENDBRANCH  19  22
ENDBRANCH  13  16
ENDBRANCH  10  12
BRANCH   9  24
HETATM   24  C   UNL     1      42.959 -14.518   4.596  1.00  0.00    -0.006 A 
HETATM   25  C   UNL     1      43.286 -15.312   3.482  1.00  0.00     0.044 A 
HETATM   26 CL   UNL     1      43.386 -14.683   1.878  1.00  0.00    -0.084 Cl
HETATM   27  C   UNL     1      43.567 -16.677   3.629  1.00  0.00     0.048 A 
HETATM   28  C   UNL     1      43.545 -17.261   4.891  1.00  0.00     0.035 A 
HETATM   29 CL   UNL     1      43.882 -18.939   5.063  1.00  0.00    -0.084 Cl
HETATM   30  C   UNL     1      43.255 -16.494   6.012  1.00  0.00     0.024 A 
HETATM   31  C   UNL     1      42.966 -15.136   5.867  1.00  0.00     0.013 A 
ENDBRANCH   9  24
TORSDOF 4
ENDMDL
MODEL 7
REMARK VINA RESULT:      -7.8      3.641      6.631
REMARK  4 active torsions:
REMARK  status: ('A' for Active; 'I' for Inactive)
REMARK    1  A    between atoms: C_9  and  C_10 
REMARK    2  A    between atoms: C_18  and  C_19 
REMARK       I    between atoms: C_19  and  N_20 
REMARK    3  A    between atoms: N_20  and  C_21 
REMARK    4  A    between atoms: C_24  and  O_25 
ROOT
HETATM    1  C   UNL     1      42.388 -10.885   2.308  1.00  0.00     0.070 C 
HETATM    2  C   UNL     1      41.895 -12.311   2.293  1.00  0.00     0.037 C 
HETATM    3  N   UNL     1      41.454 -12.769   1.053  1.00  0.00    -0.192 N 
HETATM    4  C   UNL     1      40.756 -13.910   0.892  1.00  0.00     0.725 A 
HETATM    5  N   UNL     1      40.605 -14.758   1.954  1.00  0.00    -0.084 N 
HETATM    6  N   UNL     1      39.802 -15.798   1.644  1.00  0.00    -0.149 NA
HETATM    7  C   UNL     1      39.549 -15.536   0.357  1.00  0.00     0.275 A 
HETATM    8  N   UNL     1      40.115 -14.391  -0.142  1.00  0.00    -0.054 NA
HETATM    9  C   UNL     1      41.133 -14.490   3.297  1.00  0.00     0.204 C 
HETATM   10  C   UNL     1      41.780 -13.109   3.386  1.00  0.00     0.062 C 
HETATM   11  H   UNL     1      41.487 -12.122   0.270  1.00  0.00     0.184 HD
ENDROOT
BRANCH  10  12
HETATM   12  C   UNL     1      42.051 -12.669   4.782  1.00  0.00     0.256 C 
HETATM   13  N   UNL     1      43.352 -12.294   5.031  1.00  0.00    -0.323 N 
HETATM   14  H   UNL     1      44.025 -12.433   4.288  1.00  0.00     0.169 HD
HETATM   15  O   UNL     1      41.127 -12.710   5.589  1.00  0.00    -0.267 OA
BRANCH  13  16
HETATM   16  C   UNL     1      43.836 -11.653   6.194  1.00  0.00     0.035 A 
HETATM   17  C   UNL     1      43.034 -10.927   7.075  1.00  0.00     0.032 A 
HETATM   18  C   UNL     1      43.598 -10.278   8.180  1.00  0.00     0.039 A 
HETATM   19  C   UNL     1      44.968 -10.341   8.425  1.00  0.00     0.068 A 
HETATM   20  C   UNL     1      45.777 -11.063   7.551  1.00  0.00     0.039 A 
HETATM   21  C   UNL     1      45.212 -11.717   6.446  1.00  0.00     0.032 A 
BRANCH  19  22
HETATM   22  O   UNL     1      45.382  -9.654   9.531  1.00  0.00    -0.356 OA
HETATM   23  C   UNL     1      44.407  -9.387  10.529  1.00  0.00     0.210 C 
ENDBRANCH  19  22
ENDBRANCH  13  16
ENDBRANCH  10  12
BRANCH   9  24
HETATM   24  C   UNL     1      42.018 -15.646   3.772  1.00  0.00    -0.006 A 
HETATM   25  C   UNL     1      43.084 -16.195   3.036  1.00  0.00     0.044 A 
HETATM   26 CL   UNL     1      43.609 -15.552   1.523  1.00  0.00    -0.084 Cl
HETATM   27  C   UNL     1      43.795 -17.303   3.516  1.00  0.00     0.048 A 
HETATM   28  C   UNL     1      43.463 -17.864   4.745  1.00  0.00     0.035 A 
HETATM   29 CL   UNL     1      44.333 -19.230   5.324  1.00  0.00    -0.084 Cl
HETATM   30  C   UNL     1      42.435 -17.324   5.507  1.00  0.00     0.024 A 
HETATM   31  C   UNL     1      41.720 -16.225   5.026  1.00  0.00     0.013 A 
ENDBRANCH   9  24
TORSDOF 4
ENDMDL
MODEL 8
REMARK VINA RESULT:      -7.5      2.704      3.328
REMARK  4 active torsions:
REMARK  status: ('A' for Active; 'I' for Inactive)
REMARK    1  A    between atoms: C_9  and  C_10 
REMARK    2  A    between atoms: C_18  and  C_19 
REMARK       I    between atoms: C_19  and  N_20 
REMARK    3  A    between atoms: N_20  and  C_21 
REMARK    4  A    between atoms: C_24  and  O_25 
ROOT
HETATM    1  C   UNL     1      44.805 -11.499   5.907  1.00  0.00     0.070 C 
HETATM    2  C   UNL     1      43.309 -11.311   5.862  1.00  0.00     0.037 C 
HETATM    3  N   UNL     1      42.805 -10.371   6.759  1.00  0.00    -0.192 N 
HETATM    4  C   UNL     1      41.494 -10.246   7.040  1.00  0.00     0.725 A 
HETATM    5  N   UNL     1      40.581 -10.948   6.303  1.00  0.00    -0.084 N 
HETATM    6  N   UNL     1      39.329 -10.781   6.780  1.00  0.00    -0.149 NA
HETATM    7  C   UNL     1      39.561  -9.920   7.777  1.00  0.00     0.275 A 
HETATM    8  N   UNL     1      40.872  -9.566   7.968  1.00  0.00    -0.054 NA
HETATM    9  C   UNL     1      40.940 -11.876   5.224  1.00  0.00     0.204 C 
HETATM   10  C   UNL     1      42.453 -12.036   5.095  1.00  0.00     0.062 C 
HETATM   11  H   UNL     1      43.466  -9.898   7.369  1.00  0.00     0.184 HD
ENDROOT
BRANCH  10  12
HETATM   12  C   UNL     1      42.859 -13.184   4.236  1.00  0.00     0.256 C 
HETATM   13  N   UNL     1      42.625 -14.427   4.778  1.00  0.00    -0.323 N 
HETATM   14  H   UNL     1      42.291 -14.461   5.733  1.00  0.00     0.169 HD
HETATM   15  O   UNL     1      43.391 -12.936   3.159  1.00  0.00    -0.267 OA
BRANCH  13  16
HETATM   16  C   UNL     1      42.723 -15.669   4.111  1.00  0.00     0.035 A 
HETATM   17  C   UNL     1      43.641 -16.664   4.448  1.00  0.00     0.032 A 
HETATM   18  C   UNL     1      43.710 -17.849   3.705  1.00  0.00     0.039 A 
HETATM   19  C   UNL     1      42.867 -18.062   2.616  1.00  0.00     0.068 A 
HETATM   20  C   UNL     1      41.946 -17.074   2.273  1.00  0.00     0.039 A 
HETATM   21  C   UNL     1      41.874 -15.888   3.019  1.00  0.00     0.032 A 
BRANCH  19  22
HETATM   22  O   UNL     1      43.049 -19.256   1.979  1.00  0.00    -0.356 OA
HETATM   23  C   UNL     1      43.792 -20.251   2.669  1.00  0.00     0.210 C 
ENDBRANCH  19  22
ENDBRANCH  13  16
ENDBRANCH  10  12
BRANCH   9  24
HETATM   24  C   UNL     1      40.220 -11.502   3.925  1.00  0.00    -0.006 A 
HETATM   25  C   UNL     1      40.324 -10.255   3.281  1.00  0.00     0.044 A 
HETATM   26 CL   UNL     1      41.381  -9.003   3.826  1.00  0.00    -0.084 Cl
HETATM   27  C   UNL     1      39.570  -9.973   2.135  1.00  0.00     0.048 A 
HETATM   28  C   UNL     1      38.719 -10.937   1.606  1.00  0.00     0.035 A 
HETATM   29 CL   UNL     1      37.790 -10.580   0.203  1.00  0.00    -0.084 Cl
HETATM   30  C   UNL     1      38.620 -12.187   2.203  1.00  0.00     0.024 A 
HETATM   31  C   UNL     1      39.363 -12.467   3.351  1.00  0.00     0.013 A 
ENDBRANCH   9  24
TORSDOF 4
ENDMDL
MODEL 9
REMARK VINA RESULT:      -7.4     15.483     17.475
REMARK  4 active torsions:
REMARK  status: ('A' for Active; 'I' for Inactive)
REMARK    1  A    between atoms: C_9  and  C_10 
REMARK    2  A    between atoms: C_18  and  C_19 
REMARK       I    between atoms: C_19  and  N_20 
REMARK    3  A    between atoms: N_20  and  C_21 
REMARK    4  A    between atoms: C_24  and  O_25 
ROOT
HETATM    1  C   UNL     1      47.324 -30.292   3.501  1.00  0.00     0.070 C 
HETATM    2  C   UNL     1      46.109 -30.224   2.611  1.00  0.00     0.037 C 
HETATM    3  N   UNL     1      44.947 -29.770   3.233  1.00  0.00    -0.192 N 
HETATM    4  C   UNL     1      43.723 -29.876   2.680  1.00  0.00     0.725 A 
HETATM    5  N   UNL     1      43.608 -30.292   1.383  1.00  0.00    -0.084 N 
HETATM    6  N   UNL     1      42.314 -30.434   1.024  1.00  0.00    -0.149 NA
HETATM    7  C   UNL     1      41.704 -30.033   2.145  1.00  0.00     0.275 A 
HETATM    8  N   UNL     1      42.531 -29.681   3.182  1.00  0.00    -0.054 NA
HETATM    9  C   UNL     1      44.748 -30.673   0.540  1.00  0.00     0.204 C 
HETATM   10  C   UNL     1      46.061 -30.644   1.320  1.00  0.00     0.062 C 
HETATM   11  H   UNL     1      45.001 -29.532   4.219  1.00  0.00     0.184 HD
ENDROOT
BRANCH  10  12
HETATM   12  C   UNL     1      47.189 -31.310   0.610  1.00  0.00     0.256 C 
HETATM   13  N   UNL     1      48.214 -30.472   0.235  1.00  0.00    -0.323 N 
HETATM   14  H   UNL     1      48.082 -29.480   0.384  1.00  0.00     0.169 HD
HETATM   15  O   UNL     1      47.098 -32.513   0.387  1.00  0.00    -0.267 OA
BRANCH  13  16
HETATM   16  C   UNL     1      49.479 -30.860  -0.265  1.00  0.00     0.035 A 
HETATM   17  C   UNL     1      50.404 -31.613   0.457  1.00  0.00     0.032 A 
HETATM   18  C   UNL     1      51.657 -31.914  -0.090  1.00  0.00     0.039 A 
HETATM   19  C   UNL     1      52.008 -31.471  -1.364  1.00  0.00     0.068 A 
HETATM   20  C   UNL     1      51.090 -30.720  -2.093  1.00  0.00     0.039 A 
HETATM   21  C   UNL     1      49.832 -30.420  -1.547  1.00  0.00     0.032 A 
BRANCH  19  22
HETATM   22  O   UNL     1      53.263 -31.830  -1.767  1.00  0.00    -0.356 OA
HETATM   23  C   UNL     1      53.852 -32.953  -1.128  1.00  0.00     0.210 C 
ENDBRANCH  19  22
ENDBRANCH  13  16
ENDBRANCH  10  12
BRANCH   9  24
HETATM   24  C   UNL     1      44.755 -29.865  -0.760  1.00  0.00    -0.006 A 
HETATM   25  C   UNL     1      44.465 -30.391  -2.033  1.00  0.00     0.044 A 
HETATM   26 CL   UNL     1      43.951 -32.021  -2.279  1.00  0.00    -0.084 Cl
HETATM   27  C   UNL     1      44.568 -29.595  -3.181  1.00  0.00     0.048 A 
HETATM   28  C   UNL     1      44.942 -28.260  -3.071  1.00  0.00     0.035 A 
HETATM   29 CL   UNL     1      45.075 -27.291  -4.486  1.00  0.00    -0.084 Cl
HETATM   30  C   UNL     1      45.203 -27.706  -1.825  1.00  0.00     0.024 A 
HETATM   31  C   UNL     1      45.110 -28.500  -0.681  1.00  0.00     0.013 A 
ENDBRANCH   9  24
TORSDOF 4
ENDMDL
MODEL 10
REMARK VINA RESULT:      -7.4     15.816     17.648
REMARK  4 active torsions:
REMARK  status: ('A' for Active; 'I' for Inactive)
REMARK    1  A    between atoms: C_9  and  C_10 
REMARK    2  A    between atoms: C_18  and  C_19 
REMARK       I    between atoms: C_19  and  N_20 
REMARK    3  A    between atoms: N_20  and  C_21 
REMARK    4  A    between atoms: C_24  and  O_25 
ROOT
HETATM    1  C   UNL     1      47.469 -28.860   2.659  1.00  0.00     0.070 C 
HETATM    2  C   UNL     1      46.229 -29.360   1.961  1.00  0.00     0.037 C 
HETATM    3  N   UNL     1      45.027 -28.870   2.469  1.00  0.00    -0.192 N 
HETATM    4  C   UNL     1      43.824 -29.385   2.149  1.00  0.00     0.725 A 
HETATM    5  N   UNL     1      43.740 -30.321   1.156  1.00  0.00    -0.084 N 
HETATM    6  N   UNL     1      42.483 -30.797   1.034  1.00  0.00    -0.149 NA
HETATM    7  C   UNL     1      41.852 -30.059   1.954  1.00  0.00     0.275 A 
HETATM    8  N   UNL     1      42.636 -29.181   2.657  1.00  0.00    -0.054 NA
HETATM    9  C   UNL     1      44.899 -30.842   0.421  1.00  0.00     0.204 C 
HETATM   10  C   UNL     1      46.212 -30.287   0.969  1.00  0.00     0.062 C 
HETATM   11  H   UNL     1      45.073 -28.233   3.260  1.00  0.00     0.184 HD
ENDROOT
BRANCH  10  12
HETATM   12  C   UNL     1      47.416 -31.009   0.470  1.00  0.00     0.256 C 
HETATM   13  N   UNL     1      48.264 -30.257  -0.309  1.00  0.00    -0.323 N 
HETATM   14  H   UNL     1      47.962 -29.322  -0.554  1.00  0.00     0.169 HD
HETATM   15  O   UNL     1      47.533 -32.197   0.755  1.00  0.00    -0.267 OA
BRANCH  13  16
HETATM   16  C   UNL     1      49.560 -30.622  -0.740  1.00  0.00     0.035 A 
HETATM   17  C   UNL     1      50.051 -30.381  -2.022  1.00  0.00     0.032 A 
HETATM   18  C   UNL     1      51.330 -30.819  -2.388  1.00  0.00     0.039 A 
HETATM   19  C   UNL     1      52.139 -31.504  -1.483  1.00  0.00     0.068 A 
HETATM   20  C   UNL     1      51.656 -31.749  -0.199  1.00  0.00     0.039 A 
HETATM   21  C   UNL     1      50.377 -31.307   0.169  1.00  0.00     0.032 A 
BRANCH  19  22
HETATM   22  O   UNL     1      53.356 -31.880  -1.976  1.00  0.00    -0.356 OA
HETATM   23  C   UNL     1      53.991 -32.988  -1.356  1.00  0.00     0.210 C 
ENDBRANCH  19  22
ENDBRANCH  13  16
ENDBRANCH  10  12
BRANCH   9  24
HETATM   24  C   UNL     1      44.706 -30.668  -1.088  1.00  0.00    -0.006 A 
HETATM   25  C   UNL     1      44.685 -29.430  -1.756  1.00  0.00     0.044 A 
HETATM   26 CL   UNL     1      44.987 -27.929  -0.960  1.00  0.00    -0.084 Cl
HETATM   27  C   UNL     1      44.428 -29.360  -3.132  1.00  0.00     0.048 A 
HETATM   28  C   UNL     1      44.208 -30.524  -3.860  1.00  0.00     0.035 A 
HETATM   29 CL   UNL     1      43.884 -30.429  -5.547  1.00  0.00    -0.084 Cl
HETATM   30  C   UNL     1      44.254 -31.762  -3.232  1.00  0.00     0.024 A 
HETATM   31  C   UNL     1      44.501 -31.834  -1.860  1.00  0.00     0.013 A 
ENDBRANCH   9  24
TORSDOF 4
ENDMDL
