MODEL 1
REMARK VINA RESULT:      -8.8      0.000      0.000
REMARK  6 active torsions:
REMARK  status: ('A' for Active; 'I' for Inactive)
REMARK    1  A    between atoms: C_3  and  N_4 
REMARK       I    between atoms: N_4  and  C_5 
REMARK    2  A    between atoms: C_5  and  C_6 
REMARK    3  A    between atoms: C_14  and  N_15 
REMARK       I    between atoms: N_15  and  C_16 
REMARK       I    between atoms: C_16  and  N_17 
REMARK    4  A    between atoms: N_17  and  C_18 
REMARK    5  A    between atoms: C_18  and  C_19 
REMARK    6  A    between atoms: C_19  and  N_20 
ROOT
HETATM    1  N   UNL     1      43.244 -12.083   3.390  1.00  0.00    -0.309 N 
HETATM    2  C   UNL     1      43.105 -13.397   3.094  1.00  0.00     0.321 C 
HETATM    3  N   UNL     1      42.282 -14.141   3.873  1.00  0.00    -0.337 N 
HETATM    4  O   UNL     1      43.642 -13.871   2.092  1.00  0.00    -0.247 OA
HETATM    5  H   UNL     1      43.631 -11.548   2.620  1.00  0.00     0.170 HD
HETATM    6  H   UNL     1      41.706 -13.623   4.527  1.00  0.00     0.164 HD
ENDROOT
BRANCH   1   7
HETATM    7  C   UNL     1      43.182 -11.394   4.619  1.00  0.00     0.036 A 
HETATM    8  C   UNL     1      42.074 -10.677   5.060  1.00  0.00     0.032 A 
HETATM    9  C   UNL     1      42.065 -10.096   6.335  1.00  0.00     0.032 A 
HETATM   10  C   UNL     1      43.157 -10.226   7.200  1.00  0.00     0.041 A 
HETATM   11  C   UNL     1      44.284 -10.948   6.762  1.00  0.00    -0.033 A 
HETATM   12  C   UNL     1      45.497 -11.155   7.632  1.00  0.00     0.050 C 
HETATM   13  C   UNL     1      44.275 -11.531   5.479  1.00  0.00     0.038 A 
BRANCH  10  14
HETATM   14  N   UNL     1      43.161  -9.687   8.504  1.00  0.00    -0.321 N 
HETATM   15  C   UNL     1      43.634  -8.461   8.940  1.00  0.00     0.279 C 
HETATM   16  O   UNL     1      44.178  -7.617   8.236  1.00  0.00    -0.265 OA
HETATM   17  H   UNL     1      42.727 -10.234   9.239  1.00  0.00     0.169 HD
BRANCH  15  18
HETATM   18  C   UNL     1      43.402  -8.256  10.360  1.00  0.00     0.142 A 
HETATM   19  O   UNL     1      42.568  -7.241  10.763  1.00  0.00    -0.317 OA
HETATM   20  C   UNL     1      42.530  -7.270  12.120  1.00  0.00     0.143 A 
HETATM   21  C   UNL     1      43.329  -8.278  12.604  1.00  0.00     0.027 A 
HETATM   22  C   UNL     1      43.890  -8.916  11.471  1.00  0.00     0.045 A 
ENDBRANCH  15  18
ENDBRANCH  10  14
ENDBRANCH   1   7
BRANCH   3  23
HETATM   23  C   UNL     1      42.178 -15.605   3.877  1.00  0.00     0.108 C 
HETATM   24  C   UNL     1      40.817 -16.037   4.415  1.00  0.00     0.034 C 
BRANCH  23  25
HETATM   25  C   UNL     1      43.387 -16.374   4.494  1.00  0.00     0.259 C 
BRANCH  25  26
HETATM   26  N   UNL     1      43.321 -17.885   4.397  1.00  0.00    -0.069 N 
HETATM   27  H   UNL     1      42.312 -18.125   4.505  1.00  0.00     0.280 HD
HETATM   28  C   UNL     1      43.762 -18.458   3.076  1.00  0.00     0.239 C 
HETATM   29  C   UNL     1      43.417 -19.949   3.030  1.00  0.00     0.007 C 
HETATM   30  C   UNL     1      44.093 -20.690   4.188  1.00  0.00     0.007 C 
HETATM   31  C   UNL     1      43.822 -20.554   1.688  1.00  0.00     0.011 C 
HETATM   32  C   UNL     1      43.730 -20.059   5.528  1.00  0.00     0.028 C 
HETATM   33  C   UNL     1      44.013 -18.563   5.555  1.00  0.00     0.235 C 
ENDBRANCH  25  26
ENDBRANCH  23  25
ENDBRANCH   3  23
TORSDOF 6
ENDMDL
MODEL 2
REMARK VINA RESULT:      -8.7      2.161     10.383
REMARK  6 active torsions:
REMARK  status: ('A' for Active; 'I' for Inactive)
REMARK    1  A    between atoms: C_3  and  N_4 
REMARK       I    between atoms: N_4  and  C_5 
REMARK    2  A    between atoms: C_5  and  C_6 
REMARK    3  A    between atoms: C_14  and  N_15 
REMARK       I    between atoms: N_15  and  C_16 
REMARK       I    between atoms: C_16  and  N_17 
REMARK    4  A    between atoms: N_17  and  C_18 
REMARK    5  A    between atoms: C_18  and  C_19 
REMARK    6  A    between atoms: C_19  and  N_20 
ROOT
HETATM    1  N   UNL     1      41.841 -11.358   5.913  1.00  0.00    -0.309 N 
HETATM    2  C   UNL     1      42.420 -10.537   6.823  1.00  0.00     0.321 C 
HETATM    3  N   UNL     1      43.754 -10.660   7.033  1.00  0.00    -0.337 N 
HETATM    4  O   UNL     1      41.764  -9.650   7.369  1.00  0.00    -0.247 OA
HETATM    5  H   UNL     1      40.933 -11.024   5.609  1.00  0.00     0.170 HD
HETATM    6  H   UNL     1      44.251 -11.253   6.377  1.00  0.00     0.164 HD
ENDROOT
BRANCH   1   7
HETATM    7  C   UNL     1      42.154 -12.673   5.515  1.00  0.00     0.036 A 
HETATM    8  C   UNL     1      41.956 -13.800   6.308  1.00  0.00     0.032 A 
HETATM    9  C   UNL     1      42.212 -15.080   5.800  1.00  0.00     0.032 A 
HETATM   10  C   UNL     1      42.660 -15.265   4.487  1.00  0.00     0.041 A 
HETATM   11  C   UNL     1      42.865 -14.131   3.677  1.00  0.00    -0.033 A 
HETATM   12  C   UNL     1      43.328 -14.235   2.247  1.00  0.00     0.050 C 
HETATM   13  C   UNL     1      42.598 -12.850   4.201  1.00  0.00     0.038 A 
BRANCH  10  14
HETATM   14  N   UNL     1      42.887 -16.543   3.935  1.00  0.00    -0.321 N 
HETATM   15  C   UNL     1      43.808 -17.506   4.312  1.00  0.00     0.279 C 
HETATM   16  O   UNL     1      44.634 -17.387   5.209  1.00  0.00    -0.265 OA
HETATM   17  H   UNL     1      42.278 -16.843   3.181  1.00  0.00     0.169 HD
BRANCH  15  18
HETATM   18  C   UNL     1      43.687 -18.721   3.523  1.00  0.00     0.142 A 
HETATM   19  O   UNL     1      44.050 -19.922   4.082  1.00  0.00    -0.317 OA
HETATM   20  C   UNL     1      43.842 -20.879   3.142  1.00  0.00     0.143 A 
HETATM   21  C   UNL     1      43.359 -20.320   1.982  1.00  0.00     0.027 A 
HETATM   22  C   UNL     1      43.256 -18.930   2.227  1.00  0.00     0.045 A 
ENDBRANCH  15  18
ENDBRANCH  10  14
ENDBRANCH   1   7
BRANCH   3  23
HETATM   23  C   UNL     1      44.521 -10.051   8.124  1.00  0.00     0.108 C 
HETATM   24  C   UNL     1      46.016 -10.145   7.837  1.00  0.00     0.034 C 
BRANCH  23  25
HETATM   25  C   UNL     1      44.114 -10.481   9.568  1.00  0.00     0.259 C 
BRANCH  25  26
HETATM   26  N   UNL     1      43.287  -9.475  10.343  1.00  0.00    -0.069 N 
HETATM   27  H   UNL     1      42.300  -9.648  10.055  1.00  0.00     0.280 HD
HETATM   28  C   UNL     1      43.333  -9.631  11.840  1.00  0.00     0.239 C 
HETATM   29  C   UNL     1      42.279  -8.723  12.477  1.00  0.00     0.007 C 
HETATM   30  C   UNL     1      42.522  -7.263  12.083  1.00  0.00     0.007 C 
HETATM   31  C   UNL     1      42.277  -8.882  13.996  1.00  0.00     0.011 C 
HETATM   32  C   UNL     1      42.572  -7.106  10.567  1.00  0.00     0.028 C 
HETATM   33  C   UNL     1      43.577  -8.054   9.924  1.00  0.00     0.235 C 
ENDBRANCH  25  26
ENDBRANCH  23  25
ENDBRANCH   3  23
TORSDOF 6
ENDMDL
MODEL 3
REMARK VINA RESULT:      -8.3      2.541      4.369
REMARK  6 active torsions:
REMARK  status: ('A' for Active; 'I' for Inactive)
REMARK    1  A    between atoms: C_3  and  N_4 
REMARK       I    between atoms: N_4  and  C_5 
REMARK    2  A    between atoms: C_5  and  C_6 
REMARK    3  A    between atoms: C_14  and  N_15 
REMARK       I    between atoms: N_15  and  C_16 
REMARK       I    between atoms: C_16  and  N_17 
REMARK    4  A    between atoms: N_17  and  C_18 
REMARK    5  A    between atoms: C_18  and  C_19 
REMARK    6  A    between atoms: C_19  and  N_20 
ROOT
HETATM    1  N   UNL     1      45.804 -10.190   7.328  1.00  0.00    -0.309 N 
HETATM    2  C   UNL     1      45.406 -10.989   6.309  1.00  0.00     0.321 C 
HETATM    3  N   UNL     1      44.076 -11.115   6.080  1.00  0.00    -0.337 N 
HETATM    4  O   UNL     1      46.237 -11.507   5.561  1.00  0.00    -0.247 OA
HETATM    5  H   UNL     1      46.780  -9.923   7.257  1.00  0.00     0.170 HD
HETATM    6  H   UNL     1      43.478 -10.475   6.592  1.00  0.00     0.164 HD
ENDROOT
BRANCH   1   7
HETATM    7  C   UNL     1      45.191  -9.877   8.558  1.00  0.00     0.036 A 
HETATM    8  C   UNL     1      45.345 -10.623   9.722  1.00  0.00     0.032 A 
HETATM    9  C   UNL     1      44.770 -10.190  10.925  1.00  0.00     0.032 A 
HETATM   10  C   UNL     1      44.040  -8.999  10.994  1.00  0.00     0.041 A 
HETATM   11  C   UNL     1      43.876  -8.237   9.821  1.00  0.00    -0.033 A 
HETATM   12  C   UNL     1      43.121  -6.934   9.804  1.00  0.00     0.050 C 
HETATM   13  C   UNL     1      44.465  -8.683   8.620  1.00  0.00     0.038 A 
BRANCH  10  14
HETATM   14  N   UNL     1      43.484  -8.517  12.198  1.00  0.00    -0.321 N 
HETATM   15  C   UNL     1      42.486  -9.071  12.982  1.00  0.00     0.279 C 
HETATM   16  O   UNL     1      41.874 -10.103  12.731  1.00  0.00    -0.265 OA
HETATM   17  H   UNL     1      43.880  -7.670  12.591  1.00  0.00     0.169 HD
BRANCH  15  18
HETATM   18  C   UNL     1      42.236  -8.292  14.184  1.00  0.00     0.142 A 
HETATM   19  O   UNL     1      41.273  -8.715  15.068  1.00  0.00    -0.317 OA
HETATM   20  C   UNL     1      41.243  -7.817  16.086  1.00  0.00     0.143 A 
HETATM   21  C   UNL     1      42.163  -6.817  15.874  1.00  0.00     0.027 A 
HETATM   22  C   UNL     1      42.805  -7.123  14.650  1.00  0.00     0.045 A 
ENDBRANCH  15  18
ENDBRANCH  10  14
ENDBRANCH   1   7
BRANCH   3  23
HETATM   23  C   UNL     1      43.435 -12.099   5.201  1.00  0.00     0.108 C 
HETATM   24  C   UNL     1      42.869 -11.412   3.962  1.00  0.00     0.034 C 
BRANCH  23  25
HETATM   25  C   UNL     1      42.450 -13.093   5.892  1.00  0.00     0.259 C 
BRANCH  25  26
HETATM   26  N   UNL     1      42.820 -14.559   5.789  1.00  0.00    -0.069 N 
HETATM   27  H   UNL     1      42.027 -15.076   6.227  1.00  0.00     0.280 HD
HETATM   28  C   UNL     1      42.955 -15.085   4.384  1.00  0.00     0.239 C 
HETATM   29  C   UNL     1      43.087 -16.609   4.424  1.00  0.00     0.007 C 
HETATM   30  C   UNL     1      44.297 -17.020   5.268  1.00  0.00     0.007 C 
HETATM   31  C   UNL     1      43.192 -17.178   3.011  1.00  0.00     0.011 C 
HETATM   32  C   UNL     1      44.221 -16.415   6.665  1.00  0.00     0.028 C 
HETATM   33  C   UNL     1      44.027 -14.905   6.629  1.00  0.00     0.235 C 
ENDBRANCH  25  26
ENDBRANCH  23  25
ENDBRANCH   3  23
TORSDOF 6
ENDMDL
MODEL 4
REMARK VINA RESULT:      -8.0      2.044      3.378
REMARK  6 active torsions:
REMARK  status: ('A' for Active; 'I' for Inactive)
REMARK    1  A    between atoms: C_3  and  N_4 
REMARK       I    between atoms: N_4  and  C_5 
REMARK    2  A    between atoms: C_5  and  C_6 
REMARK    3  A    between atoms: C_14  and  N_15 
REMARK       I    between atoms: N_15  and  C_16 
REMARK       I    between atoms: C_16  and  N_17 
REMARK    4  A    between atoms: N_17  and  C_18 
REMARK    5  A    between atoms: C_18  and  C_19 
REMARK    6  A    between atoms: C_19  and  N_20 
ROOT
HETATM    1  N   UNL     1      43.357 -11.065   6.166  1.00  0.00    -0.309 N 
HETATM    2  C   UNL     1      42.996 -12.322   5.814  1.00  0.00     0.321 C 
HETATM    3  N   UNL     1      41.860 -12.832   6.350  1.00  0.00    -0.337 N 
HETATM    4  O   UNL     1      43.636 -12.940   4.962  1.00  0.00    -0.247 OA
HETATM    5  H   UNL     1      44.032 -10.659   5.526  1.00  0.00     0.170 HD
HETATM    6  H   UNL     1      41.277 -12.174   6.857  1.00  0.00     0.164 HD
ENDROOT
BRANCH   1   7
HETATM    7  C   UNL     1      43.159 -10.339   7.358  1.00  0.00     0.036 A 
HETATM    8  C   UNL     1      41.996  -9.638   7.664  1.00  0.00     0.032 A 
HETATM    9  C   UNL     1      41.849  -9.017   8.912  1.00  0.00     0.032 A 
HETATM   10  C   UNL     1      42.853  -9.090   9.883  1.00  0.00     0.041 A 
HETATM   11  C   UNL     1      44.035  -9.796   9.582  1.00  0.00    -0.033 A 
HETATM   12  C   UNL     1      45.160  -9.943  10.573  1.00  0.00     0.050 C 
HETATM   13  C   UNL     1      44.165 -10.420   8.325  1.00  0.00     0.038 A 
BRANCH  10  14
HETATM   14  N   UNL     1      42.717  -8.510  11.162  1.00  0.00    -0.321 N 
HETATM   15  C   UNL     1      42.602  -7.174  11.506  1.00  0.00     0.279 C 
HETATM   16  O   UNL     1      42.630  -6.232  10.722  1.00  0.00    -0.265 OA
HETATM   17  H   UNL     1      42.650  -9.137  11.957  1.00  0.00     0.169 HD
BRANCH  15  18
HETATM   18  C   UNL     1      42.422  -6.989  12.936  1.00  0.00     0.142 A 
HETATM   19  O   UNL     1      41.318  -6.308  13.390  1.00  0.00    -0.317 OA
HETATM   20  C   UNL     1      41.397  -6.278  14.746  1.00  0.00     0.143 A 
HETATM   21  C   UNL     1      42.534  -6.918  15.178  1.00  0.00     0.027 A 
HETATM   22  C   UNL     1      43.194  -7.379  14.013  1.00  0.00     0.045 A 
ENDBRANCH  15  18
ENDBRANCH  10  14
ENDBRANCH   1   7
BRANCH   3  23
HETATM   23  C   UNL     1      41.425 -14.232   6.295  1.00  0.00     0.108 C 
HETATM   24  C   UNL     1      42.480 -15.139   6.921  1.00  0.00     0.034 C 
BRANCH  23  25
HETATM   25  C   UNL     1      40.888 -14.725   4.915  1.00  0.00     0.259 C 
BRANCH  25  26
HETATM   26  N   UNL     1      41.944 -15.173   3.924  1.00  0.00    -0.069 N 
HETATM   27  H   UNL     1      42.858 -14.992   4.392  1.00  0.00     0.280 HD
HETATM   28  C   UNL     1      41.917 -16.640   3.584  1.00  0.00     0.239 C 
HETATM   29  C   UNL     1      43.167 -16.997   2.777  1.00  0.00     0.007 C 
HETATM   30  C   UNL     1      43.240 -16.152   1.501  1.00  0.00     0.007 C 
HETATM   31  C   UNL     1      43.187 -18.487   2.444  1.00  0.00     0.011 C 
HETATM   32  C   UNL     1      43.172 -14.664   1.825  1.00  0.00     0.028 C 
HETATM   33  C   UNL     1      41.961 -14.316   2.681  1.00  0.00     0.235 C 
ENDBRANCH  25  26
ENDBRANCH  23  25
ENDBRANCH   3  23
TORSDOF 6
ENDMDL
MODEL 5
REMARK VINA RESULT:      -8.0      2.004     10.154
REMARK  6 active torsions:
REMARK  status: ('A' for Active; 'I' for Inactive)
REMARK    1  A    between atoms: C_3  and  N_4 
REMARK       I    between atoms: N_4  and  C_5 
REMARK    2  A    between atoms: C_5  and  C_6 
REMARK    3  A    between atoms: C_14  and  N_15 
REMARK       I    between atoms: N_15  and  C_16 
REMARK       I    between atoms: C_16  and  N_17 
REMARK    4  A    between atoms: N_17  and  C_18 
REMARK    5  A    between atoms: C_18  and  C_19 
REMARK    6  A    between atoms: C_19  and  N_20 
ROOT
HETATM    1  N   UNL     1      41.460 -10.302   5.917  1.00  0.00    -0.309 N 
HETATM    2  C   UNL     1      41.911  -9.623   6.999  1.00  0.00     0.321 C 
HETATM    3  N   UNL     1      43.190  -9.834   7.395  1.00  0.00    -0.337 N 
HETATM    4  O   UNL     1      41.203  -8.775   7.542  1.00  0.00    -0.247 OA
HETATM    5  H   UNL     1      40.622  -9.892   5.519  1.00  0.00     0.170 HD
HETATM    6  H   UNL     1      43.768 -10.369   6.756  1.00  0.00     0.164 HD
ENDROOT
BRANCH   1   7
HETATM    7  C   UNL     1      41.794 -11.576   5.412  1.00  0.00     0.036 A 
HETATM    8  C   UNL     1      42.793 -11.809   4.472  1.00  0.00     0.032 A 
HETATM    9  C   UNL     1      43.118 -13.118   4.091  1.00  0.00     0.032 A 
HETATM   10  C   UNL     1      42.463 -14.221   4.648  1.00  0.00     0.041 A 
HETATM   11  C   UNL     1      41.449 -13.995   5.599  1.00  0.00    -0.033 A 
HETATM   12  C   UNL     1      40.702 -15.122   6.264  1.00  0.00     0.050 C 
HETATM   13  C   UNL     1      41.136 -12.673   5.976  1.00  0.00     0.038 A 
BRANCH  10  14
HETATM   14  N   UNL     1      42.797 -15.551   4.315  1.00  0.00    -0.321 N 
HETATM   15  C   UNL     1      42.509 -16.260   3.161  1.00  0.00     0.279 C 
HETATM   16  O   UNL     1      41.862 -15.837   2.209  1.00  0.00    -0.265 OA
HETATM   17  H   UNL     1      43.361 -16.072   4.977  1.00  0.00     0.169 HD
BRANCH  15  18
HETATM   18  C   UNL     1      43.081 -17.595   3.180  1.00  0.00     0.142 A 
HETATM   19  O   UNL     1      43.714 -18.038   4.317  1.00  0.00    -0.317 OA
HETATM   20  C   UNL     1      44.151 -19.298   4.066  1.00  0.00     0.143 A 
HETATM   21  C   UNL     1      43.822 -19.678   2.786  1.00  0.00     0.027 A 
HETATM   22  C   UNL     1      43.130 -18.583   2.215  1.00  0.00     0.045 A 
ENDBRANCH  15  18
ENDBRANCH  10  14
ENDBRANCH   1   7
BRANCH   3  23
HETATM   23  C   UNL     1      43.791  -9.394   8.659  1.00  0.00     0.108 C 
HETATM   24  C   UNL     1      45.197  -8.853   8.416  1.00  0.00     0.034 C 
BRANCH  23  25
HETATM   25  C   UNL     1      43.684 -10.396   9.851  1.00  0.00     0.259 C 
BRANCH  25  26
HETATM   26  N   UNL     1      42.914  -9.897  11.058  1.00  0.00    -0.069 N 
HETATM   27  H   UNL     1      42.956 -10.674  11.753  1.00  0.00     0.280 HD
HETATM   28  C   UNL     1      43.501  -8.685  11.731  1.00  0.00     0.239 C 
HETATM   29  C   UNL     1      42.775  -8.440  13.057  1.00  0.00     0.007 C 
HETATM   30  C   UNL     1      41.274  -8.248  12.818  1.00  0.00     0.007 C 
HETATM   31  C   UNL     1      43.369  -7.235  13.782  1.00  0.00     0.011 C 
HETATM   32  C   UNL     1      40.686  -9.427  12.052  1.00  0.00     0.028 C 
HETATM   33  C   UNL     1      41.445  -9.712  10.762  1.00  0.00     0.235 C 
ENDBRANCH  25  26
ENDBRANCH  23  25
ENDBRANCH   3  23
TORSDOF 6
ENDMDL
MODEL 6
REMARK VINA RESULT:      -8.0      0.925      1.752
REMARK  6 active torsions:
REMARK  status: ('A' for Active; 'I' for Inactive)
REMARK    1  A    between atoms: C_3  and  N_4 
REMARK       I    between atoms: N_4  and  C_5 
REMARK    2  A    between atoms: C_5  and  C_6 
REMARK    3  A    between atoms: C_14  and  N_15 
REMARK       I    between atoms: N_15  and  C_16 
REMARK       I    between atoms: C_16  and  N_17 
REMARK    4  A    between atoms: N_17  and  C_18 
REMARK    5  A    between atoms: C_18  and  C_19 
REMARK    6  A    between atoms: C_19  and  N_20 
ROOT
HETATM    1  N   UNL     1      43.625 -12.221   3.484  1.00  0.00    -0.309 N 
HETATM    2  C   UNL     1      43.041 -13.290   2.892  1.00  0.00     0.321 C 
HETATM    3  N   UNL     1      41.813 -13.665   3.326  1.00  0.00    -0.337 N 
HETATM    4  O   UNL     1      43.576 -13.840   1.929  1.00  0.00    -0.247 OA
HETATM    5  H   UNL     1      44.384 -11.835   2.932  1.00  0.00     0.170 HD
HETATM    6  H   UNL     1      41.352 -13.020   3.958  1.00  0.00     0.164 HD
ENDROOT
BRANCH   1   7
HETATM    7  C   UNL     1      43.534 -11.720   4.799  1.00  0.00     0.036 A 
HETATM    8  C   UNL     1      44.377 -12.094   5.840  1.00  0.00     0.032 A 
HETATM    9  C   UNL     1      44.272 -11.479   7.095  1.00  0.00     0.032 A 
HETATM   10  C   UNL     1      43.331 -10.472   7.335  1.00  0.00     0.041 A 
HETATM   11  C   UNL     1      42.471 -10.087   6.287  1.00  0.00    -0.033 A 
HETATM   12  C   UNL     1      41.441  -9.000   6.448  1.00  0.00     0.050 C 
HETATM   13  C   UNL     1      42.593 -10.711   5.029  1.00  0.00     0.038 A 
BRANCH  10  14
HETATM   14  N   UNL     1      43.229  -9.807   8.575  1.00  0.00    -0.321 N 
HETATM   15  C   UNL     1      43.918  -8.695   9.028  1.00  0.00     0.279 C 
HETATM   16  O   UNL     1      44.791  -8.097   8.408  1.00  0.00    -0.265 OA
HETATM   17  H   UNL     1      42.533 -10.143   9.231  1.00  0.00     0.169 HD
BRANCH  15  18
HETATM   18  C   UNL     1      43.482  -8.279  10.350  1.00  0.00     0.142 A 
HETATM   19  O   UNL     1      42.626  -7.211  10.469  1.00  0.00    -0.317 OA
HETATM   20  C   UNL     1      42.385  -7.037  11.794  1.00  0.00     0.143 A 
HETATM   21  C   UNL     1      43.073  -7.968  12.536  1.00  0.00     0.027 A 
HETATM   22  C   UNL     1      43.778  -8.770  11.607  1.00  0.00     0.045 A 
ENDBRANCH  15  18
ENDBRANCH  10  14
ENDBRANCH   1   7
BRANCH   3  23
HETATM   23  C   UNL     1      41.120 -14.915   2.996  1.00  0.00     0.108 C 
HETATM   24  C   UNL     1      39.827 -14.620   2.240  1.00  0.00     0.034 C 
BRANCH  23  25
HETATM   25  C   UNL     1      40.963 -15.938   4.164  1.00  0.00     0.259 C 
BRANCH  25  26
HETATM   26  N   UNL     1      42.050 -16.990   4.263  1.00  0.00    -0.069 N 
HETATM   27  H   UNL     1      41.671 -17.720   4.904  1.00  0.00     0.280 HD
HETATM   28  C   UNL     1      42.384 -17.685   2.969  1.00  0.00     0.239 C 
HETATM   29  C   UNL     1      43.306 -18.872   3.254  1.00  0.00     0.007 C 
HETATM   30  C   UNL     1      44.584 -18.401   3.956  1.00  0.00     0.007 C 
HETATM   31  C   UNL     1      43.638 -19.619   1.965  1.00  0.00     0.011 C 
HETATM   32  C   UNL     1      44.257 -17.614   5.219  1.00  0.00     0.028 C 
HETATM   33  C   UNL     1      43.290 -16.469   4.949  1.00  0.00     0.235 C 
ENDBRANCH  25  26
ENDBRANCH  23  25
ENDBRANCH   3  23
TORSDOF 6
ENDMDL
MODEL 7
REMARK VINA RESULT:      -7.9      5.129      9.007
REMARK  6 active torsions:
REMARK  status: ('A' for Active; 'I' for Inactive)
REMARK    1  A    between atoms: C_3  and  N_4 
REMARK       I    between atoms: N_4  and  C_5 
REMARK    2  A    between atoms: C_5  and  C_6 
REMARK    3  A    between atoms: C_14  and  N_15 
REMARK       I    between atoms: N_15  and  C_16 
REMARK       I    between atoms: C_16  and  N_17 
REMARK    4  A    between atoms: N_17  and  C_18 
REMARK    5  A    between atoms: C_18  and  C_19 
REMARK    6  A    between atoms: C_19  and  N_20 
ROOT
HETATM    1  N   UNL     1      41.426  -9.753   1.794  1.00  0.00    -0.309 N 
HETATM    2  C   UNL     1      40.296  -9.350   1.165  1.00  0.00     0.321 C 
HETATM    3  N   UNL     1      39.216 -10.168   1.211  1.00  0.00    -0.337 N 
HETATM    4  O   UNL     1      40.233  -8.234   0.649  1.00  0.00    -0.247 OA
HETATM    5  H   UNL     1      42.074  -8.990   1.960  1.00  0.00     0.170 HD
HETATM    6  H   UNL     1      39.285 -10.954   1.848  1.00  0.00     0.164 HD
ENDROOT
BRANCH   1   7
HETATM    7  C   UNL     1      41.952 -11.039   2.029  1.00  0.00     0.036 A 
HETATM    8  C   UNL     1      42.922 -11.327   2.985  1.00  0.00     0.032 A 
HETATM    9  C   UNL     1      43.325 -12.649   3.213  1.00  0.00     0.032 A 
HETATM   10  C   UNL     1      42.762 -13.714   2.501  1.00  0.00     0.041 A 
HETATM   11  C   UNL     1      41.781 -13.433   1.529  1.00  0.00    -0.033 A 
HETATM   12  C   UNL     1      41.108 -14.516   0.727  1.00  0.00     0.050 C 
HETATM   13  C   UNL     1      41.382 -12.098   1.315  1.00  0.00     0.038 A 
BRANCH  10  14
HETATM   14  N   UNL     1      43.117 -15.058   2.737  1.00  0.00    -0.321 N 
HETATM   15  C   UNL     1      42.708 -15.904   3.754  1.00  0.00     0.279 C 
HETATM   16  O   UNL     1      41.957 -15.599   4.674  1.00  0.00    -0.265 OA
HETATM   17  H   UNL     1      43.724 -15.508   2.060  1.00  0.00     0.169 HD
BRANCH  15  18
HETATM   18  C   UNL     1      43.259 -17.241   3.612  1.00  0.00     0.142 A 
HETATM   19  O   UNL     1      43.995 -17.775   4.642  1.00  0.00    -0.317 OA
HETATM   20  C   UNL     1      44.387 -19.015   4.252  1.00  0.00     0.143 A 
HETATM   21  C   UNL     1      43.927 -19.291   2.986  1.00  0.00     0.027 A 
HETATM   22  C   UNL     1      43.198 -18.150   2.574  1.00  0.00     0.045 A 
ENDBRANCH  15  18
ENDBRANCH  10  14
ENDBRANCH   1   7
BRANCH   3  23
HETATM   23  C   UNL     1      37.995 -10.039   0.408  1.00  0.00     0.108 C 
HETATM   24  C   UNL     1      36.849 -10.804   1.064  1.00  0.00     0.034 C 
BRANCH  23  25
HETATM   25  C   UNL     1      38.151 -10.302  -1.122  1.00  0.00     0.259 C 
BRANCH  25  26
HETATM   26  N   UNL     1      39.063 -11.453  -1.498  1.00  0.00    -0.069 N 
HETATM   27  H   UNL     1      39.448 -11.807  -0.596  1.00  0.00     0.280 HD
HETATM   28  C   UNL     1      38.377 -12.618  -2.161  1.00  0.00     0.239 C 
HETATM   29  C   UNL     1      39.354 -13.791  -2.264  1.00  0.00     0.007 C 
HETATM   30  C   UNL     1      40.601 -13.382  -3.055  1.00  0.00     0.007 C 
HETATM   31  C   UNL     1      38.679 -15.002  -2.903  1.00  0.00     0.011 C 
HETATM   32  C   UNL     1      41.252 -12.144  -2.448  1.00  0.00     0.028 C 
HETATM   33  C   UNL     1      40.266 -10.995  -2.287  1.00  0.00     0.235 C 
ENDBRANCH  25  26
ENDBRANCH  23  25
ENDBRANCH   3  23
TORSDOF 6
ENDMDL
MODEL 8
REMARK VINA RESULT:      -7.8      5.334      8.387
REMARK  6 active torsions:
REMARK  status: ('A' for Active; 'I' for Inactive)
REMARK    1  A    between atoms: C_3  and  N_4 
REMARK       I    between atoms: N_4  and  C_5 
REMARK    2  A    between atoms: C_5  and  C_6 
REMARK    3  A    between atoms: C_14  and  N_15 
REMARK       I    between atoms: N_15  and  C_16 
REMARK       I    between atoms: C_16  and  N_17 
REMARK    4  A    between atoms: N_17  and  C_18 
REMARK    5  A    between atoms: C_18  and  C_19 
REMARK    6  A    between atoms: C_19  and  N_20 
ROOT
HETATM    1  N   UNL     1      39.478 -14.070   0.836  1.00  0.00    -0.309 N 
HETATM    2  C   UNL     1      40.146 -14.723   1.816  1.00  0.00     0.321 C 
HETATM    3  N   UNL     1      40.847 -13.983   2.710  1.00  0.00    -0.337 N 
HETATM    4  O   UNL     1      40.039 -15.943   1.939  1.00  0.00    -0.247 OA
HETATM    5  H   UNL     1      38.767 -14.646   0.398  1.00  0.00     0.170 HD
HETATM    6  H   UNL     1      40.692 -12.981   2.672  1.00  0.00     0.164 HD
ENDROOT
BRANCH   1   7
HETATM    7  C   UNL     1      39.752 -12.858   0.170  1.00  0.00     0.036 A 
HETATM    8  C   UNL     1      39.564 -11.597   0.730  1.00  0.00     0.032 A 
HETATM    9  C   UNL     1      39.947 -10.445   0.029  1.00  0.00     0.032 A 
HETATM   10  C   UNL     1      40.534 -10.526  -1.238  1.00  0.00     0.041 A 
HETATM   11  C   UNL     1      40.726 -11.798  -1.814  1.00  0.00    -0.033 A 
HETATM   12  C   UNL     1      41.365 -11.982  -3.165  1.00  0.00     0.050 C 
HETATM   13  C   UNL     1      40.341 -12.947  -1.095  1.00  0.00     0.038 A 
BRANCH  10  14
HETATM   14  N   UNL     1      40.966  -9.387  -1.949  1.00  0.00    -0.321 N 
HETATM   15  C   UNL     1      42.148  -8.677  -1.824  1.00  0.00     0.279 C 
HETATM   16  O   UNL     1      43.040  -8.915  -1.017  1.00  0.00    -0.265 OA
HETATM   17  H   UNL     1      40.367  -9.042  -2.691  1.00  0.00     0.169 HD
BRANCH  15  18
HETATM   18  C   UNL     1      42.241  -7.591  -2.786  1.00  0.00     0.142 A 
HETATM   19  O   UNL     1      42.265  -7.885  -4.128  1.00  0.00    -0.317 OA
HETATM   20  C   UNL     1      42.357  -6.705  -4.794  1.00  0.00     0.143 A 
HETATM   21  C   UNL     1      42.401  -5.654  -3.909  1.00  0.00     0.027 A 
HETATM   22  C   UNL     1      42.323  -6.223  -2.615  1.00  0.00     0.045 A 
ENDBRANCH  15  18
ENDBRANCH  10  14
ENDBRANCH   1   7
BRANCH   3  23
HETATM   23  C   UNL     1      41.820 -14.490   3.685  1.00  0.00     0.108 C 
HETATM   24  C   UNL     1      42.218 -13.384   4.658  1.00  0.00     0.034 C 
BRANCH  23  25
HETATM   25  C   UNL     1      43.021 -15.293   3.097  1.00  0.00     0.259 C 
BRANCH  25  26
HETATM   26  N   UNL     1      43.110 -16.745   3.525  1.00  0.00    -0.069 N 
HETATM   27  H   UNL     1      42.153 -16.995   3.855  1.00  0.00     0.280 HD
HETATM   28  C   UNL     1      43.453 -17.713   2.424  1.00  0.00     0.239 C 
HETATM   29  C   UNL     1      43.272 -19.145   2.933  1.00  0.00     0.007 C 
HETATM   30  C   UNL     1      44.156 -19.392   4.160  1.00  0.00     0.007 C 
HETATM   31  C   UNL     1      43.581 -20.153   1.829  1.00  0.00     0.011 C 
HETATM   32  C   UNL     1      43.885 -18.358   5.247  1.00  0.00     0.028 C 
HETATM   33  C   UNL     1      44.004 -16.932   4.727  1.00  0.00     0.235 C 
ENDBRANCH  25  26
ENDBRANCH  23  25
ENDBRANCH   3  23
TORSDOF 6
ENDMDL
MODEL 9
REMARK VINA RESULT:      -7.8      4.014      7.285
REMARK  6 active torsions:
REMARK  status: ('A' for Active; 'I' for Inactive)
REMARK    1  A    between atoms: C_3  and  N_4 
REMARK       I    between atoms: N_4  and  C_5 
REMARK    2  A    between atoms: C_5  and  C_6 
REMARK    3  A    between atoms: C_14  and  N_15 
REMARK       I    between atoms: N_15  and  C_16 
REMARK       I    between atoms: C_16  and  N_17 
REMARK    4  A    between atoms: N_17  and  C_18 
REMARK    5  A    between atoms: C_18  and  C_19 
REMARK    6  A    between atoms: C_19  and  N_20 
ROOT
HETATM    1  N   UNL     1      40.693 -15.010   0.660  1.00  0.00    -0.309 N 
HETATM    2  C   UNL     1      40.162 -14.429  -0.442  1.00  0.00     0.321 C 
HETATM    3  N   UNL     1      40.802 -13.355  -0.966  1.00  0.00    -0.337 N 
HETATM    4  O   UNL     1      39.180 -14.923  -0.996  1.00  0.00    -0.247 OA
HETATM    5  H   UNL     1      40.338 -15.947   0.817  1.00  0.00     0.170 HD
HETATM    6  H   UNL     1      41.722 -13.160  -0.585  1.00  0.00     0.164 HD
ENDROOT
BRANCH   1   7
HETATM    7  C   UNL     1      41.438 -14.472   1.729  1.00  0.00     0.036 A 
HETATM    8  C   UNL     1      42.828 -14.463   1.789  1.00  0.00     0.032 A 
HETATM    9  C   UNL     1      43.489 -13.826   2.849  1.00  0.00     0.032 A 
HETATM   10  C   UNL     1      42.779 -13.177   3.864  1.00  0.00     0.041 A 
HETATM   11  C   UNL     1      41.371 -13.183   3.813  1.00  0.00    -0.033 A 
HETATM   12  C   UNL     1      40.525 -12.495   4.853  1.00  0.00     0.050 C 
HETATM   13  C   UNL     1      40.721 -13.822   2.739  1.00  0.00     0.038 A 
BRANCH  10  14
HETATM   14  N   UNL     1      43.417 -12.494   4.920  1.00  0.00    -0.321 N 
HETATM   15  C   UNL     1      43.866 -12.987   6.134  1.00  0.00     0.279 C 
HETATM   16  O   UNL     1      43.751 -14.146   6.517  1.00  0.00    -0.265 OA
HETATM   17  H   UNL     1      43.626 -11.511   4.784  1.00  0.00     0.169 HD
BRANCH  15  18
HETATM   18  C   UNL     1      44.526 -11.967   6.931  1.00  0.00     0.142 A 
HETATM   19  O   UNL     1      44.064 -11.705   8.198  1.00  0.00    -0.317 OA
HETATM   20  C   UNL     1      44.847 -10.721   8.713  1.00  0.00     0.143 A 
HETATM   21  C   UNL     1      45.800 -10.336   7.801  1.00  0.00     0.027 A 
HETATM   22  C   UNL     1      45.597 -11.140   6.653  1.00  0.00     0.045 A 
ENDBRANCH  15  18
ENDBRANCH  10  14
ENDBRANCH   1   7
BRANCH   3  23
HETATM   23  C   UNL     1      40.277 -12.445  -1.991  1.00  0.00     0.108 C 
HETATM   24  C   UNL     1      41.303 -12.256  -3.104  1.00  0.00     0.034 C 
BRANCH  23  25
HETATM   25  C   UNL     1      39.643 -11.120  -1.467  1.00  0.00     0.259 C 
BRANCH  25  26
HETATM   26  N   UNL     1      39.463 -11.029   0.036  1.00  0.00    -0.069 N 
HETATM   27  H   UNL     1      40.006 -11.828   0.428  1.00  0.00     0.280 HD
HETATM   28  C   UNL     1      40.016  -9.779   0.669  1.00  0.00     0.239 C 
HETATM   29  C   UNL     1      39.987  -9.927   2.192  1.00  0.00     0.007 C 
HETATM   30  C   UNL     1      38.557 -10.186   2.677  1.00  0.00     0.007 C 
HETATM   31  C   UNL     1      40.573  -8.688   2.865  1.00  0.00     0.011 C 
HETATM   32  C   UNL     1      37.951 -11.395   1.972  1.00  0.00     0.028 C 
HETATM   33  C   UNL     1      38.035 -11.278   0.456  1.00  0.00     0.235 C 
ENDBRANCH  25  26
ENDBRANCH  23  25
ENDBRANCH   3  23
TORSDOF 6
ENDMDL
MODEL 10
REMARK VINA RESULT:      -7.7      6.012      9.542
REMARK  6 active torsions:
REMARK  status: ('A' for Active; 'I' for Inactive)
REMARK    1  A    between atoms: C_3  and  N_4 
REMARK       I    between atoms: N_4  and  C_5 
REMARK    2  A    between atoms: C_5  and  C_6 
REMARK    3  A    between atoms: C_14  and  N_15 
REMARK       I    between atoms: N_15  and  C_16 
REMARK       I    between atoms: C_16  and  N_17 
REMARK    4  A    between atoms: N_17  and  C_18 
REMARK    5  A    between atoms: C_18  and  C_19 
REMARK    6  A    between atoms: C_19  and  N_20 
ROOT
HETATM    1  N   UNL     1      42.051 -13.853   0.758  1.00  0.00    -0.309 N 
HETATM    2  C   UNL     1      42.382 -14.415   1.945  1.00  0.00     0.321 C 
HETATM    3  N   UNL     1      41.465 -15.209   2.551  1.00  0.00    -0.337 N 
HETATM    4  O   UNL     1      43.516 -14.279   2.405  1.00  0.00    -0.247 OA
HETATM    5  H   UNL     1      42.860 -13.522   0.243  1.00  0.00     0.170 HD
HETATM    6  H   UNL     1      40.653 -15.451   1.993  1.00  0.00     0.164 HD
ENDROOT
BRANCH   1   7
HETATM    7  C   UNL     1      40.808 -13.435   0.241  1.00  0.00     0.036 A 
HETATM    8  C   UNL     1      40.114 -12.312   0.682  1.00  0.00     0.032 A 
HETATM    9  C   UNL     1      38.926 -11.918   0.051  1.00  0.00     0.032 A 
HETATM   10  C   UNL     1      38.411 -12.629  -1.039  1.00  0.00     0.041 A 
HETATM   11  C   UNL     1      39.106 -13.768  -1.491  1.00  0.00    -0.033 A 
HETATM   12  C   UNL     1      38.636 -14.584  -2.668  1.00  0.00     0.050 C 
HETATM   13  C   UNL     1      40.302 -14.148  -0.850  1.00  0.00     0.038 A 
BRANCH  10  14
HETATM   14  N   UNL     1      37.241 -12.234  -1.720  1.00  0.00    -0.321 N 
HETATM   15  C   UNL     1      37.090 -11.288  -2.720  1.00  0.00     0.279 C 
HETATM   16  O   UNL     1      37.986 -10.587  -3.178  1.00  0.00    -0.265 OA
HETATM   17  H   UNL     1      36.381 -12.721  -1.495  1.00  0.00     0.169 HD
BRANCH  15  18
HETATM   18  C   UNL     1      35.721 -11.214  -3.204  1.00  0.00     0.142 A 
HETATM   19  O   UNL     1      35.167 -12.312  -3.817  1.00  0.00    -0.317 OA
HETATM   20  C   UNL     1      33.900 -11.975  -4.169  1.00  0.00     0.143 A 
HETATM   21  C   UNL     1      33.625 -10.678  -3.803  1.00  0.00     0.027 A 
HETATM   22  C   UNL     1      34.797 -10.188  -3.179  1.00  0.00     0.045 A 
ENDBRANCH  15  18
ENDBRANCH  10  14
ENDBRANCH   1   7
BRANCH   3  23
HETATM   23  C   UNL     1      41.526 -15.711   3.928  1.00  0.00     0.108 C 
HETATM   24  C   UNL     1      40.909 -14.697   4.887  1.00  0.00     0.034 C 
BRANCH  23  25
HETATM   25  C   UNL     1      42.904 -16.277   4.389  1.00  0.00     0.259 C 
BRANCH  25  26
HETATM   26  N   UNL     1      43.036 -17.788   4.357  1.00  0.00    -0.069 N 
HETATM   27  H   UNL     1      42.068 -18.152   4.496  1.00  0.00     0.280 HD
HETATM   28  C   UNL     1      43.528 -18.357   3.053  1.00  0.00     0.239 C 
HETATM   29  C   UNL     1      43.381 -19.880   3.077  1.00  0.00     0.007 C 
HETATM   30  C   UNL     1      44.165 -20.474   4.251  1.00  0.00     0.007 C 
HETATM   31  C   UNL     1      43.841 -20.487   1.754  1.00  0.00     0.011 C 
HETATM   32  C   UNL     1      43.743 -19.837   5.570  1.00  0.00     0.028 C 
HETATM   33  C   UNL     1      43.828 -18.317   5.528  1.00  0.00     0.235 C 
ENDBRANCH  25  26
ENDBRANCH  23  25
ENDBRANCH   3  23
TORSDOF 6
ENDMDL
