MODEL 1
REMARK VINA RESULT:      -8.4      0.000      0.000
REMARK  3 active torsions:
REMARK  status: ('A' for Active; 'I' for Inactive)
REMARK    1  A    between atoms: C_6  and  N_7 
REMARK       I    between atoms: N_7  and  C_8 
REMARK    2  A    between atoms: C_8  and  C_9 
REMARK    3  A    between atoms: C_9  and  C_10 
ROOT
HETATM    1  C   UNL     1      40.700 -14.095   3.998  1.00  0.00     0.286 C 
HETATM    2  N   UNL     1      41.677 -12.923   3.815  1.00  0.00    -0.056 N 
HETATM    3  H   UNL     1      42.092 -13.007   2.865  1.00  0.00     0.278 HD
HETATM    4  H   UNL     1      41.163 -12.034   3.830  1.00  0.00     0.278 HD
HETATM    5  C   UNL     1      42.861 -12.897   4.745  1.00  0.00     0.209 C 
HETATM    6  C   UNL     1      42.418 -13.269   6.172  1.00  0.00     0.115 C 
HETATM    7  N   UNL     1      41.817 -14.590   6.174  1.00  0.00    -0.353 N 
HETATM    8  C   UNL     1      40.972 -15.033   5.193  1.00  0.00     0.249 C 
HETATM    9  O   UNL     1      40.422 -16.124   5.312  1.00  0.00    -0.271 OA
HETATM   10  C   UNL     1      43.516 -11.521   4.691  1.00  0.00     0.035 C 
HETATM   11  C   UNL     1      44.701 -11.454   5.652  1.00  0.00     0.002 C 
HETATM   12  C   UNL     1      44.301 -11.842   7.075  1.00  0.00     0.002 C 
HETATM   13  C   UNL     1      43.610 -13.204   7.130  1.00  0.00     0.027 C 
HETATM   14  H   UNL     1      41.880 -15.189   6.995  1.00  0.00     0.163 HD
ENDROOT
BRANCH   1  15
HETATM   15  C   UNL     1      40.489 -14.885   2.696  1.00  0.00     0.146 C 
BRANCH  15  16
HETATM   16  C   UNL     1      41.673 -14.737   1.775  1.00  0.00     0.224 C 
HETATM   17  N   UNL     1      42.661 -15.647   1.625  1.00  0.00    -0.327 N 
HETATM   18  H   UNL     1      43.217 -15.453   0.796  1.00  0.00     0.169 HD
HETATM   19  O   UNL     1      41.668 -13.755   1.014  1.00  0.00    -0.273 OA
BRANCH  17  20
HETATM   20  C   UNL     1      43.090 -16.772   2.352  1.00  0.00     0.035 A 
HETATM   21  C   UNL     1      43.056 -18.089   1.903  1.00  0.00     0.037 A 
HETATM   22  C   UNL     1      43.495 -19.154   2.716  1.00  0.00    -0.054 A 
HETATM   23  C   UNL     1      43.971 -18.889   4.012  1.00  0.00    -0.056 A 
HETATM   24  C   UNL     1      43.457 -20.558   2.170  1.00  0.00     0.049 C 
HETATM   25  C   UNL     1      44.447 -19.990   4.921  1.00  0.00     0.049 C 
HETATM   26  C   UNL     1      43.960 -17.572   4.480  1.00  0.00     0.009 A 
HETATM   27  C   UNL     1      43.520 -16.529   3.661  1.00  0.00     0.030 A 
ENDBRANCH  17  20
ENDBRANCH  15  16
ENDBRANCH   1  15
TORSDOF 3
ENDMDL
MODEL 2
REMARK VINA RESULT:      -8.2      2.751      4.921
REMARK  3 active torsions:
REMARK  status: ('A' for Active; 'I' for Inactive)
REMARK    1  A    between atoms: C_6  and  N_7 
REMARK       I    between atoms: N_7  and  C_8 
REMARK    2  A    between atoms: C_8  and  C_9 
REMARK    3  A    between atoms: C_9  and  C_10 
ROOT
HETATM    1  C   UNL     1      39.598 -14.484   2.140  1.00  0.00     0.286 C 
HETATM    2  N   UNL     1      39.914 -14.865   0.685  1.00  0.00    -0.056 N 
HETATM    3  H   UNL     1      40.874 -15.265   0.668  1.00  0.00     0.278 HD
HETATM    4  H   UNL     1      39.282 -15.613   0.375  1.00  0.00     0.278 HD
HETATM    5  C   UNL     1      39.958 -13.729  -0.302  1.00  0.00     0.209 C 
HETATM    6  C   UNL     1      38.798 -12.753  -0.033  1.00  0.00     0.115 C 
HETATM    7  N   UNL     1      38.892 -12.235   1.319  1.00  0.00    -0.353 N 
HETATM    8  C   UNL     1      39.235 -13.006   2.397  1.00  0.00     0.249 C 
HETATM    9  O   UNL     1      39.195 -12.525   3.526  1.00  0.00    -0.271 OA
HETATM   10  C   UNL     1      39.916 -14.290  -1.719  1.00  0.00     0.035 C 
HETATM   11  C   UNL     1      39.924 -13.156  -2.744  1.00  0.00     0.002 C 
HETATM   12  C   UNL     1      38.799 -12.154  -2.490  1.00  0.00     0.002 C 
HETATM   13  C   UNL     1      38.814 -11.617  -1.060  1.00  0.00     0.027 C 
HETATM   14  H   UNL     1      38.551 -11.302   1.545  1.00  0.00     0.163 HD
ENDROOT
BRANCH   1  15
HETATM   15  C   UNL     1      40.675 -14.979   3.118  1.00  0.00     0.146 C 
BRANCH  15  16
HETATM   16  C   UNL     1      42.056 -14.612   2.636  1.00  0.00     0.224 C 
HETATM   17  N   UNL     1      43.091 -15.471   2.513  1.00  0.00    -0.327 N 
HETATM   18  H   UNL     1      43.840 -15.067   1.957  1.00  0.00     0.169 HD
HETATM   19  O   UNL     1      42.207 -13.455   2.210  1.00  0.00    -0.273 OA
BRANCH  17  20
HETATM   20  C   UNL     1      43.364 -16.768   2.984  1.00  0.00     0.035 A 
HETATM   21  C   UNL     1      43.320 -17.933   2.224  1.00  0.00     0.037 A 
HETATM   22  C   UNL     1      43.594 -19.193   2.794  1.00  0.00    -0.054 A 
HETATM   23  C   UNL     1      43.912 -19.284   4.160  1.00  0.00    -0.056 A 
HETATM   24  C   UNL     1      43.554 -20.419   1.918  1.00  0.00     0.049 C 
HETATM   25  C   UNL     1      44.208 -20.605   4.818  1.00  0.00     0.049 C 
HETATM   26  C   UNL     1      43.908 -18.119   4.934  1.00  0.00     0.009 A 
HETATM   27  C   UNL     1      43.633 -16.879   4.353  1.00  0.00     0.030 A 
ENDBRANCH  17  20
ENDBRANCH  15  16
ENDBRANCH   1  15
TORSDOF 3
ENDMDL
MODEL 3
REMARK VINA RESULT:      -8.1      2.420      6.209
REMARK  3 active torsions:
REMARK  status: ('A' for Active; 'I' for Inactive)
REMARK    1  A    between atoms: C_6  and  N_7 
REMARK       I    between atoms: N_7  and  C_8 
REMARK    2  A    between atoms: C_8  and  C_9 
REMARK    3  A    between atoms: C_9  and  C_10 
ROOT
HETATM    1  C   UNL     1      43.474 -15.997   5.066  1.00  0.00     0.286 C 
HETATM    2  N   UNL     1      43.232 -16.601   3.674  1.00  0.00    -0.056 N 
HETATM    3  H   UNL     1      42.330 -16.222   3.322  1.00  0.00     0.278 HD
HETATM    4  H   UNL     1      43.957 -16.279   3.022  1.00  0.00     0.278 HD
HETATM    5  C   UNL     1      43.062 -18.096   3.622  1.00  0.00     0.209 C 
HETATM    6  C   UNL     1      44.086 -18.775   4.550  1.00  0.00     0.115 C 
HETATM    7  N   UNL     1      43.907 -18.305   5.911  1.00  0.00    -0.353 N 
HETATM    8  C   UNL     1      43.646 -16.999   6.227  1.00  0.00     0.249 C 
HETATM    9  O   UNL     1      43.607 -16.655   7.405  1.00  0.00    -0.271 OA
HETATM   10  C   UNL     1      43.197 -18.570   2.179  1.00  0.00     0.035 C 
HETATM   11  C   UNL     1      43.063 -20.090   2.100  1.00  0.00     0.002 C 
HETATM   12  C   UNL     1      44.050 -20.795   3.029  1.00  0.00     0.002 C 
HETATM   13  C   UNL     1      43.945 -20.298   4.469  1.00  0.00     0.027 C 
HETATM   14  H   UNL     1      44.125 -18.907   6.703  1.00  0.00     0.163 HD
ENDROOT
BRANCH   1  15
HETATM   15  C   UNL     1      42.452 -14.902   5.411  1.00  0.00     0.146 C 
BRANCH  15  16
HETATM   16  C   UNL     1      41.049 -15.455   5.421  1.00  0.00     0.224 C 
HETATM   17  N   UNL     1      40.237 -15.534   4.344  1.00  0.00    -0.327 N 
HETATM   18  H   UNL     1      39.444 -16.145   4.526  1.00  0.00     0.169 HD
HETATM   19  O   UNL     1      40.666 -15.983   6.478  1.00  0.00    -0.273 OA
BRANCH  17  20
HETATM   20  C   UNL     1      40.237 -14.963   3.059  1.00  0.00     0.035 A 
HETATM   21  C   UNL     1      40.284 -13.601   2.777  1.00  0.00     0.037 A 
HETATM   22  C   UNL     1      40.262 -13.124   1.450  1.00  0.00    -0.054 A 
HETATM   23  C   UNL     1      40.183 -14.037   0.384  1.00  0.00    -0.056 A 
HETATM   24  C   UNL     1      40.339 -11.640   1.202  1.00  0.00     0.049 C 
HETATM   25  C   UNL     1      40.152 -13.581  -1.050  1.00  0.00     0.049 C 
HETATM   26  C   UNL     1      40.086 -15.403   0.669  1.00  0.00     0.009 A 
HETATM   27  C   UNL     1      40.107 -15.857   1.990  1.00  0.00     0.030 A 
ENDBRANCH  17  20
ENDBRANCH  15  16
ENDBRANCH   1  15
TORSDOF 3
ENDMDL
MODEL 4
REMARK VINA RESULT:      -8.1      2.405      3.937
REMARK  3 active torsions:
REMARK  status: ('A' for Active; 'I' for Inactive)
REMARK    1  A    between atoms: C_6  and  N_7 
REMARK       I    between atoms: N_7  and  C_8 
REMARK    2  A    between atoms: C_8  and  C_9 
REMARK    3  A    between atoms: C_9  and  C_10 
ROOT
HETATM    1  C   UNL     1      42.221 -12.203   6.346  1.00  0.00     0.286 C 
HETATM    2  N   UNL     1      42.180 -10.975   7.270  1.00  0.00    -0.056 N 
HETATM    3  H   UNL     1      41.472 -10.318   6.885  1.00  0.00     0.278 HD
HETATM    4  H   UNL     1      41.846 -11.250   8.202  1.00  0.00     0.278 HD
HETATM    5  C   UNL     1      43.447 -10.166   7.351  1.00  0.00     0.209 C 
HETATM    6  C   UNL     1      44.667 -11.103   7.424  1.00  0.00     0.115 C 
HETATM    7  N   UNL     1      44.703 -11.961   6.255  1.00  0.00    -0.353 N 
HETATM    8  C   UNL     1      43.587 -12.538   5.711  1.00  0.00     0.249 C 
HETATM    9  O   UNL     1      43.704 -13.333   4.784  1.00  0.00    -0.271 OA
HETATM   10  C   UNL     1      43.373  -9.229   8.551  1.00  0.00     0.035 C 
HETATM   11  C   UNL     1      44.661  -8.418   8.678  1.00  0.00     0.002 C 
HETATM   12  C   UNL     1      45.895  -9.318   8.729  1.00  0.00     0.002 C 
HETATM   13  C   UNL     1      45.955 -10.285   7.547  1.00  0.00     0.027 C 
HETATM   14  H   UNL     1      45.589 -12.296   5.881  1.00  0.00     0.163 HD
ENDROOT
BRANCH   1  15
HETATM   15  C   UNL     1      41.101 -12.176   5.294  1.00  0.00     0.146 C 
BRANCH  15  16
HETATM   16  C   UNL     1      39.987 -13.123   5.663  1.00  0.00     0.224 C 
HETATM   17  N   UNL     1      40.029 -14.466   5.521  1.00  0.00    -0.327 N 
HETATM   18  H   UNL     1      39.280 -14.914   6.044  1.00  0.00     0.169 HD
HETATM   19  O   UNL     1      39.010 -12.631   6.251  1.00  0.00    -0.273 OA
BRANCH  17  20
HETATM   20  C   UNL     1      40.852 -15.363   4.817  1.00  0.00     0.035 A 
HETATM   21  C   UNL     1      41.930 -16.063   5.349  1.00  0.00     0.037 A 
HETATM   22  C   UNL     1      42.708 -16.930   4.554  1.00  0.00    -0.054 A 
HETATM   23  C   UNL     1      42.400 -17.089   3.192  1.00  0.00    -0.056 A 
HETATM   24  C   UNL     1      43.850 -17.681   5.189  1.00  0.00     0.049 C 
HETATM   25  C   UNL     1      43.201 -17.997   2.299  1.00  0.00     0.049 C 
HETATM   26  C   UNL     1      41.347 -16.348   2.646  1.00  0.00     0.009 A 
HETATM   27  C   UNL     1      40.587 -15.492   3.449  1.00  0.00     0.030 A 
ENDBRANCH  17  20
ENDBRANCH  15  16
ENDBRANCH   1  15
TORSDOF 3
ENDMDL
MODEL 5
REMARK VINA RESULT:      -8.0      1.962      2.574
REMARK  3 active torsions:
REMARK  status: ('A' for Active; 'I' for Inactive)
REMARK    1  A    between atoms: C_6  and  N_7 
REMARK       I    between atoms: N_7  and  C_8 
REMARK    2  A    between atoms: C_8  and  C_9 
REMARK    3  A    between atoms: C_9  and  C_10 
ROOT
HETATM    1  C   UNL     1      42.860 -12.394   5.170  1.00  0.00     0.286 C 
HETATM    2  N   UNL     1      44.256 -12.045   5.710  1.00  0.00    -0.056 N 
HETATM    3  H   UNL     1      44.773 -12.938   5.839  1.00  0.00     0.278 HD
HETATM    4  H   UNL     1      44.777 -11.505   5.009  1.00  0.00     0.278 HD
HETATM    5  C   UNL     1      44.296 -11.384   7.063  1.00  0.00     0.209 C 
HETATM    6  C   UNL     1      43.182 -10.326   7.165  1.00  0.00     0.115 C 
HETATM    7  N   UNL     1      41.888 -10.949   6.958  1.00  0.00    -0.353 N 
HETATM    8  C   UNL     1      41.659 -11.912   6.011  1.00  0.00     0.249 C 
HETATM    9  O   UNL     1      40.518 -12.321   5.824  1.00  0.00    -0.271 OA
HETATM   10  C   UNL     1      45.678 -10.783   7.290  1.00  0.00     0.035 C 
HETATM   11  C   UNL     1      45.737 -10.074   8.643  1.00  0.00     0.002 C 
HETATM   12  C   UNL     1      44.628  -9.033   8.787  1.00  0.00     0.002 C 
HETATM   13  C   UNL     1      43.244  -9.623   8.523  1.00  0.00     0.027 C 
HETATM   14  H   UNL     1      41.053 -10.580   7.410  1.00  0.00     0.163 HD
ENDROOT
BRANCH   1  15
HETATM   15  C   UNL     1      42.733 -13.881   4.805  1.00  0.00     0.146 C 
BRANCH  15  16
HETATM   16  C   UNL     1      42.890 -14.090   3.320  1.00  0.00     0.224 C 
HETATM   17  N   UNL     1      43.036 -15.289   2.714  1.00  0.00    -0.327 N 
HETATM   18  H   UNL     1      42.888 -15.214   1.711  1.00  0.00     0.169 HD
HETATM   19  O   UNL     1      42.755 -13.088   2.599  1.00  0.00    -0.273 OA
BRANCH  17  20
HETATM   20  C   UNL     1      43.352 -16.588   3.151  1.00  0.00     0.035 A 
HETATM   21  C   UNL     1      43.287 -17.743   2.376  1.00  0.00     0.037 A 
HETATM   22  C   UNL     1      43.609 -19.007   2.913  1.00  0.00    -0.054 A 
HETATM   23  C   UNL     1      43.997 -19.112   4.259  1.00  0.00    -0.056 A 
HETATM   24  C   UNL     1      43.543 -20.220   2.022  1.00  0.00     0.049 C 
HETATM   25  C   UNL     1      44.347 -20.437   4.882  1.00  0.00     0.049 C 
HETATM   26  C   UNL     1      44.015 -17.959   5.050  1.00  0.00     0.009 A 
HETATM   27  C   UNL     1      43.692 -16.715   4.502  1.00  0.00     0.030 A 
ENDBRANCH  17  20
ENDBRANCH  15  16
ENDBRANCH   1  15
TORSDOF 3
ENDMDL
MODEL 6
REMARK VINA RESULT:      -8.0      2.383      3.943
REMARK  3 active torsions:
REMARK  status: ('A' for Active; 'I' for Inactive)
REMARK    1  A    between atoms: C_6  and  N_7 
REMARK       I    between atoms: N_7  and  C_8 
REMARK    2  A    between atoms: C_8  and  C_9 
REMARK    3  A    between atoms: C_9  and  C_10 
ROOT
HETATM    1  C   UNL     1      41.344 -14.421   5.662  1.00  0.00     0.286 C 
HETATM    2  N   UNL     1      41.034 -13.122   6.422  1.00  0.00    -0.056 N 
HETATM    3  H   UNL     1      40.741 -13.385   7.384  1.00  0.00     0.278 HD
HETATM    4  H   UNL     1      41.890 -12.563   6.521  1.00  0.00     0.278 HD
HETATM    5  C   UNL     1      39.892 -12.300   5.887  1.00  0.00     0.209 C 
HETATM    6  C   UNL     1      39.947 -12.258   4.349  1.00  0.00     0.115 C 
HETATM    7  N   UNL     1      39.878 -13.605   3.814  1.00  0.00    -0.353 N 
HETATM    8  C   UNL     1      40.538 -14.668   4.369  1.00  0.00     0.249 C 
HETATM    9  O   UNL     1      40.516 -15.758   3.805  1.00  0.00    -0.271 OA
HETATM   10  C   UNL     1      39.943 -10.904   6.500  1.00  0.00     0.035 C 
HETATM   11  C   UNL     1      38.814 -10.036   5.948  1.00  0.00     0.002 C 
HETATM   12  C   UNL     1      38.826  -9.992   4.421  1.00  0.00     0.002 C 
HETATM   13  C   UNL     1      38.811 -11.389   3.802  1.00  0.00     0.027 C 
HETATM   14  H   UNL     1      39.455 -13.784   2.905  1.00  0.00     0.163 HD
ENDROOT
BRANCH   1  15
HETATM   15  C   UNL     1      41.324 -15.652   6.583  1.00  0.00     0.146 C 
BRANCH  15  16
HETATM   16  C   UNL     1      42.689 -15.911   7.171  1.00  0.00     0.224 C 
HETATM   17  N   UNL     1      43.652 -16.666   6.598  1.00  0.00    -0.327 N 
HETATM   18  H   UNL     1      44.553 -16.511   7.043  1.00  0.00     0.169 HD
HETATM   19  O   UNL     1      42.979 -15.281   8.201  1.00  0.00    -0.273 OA
BRANCH  17  20
HETATM   20  C   UNL     1      43.684 -17.607   5.554  1.00  0.00     0.035 A 
HETATM   21  C   UNL     1      43.806 -18.985   5.707  1.00  0.00     0.037 A 
HETATM   22  C   UNL     1      43.845 -19.848   4.592  1.00  0.00    -0.054 A 
HETATM   23  C   UNL     1      43.767 -19.312   3.295  1.00  0.00    -0.056 A 
HETATM   24  C   UNL     1      43.956 -21.334   4.817  1.00  0.00     0.049 C 
HETATM   25  C   UNL     1      43.808 -20.188   2.072  1.00  0.00     0.049 C 
HETATM   26  C   UNL     1      43.693 -17.924   3.140  1.00  0.00     0.009 A 
HETATM   27  C   UNL     1      43.657 -17.084   4.256  1.00  0.00     0.030 A 
ENDBRANCH  17  20
ENDBRANCH  15  16
ENDBRANCH   1  15
TORSDOF 3
ENDMDL
MODEL 7
REMARK VINA RESULT:      -7.8      3.170      5.355
REMARK  3 active torsions:
REMARK  status: ('A' for Active; 'I' for Inactive)
REMARK    1  A    between atoms: C_6  and  N_7 
REMARK       I    between atoms: N_7  and  C_8 
REMARK    2  A    between atoms: C_8  and  C_9 
REMARK    3  A    between atoms: C_9  and  C_10 
ROOT
HETATM    1  C   UNL     1      40.661 -13.897   1.426  1.00  0.00     0.286 C 
HETATM    2  N   UNL     1      40.323 -12.460   0.998  1.00  0.00    -0.056 N 
HETATM    3  H   UNL     1      40.010 -11.947   1.846  1.00  0.00     0.278 HD
HETATM    4  H   UNL     1      41.172 -11.985   0.667  1.00  0.00     0.278 HD
HETATM    5  C   UNL     1      39.186 -12.310   0.022  1.00  0.00     0.209 C 
HETATM    6  C   UNL     1      39.277 -13.399  -1.063  1.00  0.00     0.115 C 
HETATM    7  N   UNL     1      39.231 -14.713  -0.450  1.00  0.00    -0.353 N 
HETATM    8  C   UNL     1      39.886 -15.024   0.711  1.00  0.00     0.249 C 
HETATM    9  O   UNL     1      39.886 -16.182   1.117  1.00  0.00    -0.271 OA
HETATM   10  C   UNL     1      39.213 -10.906  -0.573  1.00  0.00     0.035 C 
HETATM   11  C   UNL     1      38.090 -10.736  -1.594  1.00  0.00     0.002 C 
HETATM   12  C   UNL     1      38.136 -11.817  -2.674  1.00  0.00     0.002 C 
HETATM   13  C   UNL     1      38.146 -13.225  -2.081  1.00  0.00     0.027 C 
HETATM   14  H   UNL     1      38.830 -15.506  -0.947  1.00  0.00     0.163 HD
ENDROOT
BRANCH   1  15
HETATM   15  C   UNL     1      40.630 -14.072   2.953  1.00  0.00     0.146 C 
BRANCH  15  16
HETATM   16  C   UNL     1      41.964 -13.724   3.564  1.00  0.00     0.224 C 
HETATM   17  N   UNL     1      43.023 -14.559   3.647  1.00  0.00    -0.327 N 
HETATM   18  H   UNL     1      43.874 -14.052   3.875  1.00  0.00     0.169 HD
HETATM   19  O   UNL     1      42.128 -12.542   3.908  1.00  0.00    -0.273 OA
BRANCH  17  20
HETATM   20  C   UNL     1      43.205 -15.946   3.502  1.00  0.00     0.035 A 
HETATM   21  C   UNL     1      43.471 -16.842   4.534  1.00  0.00     0.037 A 
HETATM   22  C   UNL     1      43.655 -18.218   4.283  1.00  0.00    -0.054 A 
HETATM   23  C   UNL     1      43.577 -18.701   2.966  1.00  0.00    -0.056 A 
HETATM   24  C   UNL     1      43.917 -19.145   5.441  1.00  0.00     0.049 C 
HETATM   25  C   UNL     1      43.770 -20.159   2.644  1.00  0.00     0.049 C 
HETATM   26  C   UNL     1      43.359 -17.794   1.924  1.00  0.00     0.009 A 
HETATM   27  C   UNL     1      43.180 -16.434   2.190  1.00  0.00     0.030 A 
ENDBRANCH  17  20
ENDBRANCH  15  16
ENDBRANCH   1  15
TORSDOF 3
ENDMDL
MODEL 8
REMARK VINA RESULT:      -7.7      3.344      4.769
REMARK  3 active torsions:
REMARK  status: ('A' for Active; 'I' for Inactive)
REMARK    1  A    between atoms: C_6  and  N_7 
REMARK       I    between atoms: N_7  and  C_8 
REMARK    2  A    between atoms: C_8  and  C_9 
REMARK    3  A    between atoms: C_9  and  C_10 
ROOT
HETATM    1  C   UNL     1      43.758 -11.387   6.781  1.00  0.00     0.286 C 
HETATM    2  N   UNL     1      42.721 -10.668   7.659  1.00  0.00    -0.056 N 
HETATM    3  H   UNL     1      42.145 -10.068   7.034  1.00  0.00     0.278 HD
HETATM    4  H   UNL     1      42.081 -11.354   8.075  1.00  0.00     0.278 HD
HETATM    5  C   UNL     1      43.272  -9.722   8.693  1.00  0.00     0.209 C 
HETATM    6  C   UNL     1      44.506 -10.345   9.372  1.00  0.00     0.115 C 
HETATM    7  N   UNL     1      45.523 -10.636   8.378  1.00  0.00    -0.353 N 
HETATM    8  C   UNL     1      45.240 -11.158   7.144  1.00  0.00     0.249 C 
HETATM    9  O   UNL     1      46.158 -11.473   6.394  1.00  0.00    -0.271 OA
HETATM   10  C   UNL     1      42.178  -9.380   9.698  1.00  0.00     0.035 C 
HETATM   11  C   UNL     1      42.718  -8.448  10.781  1.00  0.00     0.002 C 
HETATM   12  C   UNL     1      43.960  -9.025  11.460  1.00  0.00     0.002 C 
HETATM   13  C   UNL     1      45.045  -9.404  10.453  1.00  0.00     0.027 C 
HETATM   14  H   UNL     1      46.511 -10.607   8.620  1.00  0.00     0.163 HD
ENDROOT
BRANCH   1  15
HETATM   15  C   UNL     1      43.504 -11.165   5.281  1.00  0.00     0.146 C 
BRANCH  15  16
HETATM   16  C   UNL     1      42.077 -11.491   4.920  1.00  0.00     0.224 C 
HETATM   17  N   UNL     1      41.600 -12.732   4.677  1.00  0.00    -0.327 N 
HETATM   18  H   UNL     1      40.583 -12.744   4.687  1.00  0.00     0.169 HD
HETATM   19  O   UNL     1      41.262 -10.555   4.967  1.00  0.00    -0.273 OA
BRANCH  17  20
HETATM   20  C   UNL     1      42.183 -13.983   4.407  1.00  0.00     0.035 A 
HETATM   21  C   UNL     1      42.453 -14.496   3.142  1.00  0.00     0.037 A 
HETATM   22  C   UNL     1      43.028 -15.774   2.974  1.00  0.00    -0.054 A 
HETATM   23  C   UNL     1      43.329 -16.554   4.104  1.00  0.00    -0.056 A 
HETATM   24  C   UNL     1      43.320 -16.270   1.582  1.00  0.00     0.049 C 
HETATM   25  C   UNL     1      43.939 -17.924   3.980  1.00  0.00     0.049 C 
HETATM   26  C   UNL     1      43.013 -16.058   5.373  1.00  0.00     0.009 A 
HETATM   27  C   UNL     1      42.443 -14.791   5.520  1.00  0.00     0.030 A 
ENDBRANCH  17  20
ENDBRANCH  15  16
ENDBRANCH   1  15
TORSDOF 3
ENDMDL
MODEL 9
REMARK VINA RESULT:      -7.3      3.780      8.486
REMARK  3 active torsions:
REMARK  status: ('A' for Active; 'I' for Inactive)
REMARK    1  A    between atoms: C_6  and  N_7 
REMARK       I    between atoms: N_7  and  C_8 
REMARK    2  A    between atoms: C_8  and  C_9 
REMARK    3  A    between atoms: C_9  and  C_10 
ROOT
HETATM    1  C   UNL     1      42.580 -12.221   6.042  1.00  0.00     0.286 C 
HETATM    2  N   UNL     1      42.815 -13.316   7.095  1.00  0.00    -0.056 N 
HETATM    3  H   UNL     1      43.539 -12.965   7.754  1.00  0.00     0.278 HD
HETATM    4  H   UNL     1      41.961 -13.457   7.648  1.00  0.00     0.278 HD
HETATM    5  C   UNL     1      43.367 -14.620   6.582  1.00  0.00     0.209 C 
HETATM    6  C   UNL     1      42.670 -15.004   5.264  1.00  0.00     0.115 C 
HETATM    7  N   UNL     1      42.871 -13.961   4.276  1.00  0.00    -0.353 N 
HETATM    8  C   UNL     1      42.812 -12.625   4.570  1.00  0.00     0.249 C 
HETATM    9  O   UNL     1      42.891 -11.800   3.666  1.00  0.00    -0.271 OA
HETATM   10  C   UNL     1      43.200 -15.694   7.651  1.00  0.00     0.035 C 
HETATM   11  C   UNL     1      43.721 -17.038   7.145  1.00  0.00     0.002 C 
HETATM   12  C   UNL     1      43.067 -17.439   5.824  1.00  0.00     0.002 C 
HETATM   13  C   UNL     1      43.199 -16.350   4.760  1.00  0.00     0.027 C 
HETATM   14  H   UNL     1      42.911 -14.184   3.283  1.00  0.00     0.163 HD
ENDROOT
BRANCH   1  15
HETATM   15  C   UNL     1      43.309 -10.913   6.389  1.00  0.00     0.146 C 
BRANCH  15  16
HETATM   16  C   UNL     1      44.611 -11.191   7.099  1.00  0.00     0.224 C 
HETATM   17  N   UNL     1      44.895 -10.833   8.370  1.00  0.00    -0.327 N 
HETATM   18  H   UNL     1      45.719 -11.319   8.714  1.00  0.00     0.169 HD
HETATM   19  O   UNL     1      45.430 -11.906   6.499  1.00  0.00    -0.273 OA
BRANCH  17  20
HETATM   20  C   UNL     1      44.324  -9.947   9.302  1.00  0.00     0.035 A 
HETATM   21  C   UNL     1      44.013  -8.611   9.065  1.00  0.00     0.037 A 
HETATM   22  C   UNL     1      43.457  -7.797  10.074  1.00  0.00    -0.054 A 
HETATM   23  C   UNL     1      43.215  -8.336  11.349  1.00  0.00    -0.056 A 
HETATM   24  C   UNL     1      43.118  -6.363   9.755  1.00  0.00     0.049 C 
HETATM   25  C   UNL     1      42.627  -7.509  12.460  1.00  0.00     0.049 C 
HETATM   26  C   UNL     1      43.573  -9.665  11.600  1.00  0.00     0.009 A 
HETATM   27  C   UNL     1      44.125 -10.456  10.590  1.00  0.00     0.030 A 
ENDBRANCH  17  20
ENDBRANCH  15  16
ENDBRANCH   1  15
TORSDOF 3
ENDMDL
MODEL 10
REMARK VINA RESULT:      -7.3     14.257     17.176
REMARK  3 active torsions:
REMARK  status: ('A' for Active; 'I' for Inactive)
REMARK    1  A    between atoms: C_6  and  N_7 
REMARK       I    between atoms: N_7  and  C_8 
REMARK    2  A    between atoms: C_8  and  C_9 
REMARK    3  A    between atoms: C_9  and  C_10 
ROOT
HETATM    1  C   UNL     1      48.748 -29.927   1.166  1.00  0.00     0.286 C 
HETATM    2  N   UNL     1      49.202 -29.761  -0.292  1.00  0.00    -0.056 N 
HETATM    3  H   UNL     1      48.354 -29.804  -0.891  1.00  0.00     0.278 HD
HETATM    4  H   UNL     1      49.608 -28.827  -0.428  1.00  0.00     0.278 HD
HETATM    5  C   UNL     1      50.102 -30.841  -0.831  1.00  0.00     0.209 C 
HETATM    6  C   UNL     1      51.151 -31.230   0.227  1.00  0.00     0.115 C 
HETATM    7  N   UNL     1      50.489 -31.694   1.432  1.00  0.00    -0.353 N 
HETATM    8  C   UNL     1      49.366 -31.105   1.947  1.00  0.00     0.249 C 
HETATM    9  O   UNL     1      48.919 -31.488   3.025  1.00  0.00    -0.271 OA
HETATM   10  C   UNL     1      50.748 -30.362  -2.127  1.00  0.00     0.035 C 
HETATM   11  C   UNL     1      51.695 -31.426  -2.679  1.00  0.00     0.002 C 
HETATM   12  C   UNL     1      52.735 -31.852  -1.644  1.00  0.00     0.002 C 
HETATM   13  C   UNL     1      52.094 -32.299  -0.331  1.00  0.00     0.027 C 
HETATM   14  H   UNL     1      50.928 -32.389   2.033  1.00  0.00     0.163 HD
ENDROOT
BRANCH   1  15
HETATM   15  C   UNL     1      47.217 -29.899   1.305  1.00  0.00     0.146 C 
BRANCH  15  16
HETATM   16  C   UNL     1      46.682 -28.500   1.132  1.00  0.00     0.224 C 
HETATM   17  N   UNL     1      45.808 -28.113   0.177  1.00  0.00    -0.327 N 
HETATM   18  H   UNL     1      45.411 -27.202   0.390  1.00  0.00     0.169 HD
HETATM   19  O   UNL     1      46.983 -27.677   2.012  1.00  0.00    -0.273 OA
BRANCH  17  20
HETATM   20  C   UNL     1      45.345 -28.672  -1.027  1.00  0.00     0.035 A 
HETATM   21  C   UNL     1      44.930 -29.989  -1.203  1.00  0.00     0.037 A 
HETATM   22  C   UNL     1      44.497 -30.461  -2.460  1.00  0.00    -0.054 A 
HETATM   23  C   UNL     1      44.488 -29.592  -3.564  1.00  0.00    -0.056 A 
HETATM   24  C   UNL     1      44.037 -31.890  -2.587  1.00  0.00     0.049 C 
HETATM   25  C   UNL     1      44.039 -30.046  -4.926  1.00  0.00     0.049 C 
HETATM   26  C   UNL     1      44.951 -28.283  -3.398  1.00  0.00     0.009 A 
HETATM   27  C   UNL     1      45.378 -27.832  -2.146  1.00  0.00     0.030 A 
ENDBRANCH  17  20
ENDBRANCH  15  16
ENDBRANCH   1  15
TORSDOF 3
ENDMDL
