MODEL 1
REMARK VINA RESULT:      -7.6      0.000      0.000
REMARK  5 active torsions:
REMARK  status: ('A' for Active; 'I' for Inactive)
REMARK    1  A    between atoms: C_2  and  C_3 
REMARK       I    between atoms: C_3  and  N_4 
REMARK    2  A    between atoms: N_4  and  C_5 
REMARK    3  A    between atoms: C_5  and  C_6 
REMARK    4  A    between atoms: C_5  and  C_17 
REMARK    5  A    between atoms: C_7  and  O_8 
ROOT
HETATM    1  C   UNL     1      41.871 -14.171   5.237  1.00  0.00     0.154 C 
ENDROOT
BRANCH   1   2
HETATM    2  N   UNL     1      40.951 -13.513   4.313  1.00  0.00    -0.348 N 
HETATM    3  C   UNL     1      39.827 -12.859   4.765  1.00  0.00     0.218 C 
HETATM    4  O   UNL     1      39.440 -12.900   5.930  1.00  0.00    -0.274 OA
HETATM    5  H   UNL     1      41.364 -13.148   3.467  1.00  0.00     0.163 HD
BRANCH   3   6
HETATM    6  C   UNL     1      39.137 -12.004   3.722  1.00  0.00     0.098 C 
HETATM    7  C   UNL     1      39.137 -12.622   2.335  1.00  0.00     0.014 C 
ENDBRANCH   3   6
ENDBRANCH   1   2
BRANCH   1   8
HETATM    8  C   UNL     1      42.417 -15.483   4.682  1.00  0.00     0.005 A 
HETATM    9  C   UNL     1      42.664 -16.581   5.535  1.00  0.00     0.103 A 
HETATM   10  C   UNL     1      43.213 -17.798   5.097  1.00  0.00     0.100 A 
HETATM   11  C   UNL     1      43.505 -17.914   3.724  1.00  0.00    -0.004 A 
HETATM   12  N   UNL     1      43.444 -18.826   5.950  1.00  0.00    -0.257 NA
HETATM   13  C   UNL     1      43.237 -16.850   2.848  1.00  0.00     0.014 A 
HETATM   14  C   UNL     1      44.062 -19.113   3.256  1.00  0.00     0.015 A 
HETATM   15  C   UNL     1      42.692 -15.655   3.320  1.00  0.00     0.013 A 
HETATM   16  C   UNL     1      44.306 -20.157   4.138  1.00  0.00     0.020 A 
HETATM   17  C   UNL     1      43.981 -19.966   5.465  1.00  0.00     0.117 A 
BRANCH   9  18
HETATM   18  O   UNL     1      42.326 -16.467   6.868  1.00  0.00    -0.358 OA
HETATM   19  H   UNL     1      43.076 -16.875   7.360  1.00  0.00     0.218 HD
ENDBRANCH   9  18
ENDBRANCH   1   8
BRANCH   1  20
HETATM   20  C   UNL     1      42.955 -13.199   5.712  1.00  0.00    -0.031 A 
HETATM   21  C   UNL     1      43.306 -13.177   7.071  1.00  0.00     0.010 A 
HETATM   22  C   UNL     1      44.267 -12.283   7.550  1.00  0.00     0.007 A 
HETATM   23  C   UNL     1      44.901 -11.390   6.680  1.00  0.00    -0.062 A 
HETATM   24  C   UNL     1      45.949 -10.446   7.189  1.00  0.00     0.048 C 
HETATM   25  C   UNL     1      44.588 -11.432   5.318  1.00  0.00     0.007 A 
HETATM   26  C   UNL     1      43.624 -12.322   4.840  1.00  0.00     0.010 A 
ENDBRANCH   1  20
TORSDOF 5
ENDMDL
MODEL 2
REMARK VINA RESULT:      -7.6      1.828      4.463
REMARK  5 active torsions:
REMARK  status: ('A' for Active; 'I' for Inactive)
REMARK    1  A    between atoms: C_2  and  C_3 
REMARK       I    between atoms: C_3  and  N_4 
REMARK    2  A    between atoms: N_4  and  C_5 
REMARK    3  A    between atoms: C_5  and  C_6 
REMARK    4  A    between atoms: C_5  and  C_17 
REMARK    5  A    between atoms: C_7  and  O_8 
ROOT
HETATM    1  C   UNL     1      42.897 -13.455   3.301  1.00  0.00     0.154 C 
ENDROOT
BRANCH   1   2
HETATM    2  N   UNL     1      43.220 -12.968   4.640  1.00  0.00    -0.348 N 
HETATM    3  C   UNL     1      43.999 -11.847   4.827  1.00  0.00     0.218 C 
HETATM    4  O   UNL     1      44.589 -11.271   3.916  1.00  0.00    -0.274 OA
HETATM    5  H   UNL     1      42.527 -13.147   5.352  1.00  0.00     0.163 HD
BRANCH   3   6
HETATM    6  C   UNL     1      44.009 -11.321   6.247  1.00  0.00     0.098 C 
HETATM    7  C   UNL     1      45.357 -11.450   6.932  1.00  0.00     0.014 C 
ENDBRANCH   3   6
ENDBRANCH   1   2
BRANCH   1   8
HETATM    8  C   UNL     1      43.084 -14.963   3.168  1.00  0.00     0.005 A 
HETATM    9  C   UNL     1      43.286 -15.769   4.309  1.00  0.00     0.103 A 
HETATM   10  C   UNL     1      43.516 -17.154   4.253  1.00  0.00     0.100 A 
HETATM   11  C   UNL     1      43.518 -17.753   2.978  1.00  0.00    -0.004 A 
HETATM   12  N   UNL     1      43.715 -17.892   5.373  1.00  0.00    -0.257 NA
HETATM   13  C   UNL     1      43.285 -16.981   1.829  1.00  0.00     0.014 A 
HETATM   14  C   UNL     1      43.752 -19.134   2.887  1.00  0.00     0.015 A 
HETATM   15  C   UNL     1      43.062 -15.607   1.925  1.00  0.00     0.013 A 
HETATM   16  C   UNL     1      43.968 -19.879   4.037  1.00  0.00     0.020 A 
HETATM   17  C   UNL     1      43.938 -19.218   5.248  1.00  0.00     0.117 A 
BRANCH   9  18
HETATM   18  O   UNL     1      43.233 -15.173   5.553  1.00  0.00    -0.358 OA
HETATM   19  H   UNL     1      42.987 -15.896   6.176  1.00  0.00     0.218 HD
ENDBRANCH   9  18
ENDBRANCH   1   8
BRANCH   1  20
HETATM   20  C   UNL     1      41.518 -12.958   2.858  1.00  0.00    -0.031 A 
HETATM   21  C   UNL     1      41.433 -11.994   1.841  1.00  0.00     0.010 A 
HETATM   22  C   UNL     1      40.195 -11.492   1.431  1.00  0.00     0.007 A 
HETATM   23  C   UNL     1      39.013 -11.943   2.027  1.00  0.00    -0.062 A 
HETATM   24  C   UNL     1      37.683 -11.422   1.570  1.00  0.00     0.048 C 
HETATM   25  C   UNL     1      39.085 -12.933   3.011  1.00  0.00     0.007 A 
HETATM   26  C   UNL     1      40.322 -13.432   3.426  1.00  0.00     0.010 A 
ENDBRANCH   1  20
TORSDOF 5
ENDMDL
MODEL 3
REMARK VINA RESULT:      -7.5      2.509      6.300
REMARK  5 active torsions:
REMARK  status: ('A' for Active; 'I' for Inactive)
REMARK    1  A    between atoms: C_2  and  C_3 
REMARK       I    between atoms: C_3  and  N_4 
REMARK    2  A    between atoms: N_4  and  C_5 
REMARK    3  A    between atoms: C_5  and  C_6 
REMARK    4  A    between atoms: C_5  and  C_17 
REMARK    5  A    between atoms: C_7  and  O_8 
ROOT
HETATM    1  C   UNL     1      42.451 -14.875   2.271  1.00  0.00     0.154 C 
ENDROOT
BRANCH   1   2
HETATM    2  N   UNL     1      41.249 -15.145   1.485  1.00  0.00    -0.348 N 
HETATM    3  C   UNL     1      40.835 -14.287   0.491  1.00  0.00     0.218 C 
HETATM    4  O   UNL     1      41.341 -13.186   0.290  1.00  0.00    -0.274 OA
HETATM    5  H   UNL     1      41.022 -16.120   1.349  1.00  0.00     0.163 HD
BRANCH   3   6
HETATM    6  C   UNL     1      39.746 -14.844  -0.403  1.00  0.00     0.098 C 
HETATM    7  C   UNL     1      39.634 -14.130  -1.739  1.00  0.00     0.014 C 
ENDBRANCH   3   6
ENDBRANCH   1   2
BRANCH   1   8
HETATM    8  C   UNL     1      42.263 -13.714   3.242  1.00  0.00     0.005 A 
HETATM    9  C   UNL     1      41.113 -13.631   4.056  1.00  0.00     0.103 A 
HETATM   10  C   UNL     1      40.855 -12.564   4.932  1.00  0.00     0.100 A 
HETATM   11  C   UNL     1      41.821 -11.541   5.002  1.00  0.00    -0.004 A 
HETATM   12  N   UNL     1      39.733 -12.517   5.692  1.00  0.00    -0.257 NA
HETATM   13  C   UNL     1      42.991 -11.615   4.229  1.00  0.00     0.014 A 
HETATM   14  C   UNL     1      41.590 -10.457   5.861  1.00  0.00     0.015 A 
HETATM   15  C   UNL     1      43.212 -12.691   3.368  1.00  0.00     0.013 A 
HETATM   16  C   UNL     1      40.432 -10.411   6.626  1.00  0.00     0.020 A 
HETATM   17  C   UNL     1      39.542 -11.458   6.508  1.00  0.00     0.117 A 
BRANCH   9  18
HETATM   18  O   UNL     1      40.200 -14.665   4.011  1.00  0.00    -0.358 OA
HETATM   19  H   UNL     1      39.519 -14.380   3.357  1.00  0.00     0.218 HD
ENDBRANCH   9  18
ENDBRANCH   1   8
BRANCH   1  20
HETATM   20  C   UNL     1      42.973 -16.156   2.928  1.00  0.00    -0.031 A 
HETATM   21  C   UNL     1      42.997 -17.345   2.182  1.00  0.00     0.010 A 
HETATM   22  C   UNL     1      43.436 -18.542   2.755  1.00  0.00     0.007 A 
HETATM   23  C   UNL     1      43.862 -18.577   4.087  1.00  0.00    -0.062 A 
HETATM   24  C   UNL     1      44.355 -19.856   4.695  1.00  0.00     0.048 C 
HETATM   25  C   UNL     1      43.879 -17.390   4.825  1.00  0.00     0.007 A 
HETATM   26  C   UNL     1      43.436 -16.194   4.254  1.00  0.00     0.010 A 
ENDBRANCH   1  20
TORSDOF 5
ENDMDL
MODEL 4
REMARK VINA RESULT:      -7.5      1.856      6.720
REMARK  5 active torsions:
REMARK  status: ('A' for Active; 'I' for Inactive)
REMARK    1  A    between atoms: C_2  and  C_3 
REMARK       I    between atoms: C_3  and  N_4 
REMARK    2  A    between atoms: N_4  and  C_5 
REMARK    3  A    between atoms: C_5  and  C_6 
REMARK    4  A    between atoms: C_5  and  C_17 
REMARK    5  A    between atoms: C_7  and  O_8 
ROOT
HETATM    1  C   UNL     1      42.055 -14.890   4.071  1.00  0.00     0.154 C 
ENDROOT
BRANCH   1   2
HETATM    2  N   UNL     1      43.144 -14.187   4.745  1.00  0.00    -0.348 N 
HETATM    3  C   UNL     1      42.925 -13.457   5.891  1.00  0.00     0.218 C 
HETATM    4  O   UNL     1      41.807 -13.221   6.343  1.00  0.00    -0.274 OA
HETATM    5  H   UNL     1      44.059 -14.606   4.657  1.00  0.00     0.163 HD
BRANCH   3   6
HETATM    6  C   UNL     1      44.187 -13.027   6.611  1.00  0.00     0.098 C 
HETATM    7  C   UNL     1      44.022 -11.750   7.415  1.00  0.00     0.014 C 
ENDBRANCH   3   6
ENDBRANCH   1   2
BRANCH   1   8
HETATM    8  C   UNL     1      41.406 -14.048   2.977  1.00  0.00     0.005 A 
HETATM    9  C   UNL     1      40.155 -13.429   3.188  1.00  0.00     0.103 A 
HETATM   10  C   UNL     1      39.480 -12.684   2.207  1.00  0.00     0.100 A 
HETATM   11  C   UNL     1      40.115 -12.543   0.958  1.00  0.00    -0.004 A 
HETATM   12  N   UNL     1      38.274 -12.112   2.446  1.00  0.00    -0.257 NA
HETATM   13  C   UNL     1      41.375 -13.119   0.731  1.00  0.00     0.014 A 
HETATM   14  C   UNL     1      39.463 -11.812  -0.047  1.00  0.00     0.015 A 
HETATM   15  C   UNL     1      42.014 -13.854   1.731  1.00  0.00     0.013 A 
HETATM   16  C   UNL     1      38.223 -11.240   0.203  1.00  0.00     0.020 A 
HETATM   17  C   UNL     1      37.675 -11.416   1.457  1.00  0.00     0.117 A 
BRANCH   9  18
HETATM   18  O   UNL     1      39.570 -13.537   4.434  1.00  0.00    -0.358 OA
HETATM   19  H   UNL     1      38.953 -12.771   4.497  1.00  0.00     0.218 HD
ENDBRANCH   9  18
ENDBRANCH   1   8
BRANCH   1  20
HETATM   20  C   UNL     1      42.507 -16.276   3.603  1.00  0.00    -0.031 A 
HETATM   21  C   UNL     1      43.543 -16.926   4.292  1.00  0.00     0.010 A 
HETATM   22  C   UNL     1      44.006 -18.177   3.876  1.00  0.00     0.007 A 
HETATM   23  C   UNL     1      43.443 -18.808   2.762  1.00  0.00    -0.062 A 
HETATM   24  C   UNL     1      43.924 -20.161   2.329  1.00  0.00     0.048 C 
HETATM   25  C   UNL     1      42.384 -18.187   2.094  1.00  0.00     0.007 A 
HETATM   26  C   UNL     1      41.924 -16.934   2.506  1.00  0.00     0.010 A 
ENDBRANCH   1  20
TORSDOF 5
ENDMDL
MODEL 5
REMARK VINA RESULT:      -7.4      2.388      6.257
REMARK  5 active torsions:
REMARK  status: ('A' for Active; 'I' for Inactive)
REMARK    1  A    between atoms: C_2  and  C_3 
REMARK       I    between atoms: C_3  and  N_4 
REMARK    2  A    between atoms: N_4  and  C_5 
REMARK    3  A    between atoms: C_5  and  C_6 
REMARK    4  A    between atoms: C_5  and  C_17 
REMARK    5  A    between atoms: C_7  and  O_8 
ROOT
HETATM    1  C   UNL     1      42.100 -15.290   4.431  1.00  0.00     0.154 C 
ENDROOT
BRANCH   1   2
HETATM    2  N   UNL     1      43.022 -14.204   4.754  1.00  0.00    -0.348 N 
HETATM    3  C   UNL     1      43.111 -13.695   6.031  1.00  0.00     0.218 C 
HETATM    4  O   UNL     1      42.342 -14.000   6.938  1.00  0.00    -0.274 OA
HETATM    5  H   UNL     1      43.869 -14.168   4.205  1.00  0.00     0.163 HD
BRANCH   3   6
HETATM    6  C   UNL     1      44.296 -12.779   6.258  1.00  0.00     0.098 C 
HETATM    7  C   UNL     1      44.130 -11.860   7.456  1.00  0.00     0.014 C 
ENDBRANCH   3   6
ENDBRANCH   1   2
BRANCH   1   8
HETATM    8  C   UNL     1      41.454 -15.118   3.060  1.00  0.00     0.005 A 
HETATM    9  C   UNL     1      41.717 -13.973   2.276  1.00  0.00     0.103 A 
HETATM   10  C   UNL     1      41.117 -13.729   1.029  1.00  0.00     0.100 A 
HETATM   11  C   UNL     1      40.223 -14.704   0.545  1.00  0.00    -0.004 A 
HETATM   12  N   UNL     1      41.388 -12.612   0.311  1.00  0.00    -0.257 NA
HETATM   13  C   UNL     1      39.970 -15.869   1.287  1.00  0.00     0.014 A 
HETATM   14  C   UNL     1      39.600 -14.487  -0.694  1.00  0.00     0.015 A 
HETATM   15  C   UNL     1      40.584 -16.075   2.523  1.00  0.00     0.013 A 
HETATM   16  C   UNL     1      39.875 -13.334  -1.417  1.00  0.00     0.020 A 
HETATM   17  C   UNL     1      40.771 -12.435  -0.877  1.00  0.00     0.117 A 
BRANCH   9  18
HETATM   18  O   UNL     1      42.631 -13.052   2.744  1.00  0.00    -0.358 OA
HETATM   19  H   UNL     1      42.094 -12.363   3.200  1.00  0.00     0.218 HD
ENDBRANCH   9  18
ENDBRANCH   1   8
BRANCH   1  20
HETATM   20  C   UNL     1      42.767 -16.653   4.637  1.00  0.00    -0.031 A 
HETATM   21  C   UNL     1      43.403 -17.273   3.550  1.00  0.00     0.010 A 
HETATM   22  C   UNL     1      43.996 -18.531   3.690  1.00  0.00     0.007 A 
HETATM   23  C   UNL     1      43.967 -19.197   4.919  1.00  0.00    -0.062 A 
HETATM   24  C   UNL     1      44.623 -20.537   5.075  1.00  0.00     0.048 C 
HETATM   25  C   UNL     1      43.372 -18.570   6.017  1.00  0.00     0.007 A 
HETATM   26  C   UNL     1      42.775 -17.314   5.877  1.00  0.00     0.010 A 
ENDBRANCH   1  20
TORSDOF 5
ENDMDL
MODEL 6
REMARK VINA RESULT:      -7.4      2.493      6.341
REMARK  5 active torsions:
REMARK  status: ('A' for Active; 'I' for Inactive)
REMARK    1  A    between atoms: C_2  and  C_3 
REMARK       I    between atoms: C_3  and  N_4 
REMARK    2  A    between atoms: N_4  and  C_5 
REMARK    3  A    between atoms: C_5  and  C_6 
REMARK    4  A    between atoms: C_5  and  C_17 
REMARK    5  A    between atoms: C_7  and  O_8 
ROOT
HETATM    1  C   UNL     1      42.505 -13.831   3.120  1.00  0.00     0.154 C 
ENDROOT
BRANCH   1   2
HETATM    2  N   UNL     1      42.406 -15.280   3.282  1.00  0.00    -0.348 N 
HETATM    3  C   UNL     1      43.048 -16.143   2.422  1.00  0.00     0.218 C 
HETATM    4  O   UNL     1      43.616 -15.780   1.395  1.00  0.00    -0.274 OA
HETATM    5  H   UNL     1      42.285 -15.609   4.228  1.00  0.00     0.163 HD
BRANCH   3   6
HETATM    6  C   UNL     1      43.073 -17.585   2.885  1.00  0.00     0.098 C 
HETATM    7  C   UNL     1      43.681 -17.769   4.264  1.00  0.00     0.014 C 
ENDBRANCH   3   6
ENDBRANCH   1   2
BRANCH   1   8
HETATM    8  C   UNL     1      41.179 -13.198   2.713  1.00  0.00     0.005 A 
HETATM    9  C   UNL     1      40.788 -13.148   1.357  1.00  0.00     0.103 A 
HETATM   10  C   UNL     1      39.606 -12.535   0.910  1.00  0.00     0.100 A 
HETATM   11  C   UNL     1      38.770 -11.962   1.889  1.00  0.00    -0.004 A 
HETATM   12  N   UNL     1      39.269 -12.500  -0.403  1.00  0.00    -0.257 NA
HETATM   13  C   UNL     1      39.117 -12.027   3.248  1.00  0.00     0.014 A 
HETATM   14  C   UNL     1      37.586 -11.334   1.475  1.00  0.00     0.015 A 
HETATM   15  C   UNL     1      40.302 -12.644   3.653  1.00  0.00     0.013 A 
HETATM   16  C   UNL     1      37.256 -11.292   0.127  1.00  0.00     0.020 A 
HETATM   17  C   UNL     1      38.123 -11.887  -0.766  1.00  0.00     0.117 A 
BRANCH   9  18
HETATM   18  O   UNL     1      41.595 -13.757   0.418  1.00  0.00    -0.358 OA
HETATM   19  H   UNL     1      41.174 -14.630   0.241  1.00  0.00     0.218 HD
ENDBRANCH   9  18
ENDBRANCH   1   8
BRANCH   1  20
HETATM   20  C   UNL     1      43.150 -13.188   4.351  1.00  0.00    -0.031 A 
HETATM   21  C   UNL     1      43.739 -11.920   4.230  1.00  0.00     0.010 A 
HETATM   22  C   UNL     1      44.365 -11.312   5.322  1.00  0.00     0.007 A 
HETATM   23  C   UNL     1      44.415 -11.959   6.561  1.00  0.00    -0.062 A 
HETATM   24  C   UNL     1      45.067 -11.298   7.739  1.00  0.00     0.048 C 
HETATM   25  C   UNL     1      43.796 -13.204   6.702  1.00  0.00     0.007 A 
HETATM   26  C   UNL     1      43.174 -13.814   5.610  1.00  0.00     0.010 A 
ENDBRANCH   1  20
TORSDOF 5
ENDMDL
MODEL 7
REMARK VINA RESULT:      -7.4      1.704      2.393
REMARK  5 active torsions:
REMARK  status: ('A' for Active; 'I' for Inactive)
REMARK    1  A    between atoms: C_2  and  C_3 
REMARK       I    between atoms: C_3  and  N_4 
REMARK    2  A    between atoms: N_4  and  C_5 
REMARK    3  A    between atoms: C_5  and  C_6 
REMARK    4  A    between atoms: C_5  and  C_17 
REMARK    5  A    between atoms: C_7  and  O_8 
ROOT
HETATM    1  C   UNL     1      41.958 -12.383   5.984  1.00  0.00     0.154 C 
ENDROOT
BRANCH   1   2
HETATM    2  N   UNL     1      40.899 -11.439   5.633  1.00  0.00    -0.348 N 
HETATM    3  C   UNL     1      39.580 -11.698   5.933  1.00  0.00     0.218 C 
HETATM    4  O   UNL     1      39.182 -12.775   6.370  1.00  0.00    -0.274 OA
HETATM    5  H   UNL     1      41.165 -10.465   5.619  1.00  0.00     0.163 HD
BRANCH   3   6
HETATM    6  C   UNL     1      38.653 -10.513   5.756  1.00  0.00     0.098 C 
HETATM    7  C   UNL     1      38.541 -10.040   4.318  1.00  0.00     0.014 C 
ENDBRANCH   3   6
ENDBRANCH   1   2
BRANCH   1   8
HETATM    8  C   UNL     1      42.268 -13.358   4.853  1.00  0.00     0.005 A 
HETATM    9  C   UNL     1      42.469 -14.730   5.117  1.00  0.00     0.103 A 
HETATM   10  C   UNL     1      42.808 -15.671   4.130  1.00  0.00     0.100 A 
HETATM   11  C   UNL     1      42.927 -15.200   2.808  1.00  0.00    -0.004 A 
HETATM   12  N   UNL     1      43.003 -16.980   4.426  1.00  0.00    -0.257 NA
HETATM   13  C   UNL     1      42.698 -13.847   2.511  1.00  0.00     0.014 A 
HETATM   14  C   UNL     1      43.272 -16.113   1.799  1.00  0.00     0.015 A 
HETATM   15  C   UNL     1      42.364 -12.942   3.519  1.00  0.00     0.013 A 
HETATM   16  C   UNL     1      43.482 -17.449   2.114  1.00  0.00     0.020 A 
HETATM   17  C   UNL     1      43.334 -17.830   3.431  1.00  0.00     0.117 A 
BRANCH   9  18
HETATM   18  O   UNL     1      42.302 -15.182   6.410  1.00  0.00    -0.358 OA
HETATM   19  H   UNL     1      43.214 -15.312   6.759  1.00  0.00     0.218 HD
ENDBRANCH   9  18
ENDBRANCH   1   8
BRANCH   1  20
HETATM   20  C   UNL     1      43.187 -11.647   6.524  1.00  0.00    -0.031 A 
HETATM   21  C   UNL     1      43.005 -10.521   7.343  1.00  0.00     0.010 A 
HETATM   22  C   UNL     1      44.101  -9.804   7.830  1.00  0.00     0.007 A 
HETATM   23  C   UNL     1      45.405 -10.196   7.510  1.00  0.00    -0.062 A 
HETATM   24  C   UNL     1      46.581  -9.440   8.052  1.00  0.00     0.048 C 
HETATM   25  C   UNL     1      45.597 -11.339   6.729  1.00  0.00     0.007 A 
HETATM   26  C   UNL     1      44.502 -12.054   6.238  1.00  0.00     0.010 A 
ENDBRANCH   1  20
TORSDOF 5
ENDMDL
MODEL 8
REMARK VINA RESULT:      -7.3      2.864      6.384
REMARK  5 active torsions:
REMARK  status: ('A' for Active; 'I' for Inactive)
REMARK    1  A    between atoms: C_2  and  C_3 
REMARK       I    between atoms: C_3  and  N_4 
REMARK    2  A    between atoms: N_4  and  C_5 
REMARK    3  A    between atoms: C_5  and  C_6 
REMARK    4  A    between atoms: C_5  and  C_17 
REMARK    5  A    between atoms: C_7  and  O_8 
ROOT
HETATM    1  C   UNL     1      42.766 -12.700   3.088  1.00  0.00     0.154 C 
ENDROOT
BRANCH   1   2
HETATM    2  N   UNL     1      41.460 -12.270   2.597  1.00  0.00    -0.348 N 
HETATM    3  C   UNL     1      41.332 -11.193   1.748  1.00  0.00     0.218 C 
HETATM    4  O   UNL     1      42.260 -10.439   1.464  1.00  0.00    -0.274 OA
HETATM    5  H   UNL     1      40.767 -12.997   2.493  1.00  0.00     0.163 HD
BRANCH   3   6
HETATM    6  C   UNL     1      39.962 -11.050   1.118  1.00  0.00     0.098 C 
HETATM    7  C   UNL     1      39.256 -12.376   0.898  1.00  0.00     0.014 C 
ENDBRANCH   3   6
ENDBRANCH   1   2
BRANCH   1   8
HETATM    8  C   UNL     1      43.065 -12.173   4.488  1.00  0.00     0.005 A 
HETATM    9  C   UNL     1      44.342 -11.665   4.811  1.00  0.00     0.103 A 
HETATM   10  C   UNL     1      44.698 -11.213   6.093  1.00  0.00     0.100 A 
HETATM   11  C   UNL     1      43.704 -11.259   7.089  1.00  0.00    -0.004 A 
HETATM   12  N   UNL     1      45.940 -10.740   6.365  1.00  0.00    -0.257 NA
HETATM   13  C   UNL     1      42.415 -11.726   6.787  1.00  0.00     0.014 A 
HETATM   14  C   UNL     1      44.030 -10.821   8.382  1.00  0.00     0.015 A 
HETATM   15  C   UNL     1      42.099 -12.169   5.502  1.00  0.00     0.013 A 
HETATM   16  C   UNL     1      45.307 -10.351   8.655  1.00  0.00     0.020 A 
HETATM   17  C   UNL     1      46.219 -10.328   7.620  1.00  0.00     0.117 A 
BRANCH   9  18
HETATM   18  O   UNL     1      45.289 -11.583   3.811  1.00  0.00    -0.358 OA
HETATM   19  H   UNL     1      45.144 -10.704   3.389  1.00  0.00     0.218 HD
ENDBRANCH   9  18
ENDBRANCH   1   8
BRANCH   1  20
HETATM   20  C   UNL     1      42.930 -14.217   2.947  1.00  0.00    -0.031 A 
HETATM   21  C   UNL     1      43.115 -14.768   1.670  1.00  0.00     0.010 A 
HETATM   22  C   UNL     1      43.236 -16.149   1.496  1.00  0.00     0.007 A 
HETATM   23  C   UNL     1      43.175 -17.012   2.595  1.00  0.00    -0.062 A 
HETATM   24  C   UNL     1      43.329 -18.492   2.412  1.00  0.00     0.048 C 
HETATM   25  C   UNL     1      43.032 -16.469   3.875  1.00  0.00     0.007 A 
HETATM   26  C   UNL     1      42.906 -15.088   4.050  1.00  0.00     0.010 A 
ENDBRANCH   1  20
TORSDOF 5
ENDMDL
MODEL 9
REMARK VINA RESULT:      -7.2     15.676     16.919
REMARK  5 active torsions:
REMARK  status: ('A' for Active; 'I' for Inactive)
REMARK    1  A    between atoms: C_2  and  C_3 
REMARK       I    between atoms: C_3  and  N_4 
REMARK    2  A    between atoms: N_4  and  C_5 
REMARK    3  A    between atoms: C_5  and  C_6 
REMARK    4  A    between atoms: C_5  and  C_17 
REMARK    5  A    between atoms: C_7  and  O_8 
ROOT
HETATM    1  C   UNL     1      44.671 -29.615   0.207  1.00  0.00     0.154 C 
ENDROOT
BRANCH   1   2
HETATM    2  N   UNL     1      43.728 -30.452   0.945  1.00  0.00    -0.348 N 
HETATM    3  C   UNL     1      42.474 -29.994   1.283  1.00  0.00     0.218 C 
HETATM    4  O   UNL     1      42.113 -28.830   1.128  1.00  0.00    -0.274 OA
HETATM    5  H   UNL     1      43.806 -31.446   0.787  1.00  0.00     0.163 HD
BRANCH   3   6
HETATM    6  C   UNL     1      41.532 -31.064   1.794  1.00  0.00     0.098 C 
HETATM    7  C   UNL     1      41.742 -32.418   1.139  1.00  0.00     0.014 C 
ENDBRANCH   3   6
ENDBRANCH   1   2
BRANCH   1   8
HETATM    8  C   UNL     1      46.112 -29.820   0.661  1.00  0.00     0.005 A 
HETATM    9  C   UNL     1      46.490 -29.578   1.999  1.00  0.00     0.103 A 
HETATM   10  C   UNL     1      47.808 -29.698   2.470  1.00  0.00     0.100 A 
HETATM   11  C   UNL     1      48.787 -30.104   1.541  1.00  0.00    -0.004 A 
HETATM   12  N   UNL     1      48.133 -29.447   3.762  1.00  0.00    -0.257 NA
HETATM   13  C   UNL     1      48.433 -30.386   0.212  1.00  0.00     0.014 A 
HETATM   14  C   UNL     1      50.115 -30.226   1.977  1.00  0.00     0.015 A 
HETATM   15  C   UNL     1      47.113 -30.254  -0.219  1.00  0.00     0.013 A 
HETATM   16  C   UNL     1      50.440 -29.955   3.300  1.00  0.00     0.020 A 
HETATM   17  C   UNL     1      49.420 -29.573   4.147  1.00  0.00     0.117 A 
BRANCH   9  18
HETATM   18  O   UNL     1      45.510 -29.227   2.905  1.00  0.00    -0.358 OA
HETATM   19  H   UNL     1      44.664 -29.272   2.401  1.00  0.00     0.218 HD
ENDBRANCH   9  18
ENDBRANCH   1   8
BRANCH   1  20
HETATM   20  C   UNL     1      44.467 -29.765  -1.303  1.00  0.00    -0.031 A 
HETATM   21  C   UNL     1      44.212 -31.039  -1.835  1.00  0.00     0.010 A 
HETATM   22  C   UNL     1      44.052 -31.223  -3.211  1.00  0.00     0.007 A 
HETATM   23  C   UNL     1      44.143 -30.137  -4.088  1.00  0.00    -0.062 A 
HETATM   24  C   UNL     1      43.949 -30.330  -5.562  1.00  0.00     0.048 C 
HETATM   25  C   UNL     1      44.357 -28.859  -3.564  1.00  0.00     0.007 A 
HETATM   26  C   UNL     1      44.521 -28.674  -2.189  1.00  0.00     0.010 A 
ENDBRANCH   1  20
TORSDOF 5
ENDMDL
MODEL 10
REMARK VINA RESULT:      -7.2      3.063      6.551
REMARK  5 active torsions:
REMARK  status: ('A' for Active; 'I' for Inactive)
REMARK    1  A    between atoms: C_2  and  C_3 
REMARK       I    between atoms: C_3  and  N_4 
REMARK    2  A    between atoms: N_4  and  C_5 
REMARK    3  A    between atoms: C_5  and  C_6 
REMARK    4  A    between atoms: C_5  and  C_17 
REMARK    5  A    between atoms: C_7  and  O_8 
ROOT
HETATM    1  C   UNL     1      41.966 -14.572   2.413  1.00  0.00     0.154 C 
ENDROOT
BRANCH   1   2
HETATM    2  N   UNL     1      40.941 -14.859   1.413  1.00  0.00    -0.348 N 
HETATM    3  C   UNL     1      40.714 -14.008   0.354  1.00  0.00     0.218 C 
HETATM    4  O   UNL     1      41.236 -12.901   0.249  1.00  0.00    -0.274 OA
HETATM    5  H   UNL     1      40.756 -15.836   1.240  1.00  0.00     0.163 HD
BRANCH   3   6
HETATM    6  C   UNL     1      39.824 -14.580  -0.730  1.00  0.00     0.098 C 
HETATM    7  C   UNL     1      40.026 -13.930  -2.087  1.00  0.00     0.014 C 
ENDBRANCH   3   6
ENDBRANCH   1   2
BRANCH   1   8
HETATM    8  C   UNL     1      41.468 -13.630   3.505  1.00  0.00     0.005 A 
HETATM    9  C   UNL     1      41.966 -12.313   3.606  1.00  0.00     0.103 A 
HETATM   10  C   UNL     1      41.589 -11.414   4.617  1.00  0.00     0.100 A 
HETATM   11  C   UNL     1      40.644 -11.866   5.559  1.00  0.00    -0.004 A 
HETATM   12  N   UNL     1      42.098 -10.159   4.686  1.00  0.00    -0.257 NA
HETATM   13  C   UNL     1      40.105 -13.159   5.462  1.00  0.00     0.014 A 
HETATM   14  C   UNL     1      40.251 -10.995   6.587  1.00  0.00     0.015 A 
HETATM   15  C   UNL     1      40.507 -14.025   4.443  1.00  0.00     0.013 A 
HETATM   16  C   UNL     1      40.787  -9.716   6.656  1.00  0.00     0.020 A 
HETATM   17  C   UNL     1      41.699  -9.348   5.688  1.00  0.00     0.117 A 
BRANCH   9  18
HETATM   18  O   UNL     1      42.855 -11.872   2.647  1.00  0.00    -0.358 OA
HETATM   19  H   UNL     1      42.921 -10.898   2.785  1.00  0.00     0.218 HD
ENDBRANCH   9  18
ENDBRANCH   1   8
BRANCH   1  20
HETATM   20  C   UNL     1      42.587 -15.866   2.944  1.00  0.00    -0.031 A 
HETATM   21  C   UNL     1      43.199 -15.863   4.208  1.00  0.00     0.010 A 
HETATM   22  C   UNL     1      43.805 -17.016   4.715  1.00  0.00     0.007 A 
HETATM   23  C   UNL     1      43.813 -18.199   3.970  1.00  0.00    -0.062 A 
HETATM   24  C   UNL     1      44.443 -19.443   4.523  1.00  0.00     0.048 C 
HETATM   25  C   UNL     1      43.172 -18.224   2.728  1.00  0.00     0.007 A 
HETATM   26  C   UNL     1      42.569 -17.071   2.219  1.00  0.00     0.010 A 
ENDBRANCH   1  20
TORSDOF 5
ENDMDL
