MODEL 1
REMARK VINA RESULT:      -9.1      0.000      0.000
REMARK  5 active torsions:
REMARK  status: ('A' for Active; 'I' for Inactive)
REMARK    1  A    between atoms: C_7  and  C_8 
REMARK    2  A    between atoms: C_8  and  N_9 
REMARK    3  A    between atoms: C_13  and  C_14 
REMARK    4  A    between atoms: C_17  and  C_18 
REMARK    5  A    between atoms: C_18  and  N_19 
ROOT
HETATM    1  N   UNL     1      42.896 -15.686   6.240  1.00  0.00    -0.067 N 
HETATM    2  H   UNL     1      42.883 -15.591   7.263  1.00  0.00     0.280 HD
HETATM    3  C   UNL     1      43.045 -14.299   5.658  1.00  0.00     0.236 C 
HETATM    4  C   UNL     1      41.808 -13.454   5.947  1.00  0.00     0.040 C 
HETATM    5  C   UNL     1      40.505 -14.108   5.478  1.00  0.00     0.060 C 
HETATM    6  C   UNL     1      40.401 -15.520   6.067  1.00  0.00     0.040 C 
HETATM    7  C   UNL     1      41.630 -16.385   5.808  1.00  0.00     0.236 C 
ENDROOT
BRANCH   5   8
HETATM    8  C   UNL     1      40.419 -14.120   3.975  1.00  0.00     0.134 A 
HETATM    9  N   UNL     1      40.502 -13.029   3.138  1.00  0.00    -0.323 N 
HETATM   10  C   UNL     1      40.689 -11.653   3.529  1.00  0.00     0.159 C 
HETATM   11  C   UNL     1      40.377 -13.526   1.862  1.00  0.00     0.155 A 
HETATM   12  N   UNL     1      40.260 -14.838   1.926  1.00  0.00    -0.133 NA
HETATM   13  N   UNL     1      40.277 -15.202   3.238  1.00  0.00    -0.134 NA
BRANCH  11  14
HETATM   14  C   UNL     1      40.374 -12.746   0.590  1.00  0.00     0.315 C 
BRANCH  14  15
HETATM   15  N   UNL     1      39.374 -13.319  -0.402  1.00  0.00    -0.064 N 
HETATM   16  H   UNL     1      38.736 -13.887   0.180  1.00  0.00     0.280 HD
HETATM   17  C   UNL     1      38.517 -12.251  -1.044  1.00  0.00     0.235 C 
HETATM   18  C   UNL     1      37.416 -12.911  -1.859  1.00  0.00     0.028 C 
HETATM   19  C   UNL     1      37.989 -13.871  -2.896  1.00  0.00     0.003 C 
HETATM   20  C   UNL     1      38.914 -14.895  -2.250  1.00  0.00     0.028 C 
HETATM   21  C   UNL     1      40.004 -14.232  -1.419  1.00  0.00     0.235 C 
ENDBRANCH  14  15
ENDBRANCH  11  14
ENDBRANCH   5   8
BRANCH   1  22
HETATM   22  C   UNL     1      44.095 -16.573   5.921  1.00  0.00     0.273 C 
BRANCH  22  23
HETATM   23  C   UNL     1      43.904 -17.457   4.718  1.00  0.00    -0.032 A 
HETATM   24  C   UNL     1      43.529 -16.914   3.480  1.00  0.00     0.012 A 
HETATM   25  C   UNL     1      43.316 -17.752   2.385  1.00  0.00     0.043 A 
HETATM   26  C   UNL     1      43.475 -19.127   2.520  1.00  0.00     0.122 A 
HETATM   27  C   UNL     1      43.866 -19.694   3.734  1.00  0.00    -0.023 A 
HETATM   28  F   UNL     1      43.243 -19.912   1.460  1.00  0.00    -0.206 F 
HETATM   29  C   UNL     1      44.003 -21.181   3.866  1.00  0.00     0.051 C 
HETATM   30  C   UNL     1      44.071 -18.851   4.834  1.00  0.00     0.018 A 
ENDBRANCH  22  23
ENDBRANCH   1  22
TORSDOF 5
ENDMDL
MODEL 2
REMARK VINA RESULT:      -9.0      3.883      7.297
REMARK  5 active torsions:
REMARK  status: ('A' for Active; 'I' for Inactive)
REMARK    1  A    between atoms: C_7  and  C_8 
REMARK    2  A    between atoms: C_8  and  N_9 
REMARK    3  A    between atoms: C_13  and  C_14 
REMARK    4  A    between atoms: C_17  and  C_18 
REMARK    5  A    between atoms: C_18  and  N_19 
ROOT
HETATM    1  N   UNL     1      42.305 -14.856   4.752  1.00  0.00    -0.067 N 
HETATM    2  H   UNL     1      41.740 -15.430   4.113  1.00  0.00     0.280 HD
HETATM    3  C   UNL     1      41.439 -14.518   5.944  1.00  0.00     0.236 C 
HETATM    4  C   UNL     1      40.285 -13.608   5.533  1.00  0.00     0.040 C 
HETATM    5  C   UNL     1      40.743 -12.337   4.811  1.00  0.00     0.060 C 
HETATM    6  C   UNL     1      41.639 -12.719   3.626  1.00  0.00     0.040 C 
HETATM    7  C   UNL     1      42.793 -13.642   4.000  1.00  0.00     0.236 C 
ENDROOT
BRANCH   5   8
HETATM    8  C   UNL     1      41.439 -11.399   5.759  1.00  0.00     0.134 A 
HETATM    9  N   UNL     1      40.846 -10.627   6.735  1.00  0.00    -0.323 N 
HETATM   10  C   UNL     1      39.440 -10.562   7.048  1.00  0.00     0.159 C 
HETATM   11  C   UNL     1      41.872  -9.945   7.346  1.00  0.00     0.155 A 
HETATM   12  N   UNL     1      43.013 -10.309   6.795  1.00  0.00    -0.133 NA
HETATM   13  N   UNL     1      42.740 -11.203   5.806  1.00  0.00    -0.134 NA
BRANCH  11  14
HETATM   14  C   UNL     1      41.757  -8.953   8.455  1.00  0.00     0.315 C 
BRANCH  14  15
HETATM   15  N   UNL     1      41.910  -9.626   9.810  1.00  0.00    -0.064 N 
HETATM   16  H   UNL     1      41.654 -10.611   9.635  1.00  0.00     0.280 HD
HETATM   17  C   UNL     1      43.345  -9.644  10.289  1.00  0.00     0.235 C 
HETATM   18  C   UNL     1      43.447 -10.504  11.539  1.00  0.00     0.028 C 
HETATM   19  C   UNL     1      42.497 -10.021  12.629  1.00  0.00     0.003 C 
HETATM   20  C   UNL     1      41.065  -9.929  12.113  1.00  0.00     0.028 C 
HETATM   21  C   UNL     1      40.968  -9.083  10.851  1.00  0.00     0.235 C 
ENDBRANCH  14  15
ENDBRANCH  11  14
ENDBRANCH   5   8
BRANCH   1  22
HETATM   22  C   UNL     1      43.500 -15.722   5.140  1.00  0.00     0.273 C 
BRANCH  22  23
HETATM   23  C   UNL     1      43.589 -17.022   4.387  1.00  0.00    -0.032 A 
HETATM   24  C   UNL     1      43.237 -17.093   3.032  1.00  0.00     0.012 A 
HETATM   25  C   UNL     1      43.284 -18.315   2.360  1.00  0.00     0.043 A 
HETATM   26  C   UNL     1      43.682 -19.464   3.035  1.00  0.00     0.122 A 
HETATM   27  C   UNL     1      44.055 -19.421   4.379  1.00  0.00    -0.023 A 
HETATM   28  F   UNL     1      43.698 -20.629   2.374  1.00  0.00    -0.206 F 
HETATM   29  C   UNL     1      44.451 -20.677   5.096  1.00  0.00     0.051 C 
HETATM   30  C   UNL     1      43.998 -18.194   5.053  1.00  0.00     0.018 A 
ENDBRANCH  22  23
ENDBRANCH   1  22
TORSDOF 5
ENDMDL
MODEL 3
REMARK VINA RESULT:      -8.9      2.560      5.991
REMARK  5 active torsions:
REMARK  status: ('A' for Active; 'I' for Inactive)
REMARK    1  A    between atoms: C_7  and  C_8 
REMARK    2  A    between atoms: C_8  and  N_9 
REMARK    3  A    between atoms: C_13  and  C_14 
REMARK    4  A    between atoms: C_17  and  C_18 
REMARK    5  A    between atoms: C_18  and  N_19 
ROOT
HETATM    1  N   UNL     1      41.928 -15.540   1.496  1.00  0.00    -0.067 N 
HETATM    2  H   UNL     1      41.507 -15.840   0.608  1.00  0.00     0.280 HD
HETATM    3  C   UNL     1      41.040 -16.042   2.612  1.00  0.00     0.236 C 
HETATM    4  C   UNL     1      39.683 -15.344   2.578  1.00  0.00     0.040 C 
HETATM    5  C   UNL     1      39.787 -13.817   2.606  1.00  0.00     0.060 C 
HETATM    6  C   UNL     1      40.716 -13.347   1.479  1.00  0.00     0.040 C 
HETATM    7  C   UNL     1      42.075 -14.038   1.475  1.00  0.00     0.236 C 
ENDROOT
BRANCH   5   8
HETATM    8  C   UNL     1      40.253 -13.332   3.953  1.00  0.00     0.134 A 
HETATM    9  N   UNL     1      40.574 -12.036   4.294  1.00  0.00    -0.323 N 
HETATM   10  C   UNL     1      40.526 -10.879   3.434  1.00  0.00     0.159 C 
HETATM   11  C   UNL     1      40.937 -12.078   5.620  1.00  0.00     0.155 A 
HETATM   12  N   UNL     1      40.812 -13.316   6.056  1.00  0.00    -0.133 NA
HETATM   13  N   UNL     1      40.397 -14.092   5.019  1.00  0.00    -0.134 NA
BRANCH  11  14
HETATM   14  C   UNL     1      41.399 -10.936   6.462  1.00  0.00     0.315 C 
BRANCH  14  15
HETATM   15  N   UNL     1      42.802 -11.178   6.993  1.00  0.00    -0.064 N 
HETATM   16  H   UNL     1      42.738 -12.091   7.472  1.00  0.00     0.280 HD
HETATM   17  C   UNL     1      43.818 -11.354   5.887  1.00  0.00     0.235 C 
HETATM   18  C   UNL     1      45.145 -11.792   6.488  1.00  0.00     0.028 C 
HETATM   19  C   UNL     1      45.631 -10.807   7.546  1.00  0.00     0.003 C 
HETATM   20  C   UNL     1      44.568 -10.574   8.613  1.00  0.00     0.028 C 
HETATM   21  C   UNL     1      43.236 -10.155   8.008  1.00  0.00     0.235 C 
ENDBRANCH  14  15
ENDBRANCH  11  14
ENDBRANCH   5   8
BRANCH   1  22
HETATM   22  C   UNL     1      43.313 -16.180   1.535  1.00  0.00     0.273 C 
BRANCH  22  23
HETATM   23  C   UNL     1      43.509 -17.156   2.664  1.00  0.00    -0.032 A 
HETATM   24  C   UNL     1      43.701 -16.704   3.978  1.00  0.00     0.012 A 
HETATM   25  C   UNL     1      43.923 -17.621   5.007  1.00  0.00     0.043 A 
HETATM   26  C   UNL     1      43.954 -18.983   4.730  1.00  0.00     0.122 A 
HETATM   27  C   UNL     1      43.748 -19.463   3.435  1.00  0.00    -0.023 A 
HETATM   28  F   UNL     1      44.191 -19.841   5.730  1.00  0.00    -0.206 F 
HETATM   29  C   UNL     1      43.816 -20.933   3.152  1.00  0.00     0.051 C 
HETATM   30  C   UNL     1      43.534 -18.540   2.403  1.00  0.00     0.018 A 
ENDBRANCH  22  23
ENDBRANCH   1  22
TORSDOF 5
ENDMDL
MODEL 4
REMARK VINA RESULT:      -8.9      4.378      7.671
REMARK  5 active torsions:
REMARK  status: ('A' for Active; 'I' for Inactive)
REMARK    1  A    between atoms: C_7  and  C_8 
REMARK    2  A    between atoms: C_8  and  N_9 
REMARK    3  A    between atoms: C_13  and  C_14 
REMARK    4  A    between atoms: C_17  and  C_18 
REMARK    5  A    between atoms: C_18  and  N_19 
ROOT
HETATM    1  N   UNL     1      43.359 -14.049   5.178  1.00  0.00    -0.067 N 
HETATM    2  H   UNL     1      44.197 -14.365   4.675  1.00  0.00     0.280 HD
HETATM    3  C   UNL     1      42.770 -12.896   4.399  1.00  0.00     0.236 C 
HETATM    4  C   UNL     1      43.706 -11.691   4.425  1.00  0.00     0.040 C 
HETATM    5  C   UNL     1      44.093 -11.255   5.840  1.00  0.00     0.060 C 
HETATM    6  C   UNL     1      44.661 -12.455   6.607  1.00  0.00     0.040 C 
HETATM    7  C   UNL     1      43.756 -13.682   6.587  1.00  0.00     0.236 C 
ENDROOT
BRANCH   5   8
HETATM    8  C   UNL     1      42.919 -10.640   6.554  1.00  0.00     0.134 A 
HETATM    9  N   UNL     1      42.970  -9.797   7.643  1.00  0.00    -0.323 N 
HETATM   10  C   UNL     1      44.156  -9.330   8.320  1.00  0.00     0.159 C 
HETATM   11  C   UNL     1      41.662  -9.491   7.940  1.00  0.00     0.155 A 
HETATM   12  N   UNL     1      40.877 -10.086   7.065  1.00  0.00    -0.133 NA
HETATM   13  N   UNL     1      41.658 -10.805   6.213  1.00  0.00    -0.134 NA
BRANCH  11  14
HETATM   14  C   UNL     1      41.172  -8.630   9.056  1.00  0.00     0.315 C 
BRANCH  14  15
HETATM   15  N   UNL     1      41.039  -9.425  10.345  1.00  0.00    -0.064 N 
HETATM   16  H   UNL     1      41.277 -10.393  10.072  1.00  0.00     0.280 HD
HETATM   17  C   UNL     1      42.059  -9.020  11.385  1.00  0.00     0.235 C 
HETATM   18  C   UNL     1      41.997  -9.988  12.556  1.00  0.00     0.028 C 
HETATM   19  C   UNL     1      40.593 -10.062  13.145  1.00  0.00     0.003 C 
HETATM   20  C   UNL     1      39.561 -10.393  12.073  1.00  0.00     0.028 C 
HETATM   21  C   UNL     1      39.637  -9.434  10.894  1.00  0.00     0.235 C 
ENDBRANCH  14  15
ENDBRANCH  11  14
ENDBRANCH   5   8
BRANCH   1  22
HETATM   22  C   UNL     1      42.421 -15.252   5.218  1.00  0.00     0.273 C 
BRANCH  22  23
HETATM   23  C   UNL     1      42.882 -16.420   4.387  1.00  0.00    -0.032 A 
HETATM   24  C   UNL     1      42.763 -16.398   2.990  1.00  0.00     0.012 A 
HETATM   25  C   UNL     1      43.156 -17.506   2.237  1.00  0.00     0.043 A 
HETATM   26  C   UNL     1      43.667 -18.633   2.873  1.00  0.00     0.122 A 
HETATM   27  C   UNL     1      43.815 -18.676   4.260  1.00  0.00    -0.023 A 
HETATM   28  F   UNL     1      44.017 -19.691   2.131  1.00  0.00    -0.206 F 
HETATM   29  C   UNL     1      44.339 -19.910   4.929  1.00  0.00     0.051 C 
HETATM   30  C   UNL     1      43.411 -17.565   5.014  1.00  0.00     0.018 A 
ENDBRANCH  22  23
ENDBRANCH   1  22
TORSDOF 5
ENDMDL
MODEL 5
REMARK VINA RESULT:      -8.7      2.992      5.994
REMARK  5 active torsions:
REMARK  status: ('A' for Active; 'I' for Inactive)
REMARK    1  A    between atoms: C_7  and  C_8 
REMARK    2  A    between atoms: C_8  and  N_9 
REMARK    3  A    between atoms: C_13  and  C_14 
REMARK    4  A    between atoms: C_17  and  C_18 
REMARK    5  A    between atoms: C_18  and  N_19 
ROOT
HETATM    1  N   UNL     1      42.602 -15.690   3.463  1.00  0.00    -0.067 N 
HETATM    2  H   UNL     1      42.743 -16.066   2.517  1.00  0.00     0.280 HD
HETATM    3  C   UNL     1      41.205 -16.069   3.899  1.00  0.00     0.236 C 
HETATM    4  C   UNL     1      40.160 -15.356   3.046  1.00  0.00     0.040 C 
HETATM    5  C   UNL     1      40.332 -13.835   3.023  1.00  0.00     0.060 C 
HETATM    6  C   UNL     1      41.766 -13.489   2.603  1.00  0.00     0.040 C 
HETATM    7  C   UNL     1      42.835 -14.199   3.426  1.00  0.00     0.236 C 
ENDROOT
BRANCH   5   8
HETATM    8  C   UNL     1      39.979 -13.233   4.357  1.00  0.00     0.134 A 
HETATM    9  N   UNL     1      39.581 -11.934   4.592  1.00  0.00    -0.323 N 
HETATM   10  C   UNL     1      39.419 -10.889   3.612  1.00  0.00     0.159 C 
HETATM   11  C   UNL     1      39.366 -11.850   5.948  1.00  0.00     0.155 A 
HETATM   12  N   UNL     1      39.589 -13.032   6.489  1.00  0.00    -0.133 NA
HETATM   13  N   UNL     1      39.977 -13.884   5.501  1.00  0.00    -0.134 NA
BRANCH  11  14
HETATM   14  C   UNL     1      38.946 -10.643   6.718  1.00  0.00     0.315 C 
BRANCH  14  15
HETATM   15  N   UNL     1      40.029 -10.209   7.692  1.00  0.00    -0.064 N 
HETATM   16  H   UNL     1      40.247 -11.066   8.227  1.00  0.00     0.280 HD
HETATM   17  C   UNL     1      41.311  -9.812   6.995  1.00  0.00     0.235 C 
HETATM   18  C   UNL     1      42.400  -9.589   8.033  1.00  0.00     0.028 C 
HETATM   19  C   UNL     1      41.980  -8.554   9.070  1.00  0.00     0.003 C 
HETATM   20  C   UNL     1      40.647  -8.923   9.711  1.00  0.00     0.028 C 
HETATM   21  C   UNL     1      39.563  -9.163   8.669  1.00  0.00     0.235 C 
ENDBRANCH  14  15
ENDBRANCH  11  14
ENDBRANCH   5   8
BRANCH   1  22
HETATM   22  C   UNL     1      43.671 -16.345   4.333  1.00  0.00     0.273 C 
BRANCH  22  23
HETATM   23  C   UNL     1      43.728 -17.844   4.214  1.00  0.00    -0.032 A 
HETATM   24  C   UNL     1      43.939 -18.646   5.345  1.00  0.00     0.012 A 
HETATM   25  C   UNL     1      44.030 -20.032   5.212  1.00  0.00     0.043 A 
HETATM   26  C   UNL     1      43.913 -20.619   3.957  1.00  0.00     0.122 A 
HETATM   27  C   UNL     1      43.685 -19.848   2.816  1.00  0.00    -0.023 A 
HETATM   28  F   UNL     1      44.026 -21.949   3.852  1.00  0.00    -0.206 F 
HETATM   29  C   UNL     1      43.591 -20.498   1.469  1.00  0.00     0.051 C 
HETATM   30  C   UNL     1      43.601 -18.456   2.952  1.00  0.00     0.018 A 
ENDBRANCH  22  23
ENDBRANCH   1  22
TORSDOF 5
ENDMDL
MODEL 6
REMARK VINA RESULT:      -8.7      3.748      7.157
REMARK  5 active torsions:
REMARK  status: ('A' for Active; 'I' for Inactive)
REMARK    1  A    between atoms: C_7  and  C_8 
REMARK    2  A    between atoms: C_8  and  N_9 
REMARK    3  A    between atoms: C_13  and  C_14 
REMARK    4  A    between atoms: C_17  and  C_18 
REMARK    5  A    between atoms: C_18  and  N_19 
ROOT
HETATM    1  N   UNL     1      41.640 -14.855   3.630  1.00  0.00    -0.067 N 
HETATM    2  H   UNL     1      40.928 -15.539   3.347  1.00  0.00     0.280 HD
HETATM    3  C   UNL     1      41.686 -14.848   5.141  1.00  0.00     0.236 C 
HETATM    4  C   UNL     1      40.383 -14.304   5.719  1.00  0.00     0.040 C 
HETATM    5  C   UNL     1      40.011 -12.921   5.177  1.00  0.00     0.060 C 
HETATM    6  C   UNL     1      40.000 -12.961   3.644  1.00  0.00     0.040 C 
HETATM    7  C   UNL     1      41.282 -13.515   3.034  1.00  0.00     0.236 C 
ENDROOT
BRANCH   5   8
HETATM    8  C   UNL     1      40.946 -11.866   5.703  1.00  0.00     0.134 A 
HETATM    9  N   UNL     1      40.632 -10.859   6.590  1.00  0.00    -0.323 N 
HETATM   10  C   UNL     1      39.347 -10.611   7.197  1.00  0.00     0.159 C 
HETATM   11  C   UNL     1      41.797 -10.151   6.778  1.00  0.00     0.155 A 
HETATM   12  N   UNL     1      42.757 -10.717   6.074  1.00  0.00    -0.133 NA
HETATM   13  N   UNL     1      42.224 -11.774   5.402  1.00  0.00    -0.134 NA
BRANCH  11  14
HETATM   14  C   UNL     1      41.985  -8.941   7.631  1.00  0.00     0.315 C 
BRANCH  14  15
HETATM   15  N   UNL     1      42.573  -9.311   8.983  1.00  0.00    -0.064 N 
HETATM   16  H   UNL     1      42.799 -10.315   8.896  1.00  0.00     0.280 HD
HETATM   17  C   UNL     1      43.884  -8.608   9.258  1.00  0.00     0.235 C 
HETATM   18  C   UNL     1      44.506  -9.179  10.523  1.00  0.00     0.028 C 
HETATM   19  C   UNL     1      43.553  -9.074  11.709  1.00  0.00     0.003 C 
HETATM   20  C   UNL     1      42.207  -9.715  11.394  1.00  0.00     0.028 C 
HETATM   21  C   UNL     1      41.595  -9.156  10.117  1.00  0.00     0.235 C 
ENDBRANCH  14  15
ENDBRANCH  11  14
ENDBRANCH   5   8
BRANCH   1  22
HETATM   22  C   UNL     1      42.951 -15.343   3.019  1.00  0.00     0.273 C 
BRANCH  22  23
HETATM   23  C   UNL     1      43.310 -16.759   3.384  1.00  0.00    -0.032 A 
HETATM   24  C   UNL     1      43.877 -17.057   4.631  1.00  0.00     0.012 A 
HETATM   25  C   UNL     1      44.243 -18.369   4.936  1.00  0.00     0.043 A 
HETATM   26  C   UNL     1      44.045 -19.381   4.003  1.00  0.00     0.122 A 
HETATM   27  C   UNL     1      43.466 -19.117   2.762  1.00  0.00    -0.023 A 
HETATM   28  F   UNL     1      44.425 -20.627   4.312  1.00  0.00    -0.206 F 
HETATM   29  C   UNL     1      43.289 -20.217   1.759  1.00  0.00     0.051 C 
HETATM   30  C   UNL     1      43.107 -17.798   2.454  1.00  0.00     0.018 A 
ENDBRANCH  22  23
ENDBRANCH   1  22
TORSDOF 5
ENDMDL
MODEL 7
REMARK VINA RESULT:      -8.7      1.938      2.957
REMARK  5 active torsions:
REMARK  status: ('A' for Active; 'I' for Inactive)
REMARK    1  A    between atoms: C_7  and  C_8 
REMARK    2  A    between atoms: C_8  and  N_9 
REMARK    3  A    between atoms: C_13  and  C_14 
REMARK    4  A    between atoms: C_17  and  C_18 
REMARK    5  A    between atoms: C_18  and  N_19 
ROOT
HETATM    1  N   UNL     1      42.505 -14.506   3.184  1.00  0.00    -0.067 N 
HETATM    2  H   UNL     1      42.630 -14.786   4.165  1.00  0.00     0.280 HD
HETATM    3  C   UNL     1      43.290 -13.231   2.973  1.00  0.00     0.236 C 
HETATM    4  C   UNL     1      42.685 -12.084   3.777  1.00  0.00     0.040 C 
HETATM    5  C   UNL     1      41.196 -11.864   3.492  1.00  0.00     0.060 C 
HETATM    6  C   UNL     1      40.439 -13.183   3.691  1.00  0.00     0.040 C 
HETATM    7  C   UNL     1      41.028 -14.354   2.913  1.00  0.00     0.236 C 
ENDROOT
BRANCH   5   8
HETATM    8  C   UNL     1      40.989 -11.303   2.111  1.00  0.00     0.134 A 
HETATM    9  N   UNL     1      39.814 -11.307   1.391  1.00  0.00    -0.323 N 
HETATM   10  C   UNL     1      38.544 -11.848   1.811  1.00  0.00     0.159 C 
HETATM   11  C   UNL     1      40.105 -10.685   0.199  1.00  0.00     0.155 A 
HETATM   12  N   UNL     1      41.366 -10.301   0.216  1.00  0.00    -0.133 NA
HETATM   13  N   UNL     1      41.913 -10.694   1.398  1.00  0.00    -0.134 NA
BRANCH  11  14
HETATM   14  C   UNL     1      39.175 -10.457  -0.946  1.00  0.00     0.315 C 
BRANCH  14  15
HETATM   15  N   UNL     1      39.093 -11.686  -1.838  1.00  0.00    -0.064 N 
HETATM   16  H   UNL     1      39.109 -11.304  -2.798  1.00  0.00     0.280 HD
HETATM   17  C   UNL     1      40.313 -12.571  -1.719  1.00  0.00     0.235 C 
HETATM   18  C   UNL     1      40.251 -13.659  -2.780  1.00  0.00     0.028 C 
HETATM   19  C   UNL     1      38.960 -14.464  -2.680  1.00  0.00     0.003 C 
HETATM   20  C   UNL     1      37.738 -13.555  -2.720  1.00  0.00     0.028 C 
HETATM   21  C   UNL     1      37.811 -12.455  -1.670  1.00  0.00     0.235 C 
ENDBRANCH  14  15
ENDBRANCH  11  14
ENDBRANCH   5   8
BRANCH   1  22
HETATM   22  C   UNL     1      43.054 -15.661   2.351  1.00  0.00     0.273 C 
BRANCH  22  23
HETATM   23  C   UNL     1      43.387 -16.892   3.149  1.00  0.00    -0.032 A 
HETATM   24  C   UNL     1      43.726 -16.798   4.507  1.00  0.00     0.012 A 
HETATM   25  C   UNL     1      44.074 -17.945   5.222  1.00  0.00     0.043 A 
HETATM   26  C   UNL     1      44.084 -19.183   4.588  1.00  0.00     0.122 A 
HETATM   27  C   UNL     1      43.734 -19.310   3.243  1.00  0.00    -0.023 A 
HETATM   28  F   UNL     1      44.442 -20.266   5.290  1.00  0.00    -0.206 F 
HETATM   29  C   UNL     1      43.780 -20.649   2.571  1.00  0.00     0.051 C 
HETATM   30  C   UNL     1      43.393 -18.156   2.525  1.00  0.00     0.018 A 
ENDBRANCH  22  23
ENDBRANCH   1  22
TORSDOF 5
ENDMDL
MODEL 8
REMARK VINA RESULT:      -8.6      5.385      8.979
REMARK  5 active torsions:
REMARK  status: ('A' for Active; 'I' for Inactive)
REMARK    1  A    between atoms: C_7  and  C_8 
REMARK    2  A    between atoms: C_8  and  N_9 
REMARK    3  A    between atoms: C_13  and  C_14 
REMARK    4  A    between atoms: C_17  and  C_18 
REMARK    5  A    between atoms: C_18  and  N_19 
ROOT
HETATM    1  N   UNL     1      42.952 -12.944   5.926  1.00  0.00    -0.067 N 
HETATM    2  H   UNL     1      43.065 -12.876   4.907  1.00  0.00     0.280 HD
HETATM    3  C   UNL     1      42.132 -11.755   6.372  1.00  0.00     0.236 C 
HETATM    4  C   UNL     1      42.904 -10.456   6.161  1.00  0.00     0.040 C 
HETATM    5  C   UNL     1      44.281 -10.454   6.830  1.00  0.00     0.060 C 
HETATM    6  C   UNL     1      45.072 -11.687   6.374  1.00  0.00     0.040 C 
HETATM    7  C   UNL     1      44.321 -13.001   6.557  1.00  0.00     0.236 C 
ENDROOT
BRANCH   5   8
HETATM    8  C   UNL     1      44.153 -10.395   8.328  1.00  0.00     0.134 A 
HETATM    9  N   UNL     1      44.056  -9.257   9.100  1.00  0.00    -0.323 N 
HETATM   10  C   UNL     1      44.056  -7.893   8.632  1.00  0.00     0.159 C 
HETATM   11  C   UNL     1      43.952  -9.696  10.400  1.00  0.00     0.155 A 
HETATM   12  N   UNL     1      43.952 -11.014  10.406  1.00  0.00    -0.133 NA
HETATM   13  N   UNL     1      44.086 -11.444   9.121  1.00  0.00    -0.134 NA
BRANCH  11  14
HETATM   14  C   UNL     1      43.849  -8.853  11.627  1.00  0.00     0.315 C 
BRANCH  14  15
HETATM   15  N   UNL     1      42.481  -8.995  12.276  1.00  0.00    -0.064 N 
HETATM   16  H   UNL     1      42.354 -10.015  12.379  1.00  0.00     0.280 HD
HETATM   17  C   UNL     1      42.442  -8.425  13.676  1.00  0.00     0.235 C 
HETATM   18  C   UNL     1      41.116  -8.784  14.329  1.00  0.00     0.028 C 
HETATM   19  C   UNL     1      39.934  -8.305  13.493  1.00  0.00     0.003 C 
HETATM   20  C   UNL     1      40.025  -8.820  12.061  1.00  0.00     0.028 C 
HETATM   21  C   UNL     1      41.361  -8.475  11.416  1.00  0.00     0.235 C 
ENDBRANCH  14  15
ENDBRANCH  11  14
ENDBRANCH   5   8
BRANCH   1  22
HETATM   22  C   UNL     1      42.228 -14.264   6.175  1.00  0.00     0.273 C 
BRANCH  22  23
HETATM   23  C   UNL     1      42.661 -15.385   5.269  1.00  0.00    -0.032 A 
HETATM   24  C   UNL     1      42.997 -16.642   5.792  1.00  0.00     0.012 A 
HETATM   25  C   UNL     1      43.437 -17.657   4.942  1.00  0.00     0.043 A 
HETATM   26  C   UNL     1      43.543 -17.423   3.575  1.00  0.00     0.122 A 
HETATM   27  C   UNL     1      43.198 -16.188   3.024  1.00  0.00    -0.023 A 
HETATM   28  F   UNL     1      43.988 -18.407   2.783  1.00  0.00    -0.206 F 
HETATM   29  C   UNL     1      43.348 -15.947   1.552  1.00  0.00     0.051 C 
HETATM   30  C   UNL     1      42.764 -15.168   3.881  1.00  0.00     0.018 A 
ENDBRANCH  22  23
ENDBRANCH   1  22
TORSDOF 5
ENDMDL
MODEL 9
REMARK VINA RESULT:      -8.6      1.701      2.352
REMARK  5 active torsions:
REMARK  status: ('A' for Active; 'I' for Inactive)
REMARK    1  A    between atoms: C_7  and  C_8 
REMARK    2  A    between atoms: C_8  and  N_9 
REMARK    3  A    between atoms: C_13  and  C_14 
REMARK    4  A    between atoms: C_17  and  C_18 
REMARK    5  A    between atoms: C_18  and  N_19 
ROOT
HETATM    1  N   UNL     1      41.582 -14.210   6.675  1.00  0.00    -0.067 N 
HETATM    2  H   UNL     1      41.597 -13.956   7.671  1.00  0.00     0.280 HD
HETATM    3  C   UNL     1      42.880 -13.729   6.066  1.00  0.00     0.236 C 
HETATM    4  C   UNL     1      42.947 -12.205   6.070  1.00  0.00     0.040 C 
HETATM    5  C   UNL     1      41.745 -11.544   5.389  1.00  0.00     0.060 C 
HETATM    6  C   UNL     1      40.449 -12.075   6.015  1.00  0.00     0.040 C 
HETATM    7  C   UNL     1      40.358 -13.596   6.041  1.00  0.00     0.236 C 
ENDROOT
BRANCH   5   8
HETATM    8  C   UNL     1      41.779 -11.764   3.901  1.00  0.00     0.134 A 
HETATM    9  N   UNL     1      41.162 -10.992   2.942  1.00  0.00    -0.323 N 
HETATM   10  C   UNL     1      40.359  -9.814   3.166  1.00  0.00     0.159 C 
HETATM   11  C   UNL     1      41.477 -11.572   1.735  1.00  0.00     0.155 A 
HETATM   12  N   UNL     1      42.261 -12.608   1.953  1.00  0.00    -0.133 NA
HETATM   13  N   UNL     1      42.439 -12.730   3.297  1.00  0.00    -0.134 NA
BRANCH  11  14
HETATM   14  C   UNL     1      41.030 -11.130   0.381  1.00  0.00     0.315 C 
BRANCH  14  15
HETATM   15  N   UNL     1      40.842 -12.318  -0.549  1.00  0.00    -0.064 N 
HETATM   16  H   UNL     1      41.655 -12.926  -0.351  1.00  0.00     0.280 HD
HETATM   17  C   UNL     1      39.615 -13.134  -0.208  1.00  0.00     0.235 C 
HETATM   18  C   UNL     1      39.609 -14.405  -1.042  1.00  0.00     0.028 C 
HETATM   19  C   UNL     1      39.681 -14.096  -2.533  1.00  0.00     0.003 C 
HETATM   20  C   UNL     1      40.877 -13.207  -2.855  1.00  0.00     0.028 C 
HETATM   21  C   UNL     1      40.892 -11.943  -2.006  1.00  0.00     0.235 C 
ENDBRANCH  14  15
ENDBRANCH  11  14
ENDBRANCH   5   8
BRANCH   1  22
HETATM   22  C   UNL     1      41.460 -15.730   6.637  1.00  0.00     0.273 C 
BRANCH  22  23
HETATM   23  C   UNL     1      41.925 -16.353   5.348  1.00  0.00    -0.032 A 
HETATM   24  C   UNL     1      41.244 -16.112   4.146  1.00  0.00     0.012 A 
HETATM   25  C   UNL     1      41.663 -16.730   2.968  1.00  0.00     0.043 A 
HETATM   26  C   UNL     1      42.758 -17.588   2.984  1.00  0.00     0.122 A 
HETATM   27  C   UNL     1      43.466 -17.833   4.161  1.00  0.00    -0.023 A 
HETATM   28  F   UNL     1      43.127 -18.187   1.845  1.00  0.00    -0.206 F 
HETATM   29  C   UNL     1      44.625 -18.784   4.164  1.00  0.00     0.051 C 
HETATM   30  C   UNL     1      43.038 -17.217   5.345  1.00  0.00     0.018 A 
ENDBRANCH  22  23
ENDBRANCH   1  22
TORSDOF 5
ENDMDL
MODEL 10
REMARK VINA RESULT:      -8.4      4.384      7.799
REMARK  5 active torsions:
REMARK  status: ('A' for Active; 'I' for Inactive)
REMARK    1  A    between atoms: C_7  and  C_8 
REMARK    2  A    between atoms: C_8  and  N_9 
REMARK    3  A    between atoms: C_13  and  C_14 
REMARK    4  A    between atoms: C_17  and  C_18 
REMARK    5  A    between atoms: C_18  and  N_19 
ROOT
HETATM    1  N   UNL     1      41.688 -14.019   5.551  1.00  0.00    -0.067 N 
HETATM    2  H   UNL     1      42.012 -14.239   4.600  1.00  0.00     0.280 HD
HETATM    3  C   UNL     1      40.187 -13.851   5.491  1.00  0.00     0.236 C 
HETATM    4  C   UNL     1      39.812 -12.624   4.666  1.00  0.00     0.040 C 
HETATM    5  C   UNL     1      40.488 -11.338   5.152  1.00  0.00     0.060 C 
HETATM    6  C   UNL     1      42.005 -11.555   5.224  1.00  0.00     0.040 C 
HETATM    7  C   UNL     1      42.412 -12.784   6.028  1.00  0.00     0.236 C 
ENDROOT
BRANCH   5   8
HETATM    8  C   UNL     1      39.922 -10.898   6.475  1.00  0.00     0.134 A 
HETATM    9  N   UNL     1      40.381  -9.864   7.262  1.00  0.00    -0.323 N 
HETATM   10  C   UNL     1      41.494  -8.991   6.979  1.00  0.00     0.159 C 
HETATM   11  C   UNL     1      39.555  -9.836   8.361  1.00  0.00     0.155 A 
HETATM   12  N   UNL     1      38.637 -10.772   8.227  1.00  0.00    -0.133 NA
HETATM   13  N   UNL     1      38.873 -11.435   7.062  1.00  0.00    -0.134 NA
BRANCH  11  14
HETATM   14  C   UNL     1      39.645  -8.912   9.530  1.00  0.00     0.315 C 
BRANCH  14  15
HETATM   15  N   UNL     1      40.431  -9.543  10.667  1.00  0.00    -0.064 N 
HETATM   16  H   UNL     1      40.394 -10.557  10.471  1.00  0.00     0.280 HD
HETATM   17  C   UNL     1      41.895  -9.164  10.640  1.00  0.00     0.235 C 
HETATM   18  C   UNL     1      42.647  -9.987  11.675  1.00  0.00     0.028 C 
HETATM   19  C   UNL     1      42.048  -9.817  13.066  1.00  0.00     0.003 C 
HETATM   20  C   UNL     1      40.555 -10.124  13.067  1.00  0.00     0.028 C 
HETATM   21  C   UNL     1      39.807  -9.313  12.018  1.00  0.00     0.235 C 
ENDBRANCH  14  15
ENDBRANCH  11  14
ENDBRANCH   5   8
BRANCH   1  22
HETATM   22  C   UNL     1      42.098 -15.208   6.414  1.00  0.00     0.273 C 
BRANCH  22  23
HETATM   23  C   UNL     1      42.682 -16.359   5.641  1.00  0.00    -0.032 A 
HETATM   24  C   UNL     1      43.250 -17.456   6.305  1.00  0.00     0.012 A 
HETATM   25  C   UNL     1      43.825 -18.496   5.572  1.00  0.00     0.043 A 
HETATM   26  C   UNL     1      43.834 -18.445   4.182  1.00  0.00     0.122 A 
HETATM   27  C   UNL     1      43.261 -17.375   3.494  1.00  0.00    -0.023 A 
HETATM   28  F   UNL     1      44.411 -19.443   3.503  1.00  0.00    -0.206 F 
HETATM   29  C   UNL     1      43.308 -17.324   1.997  1.00  0.00     0.051 C 
HETATM   30  C   UNL     1      42.692 -16.328   4.232  1.00  0.00     0.018 A 
ENDBRANCH  22  23
ENDBRANCH   1  22
TORSDOF 5
ENDMDL
