MODEL 1
REMARK VINA RESULT:      -8.2      0.000      0.000
REMARK  7 active torsions:
REMARK  status: ('A' for Active; 'I' for Inactive)
REMARK       I    between atoms: C_2  and  N_3 
REMARK    1  A    between atoms: N_3  and  C_4 
REMARK    2  A    between atoms: C_7  and  C_8 
REMARK    3  A    between atoms: C_13  and  C_14 
REMARK    4  A    between atoms: C_14  and  C_15 
REMARK    5  A    between atoms: C_15  and  C_16 
REMARK    6  A    between atoms: C_16  and  O_17 
REMARK    7  A    between atoms: C_19  and  C_20 
ROOT
HETATM    1  C   UNL     1      43.144 -12.960   4.815  1.00  0.00     0.058 A 
HETATM    2  N   UNL     1      43.208 -14.323   5.000  1.00  0.00    -0.188 N 
HETATM    3  C   UNL     1      43.051 -15.202   3.993  1.00  0.00     0.726 A 
HETATM    4  N   UNL     1      42.796 -14.737   2.729  1.00  0.00    -0.084 N 
HETATM    5  N   UNL     1      42.694 -15.752   1.843  1.00  0.00    -0.140 NA
HETATM    6  C   UNL     1      42.847 -16.808   2.656  1.00  0.00     0.166 A 
HETATM    7  N   UNL     1      43.084 -16.509   3.977  1.00  0.00    -0.046 NA
HETATM    8  C   UNL     1      42.683 -13.312   2.388  1.00  0.00     0.187 A 
HETATM    9  C   UNL     1      42.917 -12.422   3.603  1.00  0.00     0.036 A 
HETATM   10  H   UNL     1      43.371 -14.662   5.944  1.00  0.00     0.184 HD
ENDROOT
BRANCH   1  11
HETATM   11  C   UNL     1      43.297 -12.107   5.996  1.00  0.00    -0.009 A 
HETATM   12  C   UNL     1      44.456 -12.199   6.773  1.00  0.00     0.016 A 
HETATM   13  C   UNL     1      44.628 -11.379   7.893  1.00  0.00     0.030 A 
HETATM   14  C   UNL     1      43.645 -10.456   8.253  1.00  0.00     0.034 A 
HETATM   15  C   UNL     1      42.481 -10.373   7.477  1.00  0.00     0.030 A 
HETATM   16  C   UNL     1      42.306 -11.192   6.357  1.00  0.00     0.016 A 
BRANCH  14  17
HETATM   17  N   UNL     1      43.749  -9.588   9.359  1.00  0.00    -0.328 N 
HETATM   18  C   UNL     1      43.775  -9.931  10.698  1.00  0.00     0.218 C 
HETATM   19  C   UNL     1      43.920  -8.729  11.598  1.00  0.00     0.117 C 
HETATM   20  O   UNL     1      43.724 -11.060  11.172  1.00  0.00    -0.274 OA
HETATM   21  H   UNL     1      43.829  -8.603   9.141  1.00  0.00     0.169 HD
ENDBRANCH  14  17
ENDBRANCH   1  11
BRANCH   8  22
HETATM   22  C   UNL     1      41.344 -12.981   1.737  1.00  0.00    -0.028 A 
HETATM   23  C   UNL     1      41.249 -12.924   0.335  1.00  0.00     0.028 A 
HETATM   24  C   UNL     1      40.044 -12.572  -0.275  1.00  0.00     0.011 A 
HETATM   25 BR   UNL     1      39.941 -12.493  -2.162  1.00  0.00    -0.051 Br
HETATM   26  C   UNL     1      38.921 -12.272   0.491  1.00  0.00     0.019 A 
HETATM   27  C   UNL     1      39.004 -12.317   1.881  1.00  0.00     0.002 A 
HETATM   28  C   UNL     1      40.207 -12.660   2.501  1.00  0.00     0.010 A 
ENDBRANCH   8  22
BRANCH   6  29
HETATM   29  C   UNL     1      42.722 -18.208   2.179  1.00  0.00     0.085 C 
BRANCH  29  30
HETATM   30  C   UNL     1      43.823 -19.123   2.715  1.00  0.00     0.034 C 
BRANCH  30  31
HETATM   31  C   UNL     1      43.732 -20.545   2.170  1.00  0.00     0.164 C 
BRANCH  31  32
HETATM   32  O   UNL     1      44.023 -21.477   3.207  1.00  0.00    -0.401 OA
HETATM   33  H   UNL     1      43.554 -22.303   3.001  1.00  0.00     0.209 HD
ENDBRANCH  31  32
ENDBRANCH  30  31
ENDBRANCH  29  30
ENDBRANCH   6  29
TORSDOF 7
ENDMDL
MODEL 2
REMARK VINA RESULT:      -8.2      3.207      5.289
REMARK  7 active torsions:
REMARK  status: ('A' for Active; 'I' for Inactive)
REMARK       I    between atoms: C_2  and  N_3 
REMARK    1  A    between atoms: N_3  and  C_4 
REMARK    2  A    between atoms: C_7  and  C_8 
REMARK    3  A    between atoms: C_13  and  C_14 
REMARK    4  A    between atoms: C_14  and  C_15 
REMARK    5  A    between atoms: C_15  and  C_16 
REMARK    6  A    between atoms: C_16  and  O_17 
REMARK    7  A    between atoms: C_19  and  C_20 
ROOT
HETATM    1  C   UNL     1      42.093 -13.179   4.430  1.00  0.00     0.058 A 
HETATM    2  N   UNL     1      41.842 -12.593   3.210  1.00  0.00    -0.188 N 
HETATM    3  C   UNL     1      41.330 -13.274   2.168  1.00  0.00     0.726 A 
HETATM    4  N   UNL     1      41.062 -14.611   2.305  1.00  0.00    -0.084 N 
HETATM    5  N   UNL     1      40.531 -15.125   1.174  1.00  0.00    -0.140 NA
HETATM    6  C   UNL     1      40.555 -14.047   0.376  1.00  0.00     0.166 A 
HETATM    7  N   UNL     1      41.022 -12.891   0.955  1.00  0.00    -0.046 NA
HETATM    8  C   UNL     1      41.297 -15.372   3.541  1.00  0.00     0.187 A 
HETATM    9  C   UNL     1      41.841 -14.482   4.653  1.00  0.00     0.036 A 
HETATM   10  H   UNL     1      42.066 -11.608   3.106  1.00  0.00     0.184 HD
ENDROOT
BRANCH   1  11
HETATM   11  C   UNL     1      42.684 -12.341   5.476  1.00  0.00    -0.009 A 
HETATM   12  C   UNL     1      42.035 -11.169   5.875  1.00  0.00     0.016 A 
HETATM   13  C   UNL     1      42.574 -10.367   6.886  1.00  0.00     0.030 A 
HETATM   14  C   UNL     1      43.768 -10.724   7.512  1.00  0.00     0.034 A 
HETATM   15  C   UNL     1      44.422 -11.895   7.104  1.00  0.00     0.030 A 
HETATM   16  C   UNL     1      43.884 -12.699   6.093  1.00  0.00     0.016 A 
BRANCH  14  17
HETATM   17  N   UNL     1      44.370  -9.976   8.546  1.00  0.00    -0.328 N 
HETATM   18  C   UNL     1      44.335 -10.237   9.903  1.00  0.00     0.218 C 
HETATM   19  C   UNL     1      45.118  -9.227  10.705  1.00  0.00     0.117 C 
HETATM   20  O   UNL     1      43.782 -11.179  10.459  1.00  0.00    -0.274 OA
HETATM   21  H   UNL     1      44.900  -9.165   8.252  1.00  0.00     0.169 HD
ENDBRANCH  14  17
ENDBRANCH   1  11
BRANCH   8  22
HETATM   22  C   UNL     1      42.220 -16.564   3.316  1.00  0.00    -0.028 A 
HETATM   23  C   UNL     1      42.544 -17.405   4.396  1.00  0.00     0.028 A 
HETATM   24  C   UNL     1      43.427 -18.471   4.218  1.00  0.00     0.011 A 
HETATM   25 BR   UNL     1      43.856 -19.582   5.687  1.00  0.00    -0.051 Br
HETATM   26  C   UNL     1      44.001 -18.718   2.975  1.00  0.00     0.019 A 
HETATM   27  C   UNL     1      43.695 -17.888   1.898  1.00  0.00     0.002 A 
HETATM   28  C   UNL     1      42.818 -16.815   2.067  1.00  0.00     0.010 A 
ENDBRANCH   8  22
BRANCH   6  29
HETATM   29  C   UNL     1      40.152 -14.100  -1.052  1.00  0.00     0.085 C 
BRANCH  29  30
HETATM   30  C   UNL     1      39.972 -12.716  -1.675  1.00  0.00     0.034 C 
BRANCH  30  31
HETATM   31  C   UNL     1      41.106 -12.338  -2.624  1.00  0.00     0.164 C 
BRANCH  31  32
HETATM   32  O   UNL     1      41.414 -13.442  -3.468  1.00  0.00    -0.401 OA
HETATM   33  H   UNL     1      42.225 -13.857  -3.127  1.00  0.00     0.209 HD
ENDBRANCH  31  32
ENDBRANCH  30  31
ENDBRANCH  29  30
ENDBRANCH   6  29
TORSDOF 7
ENDMDL
MODEL 3
REMARK VINA RESULT:      -8.2      4.516      9.081
REMARK  7 active torsions:
REMARK  status: ('A' for Active; 'I' for Inactive)
REMARK       I    between atoms: C_2  and  N_3 
REMARK    1  A    between atoms: N_3  and  C_4 
REMARK    2  A    between atoms: C_7  and  C_8 
REMARK    3  A    between atoms: C_13  and  C_14 
REMARK    4  A    between atoms: C_14  and  C_15 
REMARK    5  A    between atoms: C_15  and  C_16 
REMARK    6  A    between atoms: C_16  and  O_17 
REMARK    7  A    between atoms: C_19  and  C_20 
ROOT
HETATM    1  C   UNL     1      42.840 -13.162   6.255  1.00  0.00     0.058 A 
HETATM    2  N   UNL     1      41.560 -12.663   6.165  1.00  0.00    -0.188 N 
HETATM    3  C   UNL     1      41.285 -11.348   6.241  1.00  0.00     0.726 A 
HETATM    4  N   UNL     1      42.308 -10.458   6.437  1.00  0.00    -0.084 N 
HETATM    5  N   UNL     1      41.855  -9.185   6.462  1.00  0.00    -0.140 NA
HETATM    6  C   UNL     1      40.536  -9.388   6.326  1.00  0.00     0.166 A 
HETATM    7  N   UNL     1      40.151 -10.699   6.170  1.00  0.00    -0.046 NA
HETATM    8  C   UNL     1      43.719 -10.848   6.570  1.00  0.00     0.187 A 
HETATM    9  C   UNL     1      43.902 -12.354   6.429  1.00  0.00     0.036 A 
HETATM   10  H   UNL     1      40.803 -13.330   6.045  1.00  0.00     0.184 HD
ENDROOT
BRANCH   1  11
HETATM   11  C   UNL     1      43.007 -14.616   6.193  1.00  0.00    -0.009 A 
HETATM   12  C   UNL     1      41.939 -15.420   5.784  1.00  0.00     0.016 A 
HETATM   13  C   UNL     1      42.086 -16.809   5.699  1.00  0.00     0.030 A 
HETATM   14  C   UNL     1      43.302 -17.413   6.021  1.00  0.00     0.034 A 
HETATM   15  C   UNL     1      44.369 -16.605   6.438  1.00  0.00     0.030 A 
HETATM   16  C   UNL     1      44.224 -15.216   6.524  1.00  0.00     0.016 A 
BRANCH  14  17
HETATM   17  N   UNL     1      43.534 -18.802   5.950  1.00  0.00    -0.328 N 
HETATM   18  C   UNL     1      44.086 -19.510   4.899  1.00  0.00     0.218 C 
HETATM   19  C   UNL     1      44.202 -20.985   5.195  1.00  0.00     0.117 C 
HETATM   20  O   UNL     1      44.488 -19.056   3.833  1.00  0.00    -0.274 OA
HETATM   21  H   UNL     1      43.280 -19.334   6.773  1.00  0.00     0.169 HD
ENDBRANCH  14  17
ENDBRANCH   1  11
BRANCH   8  22
HETATM   22  C   UNL     1      44.330 -10.359   7.879  1.00  0.00    -0.028 A 
HETATM   23  C   UNL     1      43.652 -10.590   9.090  1.00  0.00     0.028 A 
HETATM   24  C   UNL     1      44.170 -10.106  10.292  1.00  0.00     0.011 A 
HETATM   25 BR   UNL     1      43.237 -10.419  11.906  1.00  0.00    -0.051 Br
HETATM   26  C   UNL     1      45.362  -9.387  10.312  1.00  0.00     0.019 A 
HETATM   27  C   UNL     1      46.041  -9.145   9.119  1.00  0.00     0.002 A 
HETATM   28  C   UNL     1      45.525  -9.619   7.911  1.00  0.00     0.010 A 
ENDBRANCH   8  22
BRANCH   6  29
HETATM   29  C   UNL     1      39.547  -8.283   6.385  1.00  0.00     0.085 C 
BRANCH  29  30
HETATM   30  C   UNL     1      39.163  -7.749   5.005  1.00  0.00     0.034 C 
BRANCH  30  31
HETATM   31  C   UNL     1      38.057  -8.562   4.339  1.00  0.00     0.164 C 
BRANCH  31  32
HETATM   32  O   UNL     1      37.313  -9.265   5.329  1.00  0.00    -0.401 OA
HETATM   33  H   UNL     1      36.583  -9.723   4.880  1.00  0.00     0.209 HD
ENDBRANCH  31  32
ENDBRANCH  30  31
ENDBRANCH  29  30
ENDBRANCH   6  29
TORSDOF 7
ENDMDL
MODEL 4
REMARK VINA RESULT:      -8.1      4.231      9.132
REMARK  7 active torsions:
REMARK  status: ('A' for Active; 'I' for Inactive)
REMARK       I    between atoms: C_2  and  N_3 
REMARK    1  A    between atoms: N_3  and  C_4 
REMARK    2  A    between atoms: C_7  and  C_8 
REMARK    3  A    between atoms: C_13  and  C_14 
REMARK    4  A    between atoms: C_14  and  C_15 
REMARK    5  A    between atoms: C_15  and  C_16 
REMARK    6  A    between atoms: C_16  and  O_17 
REMARK    7  A    between atoms: C_19  and  C_20 
ROOT
HETATM    1  C   UNL     1      43.002 -13.132   5.897  1.00  0.00     0.058 A 
HETATM    2  N   UNL     1      41.672 -12.783   5.963  1.00  0.00    -0.188 N 
HETATM    3  C   UNL     1      41.262 -11.526   6.217  1.00  0.00     0.726 A 
HETATM    4  N   UNL     1      42.194 -10.548   6.441  1.00  0.00    -0.084 N 
HETATM    5  N   UNL     1      41.608  -9.349   6.653  1.00  0.00    -0.140 NA
HETATM    6  C   UNL     1      40.312  -9.691   6.592  1.00  0.00     0.166 A 
HETATM    7  N   UNL     1      40.062 -11.014   6.311  1.00  0.00    -0.046 NA
HETATM    8  C   UNL     1      43.646 -10.778   6.420  1.00  0.00     0.187 A 
HETATM    9  C   UNL     1      43.980 -12.227   6.086  1.00  0.00     0.036 A 
HETATM   10  H   UNL     1      40.985 -13.518   5.822  1.00  0.00     0.184 HD
ENDROOT
BRANCH   1  11
HETATM   11  C   UNL     1      43.322 -14.540   5.647  1.00  0.00    -0.009 A 
HETATM   12  C   UNL     1      44.071 -15.257   6.585  1.00  0.00     0.016 A 
HETATM   13  C   UNL     1      44.370 -16.607   6.373  1.00  0.00     0.030 A 
HETATM   14  C   UNL     1      43.925 -17.259   5.223  1.00  0.00     0.034 A 
HETATM   15  C   UNL     1      43.181 -16.535   4.281  1.00  0.00     0.030 A 
HETATM   16  C   UNL     1      42.881 -15.184   4.490  1.00  0.00     0.016 A 
BRANCH  14  17
HETATM   17  N   UNL     1      44.174 -18.618   4.942  1.00  0.00    -0.328 N 
HETATM   18  C   UNL     1      43.807 -19.715   5.700  1.00  0.00     0.218 C 
HETATM   19  C   UNL     1      44.226 -21.019   5.068  1.00  0.00     0.117 C 
HETATM   20  O   UNL     1      43.185 -19.707   6.756  1.00  0.00    -0.274 OA
HETATM   21  H   UNL     1      44.664 -18.807   4.077  1.00  0.00     0.169 HD
ENDBRANCH  14  17
ENDBRANCH   1  11
BRANCH   8  22
HETATM   22  C   UNL     1      44.312 -10.368   7.729  1.00  0.00    -0.028 A 
HETATM   23  C   UNL     1      43.657 -10.615   8.949  1.00  0.00     0.028 A 
HETATM   24  C   UNL     1      44.229 -10.201  10.152  1.00  0.00     0.011 A 
HETATM   25 BR   UNL     1      43.326 -10.536  11.780  1.00  0.00    -0.051 Br
HETATM   26  C   UNL     1      45.452  -9.536  10.166  1.00  0.00     0.019 A 
HETATM   27  C   UNL     1      46.108  -9.278   8.964  1.00  0.00     0.002 A 
HETATM   28  C   UNL     1      45.540  -9.682   7.754  1.00  0.00     0.010 A 
ENDBRANCH   8  22
BRANCH   6  29
HETATM   29  C   UNL     1      39.216  -8.726   6.858  1.00  0.00     0.085 C 
BRANCH  29  30
HETATM   30  C   UNL     1      39.345  -8.032   8.214  1.00  0.00     0.034 C 
BRANCH  30  31
HETATM   31  C   UNL     1      39.202  -8.993   9.390  1.00  0.00     0.164 C 
BRANCH  31  32
HETATM   32  O   UNL     1      38.037  -8.666  10.140  1.00  0.00    -0.401 OA
HETATM   33  H   UNL     1      37.512  -9.478  10.239  1.00  0.00     0.209 HD
ENDBRANCH  31  32
ENDBRANCH  30  31
ENDBRANCH  29  30
ENDBRANCH   6  29
TORSDOF 7
ENDMDL
MODEL 5
REMARK VINA RESULT:      -8.1      2.024      2.425
REMARK  7 active torsions:
REMARK  status: ('A' for Active; 'I' for Inactive)
REMARK       I    between atoms: C_2  and  N_3 
REMARK    1  A    between atoms: N_3  and  C_4 
REMARK    2  A    between atoms: C_7  and  C_8 
REMARK    3  A    between atoms: C_13  and  C_14 
REMARK    4  A    between atoms: C_14  and  C_15 
REMARK    5  A    between atoms: C_15  and  C_16 
REMARK    6  A    between atoms: C_16  and  O_17 
REMARK    7  A    between atoms: C_19  and  C_20 
ROOT
HETATM    1  C   UNL     1      43.289 -13.593   5.839  1.00  0.00     0.058 A 
HETATM    2  N   UNL     1      43.378 -14.740   6.593  1.00  0.00    -0.188 N 
HETATM    3  C   UNL     1      43.449 -15.967   6.044  1.00  0.00     0.726 A 
HETATM    4  N   UNL     1      43.412 -16.097   4.681  1.00  0.00    -0.084 N 
HETATM    5  N   UNL     1      43.519 -17.390   4.306  1.00  0.00    -0.140 NA
HETATM    6  C   UNL     1      43.566 -17.993   5.504  1.00  0.00     0.166 A 
HETATM    7  N   UNL     1      43.542 -17.152   6.591  1.00  0.00    -0.046 NA
HETATM    8  C   UNL     1      43.301 -14.962   3.753  1.00  0.00     0.187 A 
HETATM    9  C   UNL     1      43.267 -13.631   4.494  1.00  0.00     0.036 A 
HETATM   10  H   UNL     1      43.379 -14.640   7.604  1.00  0.00     0.184 HD
ENDROOT
BRANCH   1  11
HETATM   11  C   UNL     1      43.183 -12.318   6.553  1.00  0.00    -0.009 A 
HETATM   12  C   UNL     1      44.095 -12.014   7.568  1.00  0.00     0.016 A 
HETATM   13  C   UNL     1      44.022 -10.793   8.248  1.00  0.00     0.030 A 
HETATM   14  C   UNL     1      43.037  -9.860   7.923  1.00  0.00     0.034 A 
HETATM   15  C   UNL     1      42.119 -10.171   6.910  1.00  0.00     0.030 A 
HETATM   16  C   UNL     1      42.190 -11.391   6.229  1.00  0.00     0.016 A 
BRANCH  14  17
HETATM   17  N   UNL     1      42.903  -8.605   8.552  1.00  0.00    -0.328 N 
HETATM   18  C   UNL     1      43.885  -7.650   8.741  1.00  0.00     0.218 C 
HETATM   19  C   UNL     1      43.364  -6.416   9.435  1.00  0.00     0.117 C 
HETATM   20  O   UNL     1      45.056  -7.715   8.383  1.00  0.00    -0.274 OA
HETATM   21  H   UNL     1      41.976  -8.376   8.888  1.00  0.00     0.169 HD
ENDBRANCH  14  17
ENDBRANCH   1  11
BRANCH   8  22
HETATM   22  C   UNL     1      42.092 -15.089   2.832  1.00  0.00    -0.028 A 
HETATM   23  C   UNL     1      41.964 -14.223   1.731  1.00  0.00     0.028 A 
HETATM   24  C   UNL     1      40.839 -14.290   0.908  1.00  0.00     0.011 A 
HETATM   25 BR   UNL     1      40.684 -13.110  -0.561  1.00  0.00    -0.051 Br
HETATM   26  C   UNL     1      39.827 -15.212   1.163  1.00  0.00     0.019 A 
HETATM   27  C   UNL     1      39.937 -16.071   2.255  1.00  0.00     0.002 A 
HETATM   28  C   UNL     1      41.056 -16.005   3.088  1.00  0.00     0.010 A 
ENDBRANCH   8  22
BRANCH   6  29
HETATM   29  C   UNL     1      43.594 -19.470   5.656  1.00  0.00     0.085 C 
BRANCH  29  30
HETATM   30  C   UNL     1      44.556 -20.154   4.685  1.00  0.00     0.034 C 
BRANCH  30  31
HETATM   31  C   UNL     1      43.839 -20.909   3.570  1.00  0.00     0.164 C 
BRANCH  31  32
HETATM   32  O   UNL     1      43.365 -19.989   2.592  1.00  0.00    -0.401 OA
HETATM   33  H   UNL     1      43.116 -20.499   1.804  1.00  0.00     0.209 HD
ENDBRANCH  31  32
ENDBRANCH  30  31
ENDBRANCH  29  30
ENDBRANCH   6  29
TORSDOF 7
ENDMDL
MODEL 6
REMARK VINA RESULT:      -8.1      3.362      5.231
REMARK  7 active torsions:
REMARK  status: ('A' for Active; 'I' for Inactive)
REMARK       I    between atoms: C_2  and  N_3 
REMARK    1  A    between atoms: N_3  and  C_4 
REMARK    2  A    between atoms: C_7  and  C_8 
REMARK    3  A    between atoms: C_13  and  C_14 
REMARK    4  A    between atoms: C_14  and  C_15 
REMARK    5  A    between atoms: C_15  and  C_16 
REMARK    6  A    between atoms: C_16  and  O_17 
REMARK    7  A    between atoms: C_19  and  C_20 
ROOT
HETATM    1  C   UNL     1      41.231 -12.674   5.020  1.00  0.00     0.058 A 
HETATM    2  N   UNL     1      40.935 -12.331   3.720  1.00  0.00    -0.188 N 
HETATM    3  C   UNL     1      40.662 -13.245   2.771  1.00  0.00     0.726 A 
HETATM    4  N   UNL     1      40.696 -14.577   3.091  1.00  0.00    -0.084 N 
HETATM    5  N   UNL     1      40.373 -15.346   2.028  1.00  0.00    -0.140 NA
HETATM    6  C   UNL     1      40.205 -14.409   1.084  1.00  0.00     0.166 A 
HETATM    7  N   UNL     1      40.357 -13.109   1.506  1.00  0.00    -0.046 NA
HETATM    8  C   UNL     1      41.015 -15.090   4.431  1.00  0.00     0.187 A 
HETATM    9  C   UNL     1      41.267 -13.959   5.420  1.00  0.00     0.036 A 
HETATM   10  H   UNL     1      40.936 -11.343   3.483  1.00  0.00     0.184 HD
ENDROOT
BRANCH   1  11
HETATM   11  C   UNL     1      41.545 -11.590   5.954  1.00  0.00    -0.009 A 
HETATM   12  C   UNL     1      40.518 -10.778   6.444  1.00  0.00     0.016 A 
HETATM   13  C   UNL     1      40.795  -9.750   7.352  1.00  0.00     0.030 A 
HETATM   14  C   UNL     1      42.103  -9.520   7.782  1.00  0.00     0.034 A 
HETATM   15  C   UNL     1      43.132 -10.330   7.282  1.00  0.00     0.030 A 
HETATM   16  C   UNL     1      42.856 -11.358   6.374  1.00  0.00     0.016 A 
BRANCH  14  17
HETATM   17  N   UNL     1      42.462  -8.513   8.701  1.00  0.00    -0.328 N 
HETATM   18  C   UNL     1      42.745  -7.187   8.429  1.00  0.00     0.218 C 
HETATM   19  C   UNL     1      43.068  -6.399   9.674  1.00  0.00     0.117 C 
HETATM   20  O   UNL     1      42.725  -6.638   7.333  1.00  0.00    -0.274 OA
HETATM   21  H   UNL     1      42.500  -8.795   9.673  1.00  0.00     0.169 HD
ENDBRANCH  14  17
ENDBRANCH   1  11
BRANCH   8  22
HETATM   22  C   UNL     1      42.197 -16.052   4.412  1.00  0.00    -0.028 A 
HETATM   23  C   UNL     1      42.229 -17.095   3.468  1.00  0.00     0.028 A 
HETATM   24  C   UNL     1      43.278 -18.015   3.470  1.00  0.00     0.011 A 
HETATM   25 BR   UNL     1      43.295 -19.415   2.199  1.00  0.00    -0.051 Br
HETATM   26  C   UNL     1      44.306 -17.918   4.403  1.00  0.00     0.019 A 
HETATM   27  C   UNL     1      44.284 -16.894   5.348  1.00  0.00     0.002 A 
HETATM   28  C   UNL     1      43.235 -15.973   5.359  1.00  0.00     0.010 A 
ENDBRANCH   8  22
BRANCH   6  29
HETATM   29  C   UNL     1      39.921 -14.743  -0.334  1.00  0.00     0.085 C 
BRANCH  29  30
HETATM   30  C   UNL     1      40.133 -13.563  -1.282  1.00  0.00     0.034 C 
BRANCH  30  31
HETATM   31  C   UNL     1      40.155 -13.975  -2.751  1.00  0.00     0.164 C 
BRANCH  31  32
HETATM   32  O   UNL     1      41.406 -13.622  -3.331  1.00  0.00    -0.401 OA
HETATM   33  H   UNL     1      41.797 -12.919  -2.785  1.00  0.00     0.209 HD
ENDBRANCH  31  32
ENDBRANCH  30  31
ENDBRANCH  29  30
ENDBRANCH   6  29
TORSDOF 7
ENDMDL
MODEL 7
REMARK VINA RESULT:      -7.9     17.489     18.613
REMARK  7 active torsions:
REMARK  status: ('A' for Active; 'I' for Inactive)
REMARK       I    between atoms: C_2  and  N_3 
REMARK    1  A    between atoms: N_3  and  C_4 
REMARK    2  A    between atoms: C_7  and  C_8 
REMARK    3  A    between atoms: C_13  and  C_14 
REMARK    4  A    between atoms: C_14  and  C_15 
REMARK    5  A    between atoms: C_15  and  C_16 
REMARK    6  A    between atoms: C_16  and  O_17 
REMARK    7  A    between atoms: C_19  and  C_20 
ROOT
HETATM    1  C   UNL     1      43.779 -30.077   1.012  1.00  0.00     0.058 A 
HETATM    2  N   UNL     1      45.064 -30.337   1.432  1.00  0.00    -0.188 N 
HETATM    3  C   UNL     1      46.147 -30.004   0.707  1.00  0.00     0.726 A 
HETATM    4  N   UNL     1      45.981 -29.398  -0.511  1.00  0.00    -0.084 N 
HETATM    5  N   UNL     1      47.170 -29.113  -1.085  1.00  0.00    -0.140 NA
HETATM    6  C   UNL     1      48.015 -29.623  -0.176  1.00  0.00     0.166 A 
HETATM    7  N   UNL     1      47.425 -30.162   0.943  1.00  0.00    -0.046 NA
HETATM    8  C   UNL     1      44.670 -29.077  -1.094  1.00  0.00     0.187 A 
HETATM    9  C   UNL     1      43.530 -29.469  -0.163  1.00  0.00     0.036 A 
HETATM   10  H   UNL     1      45.180 -30.809   2.324  1.00  0.00     0.184 HD
ENDROOT
BRANCH   1  11
HETATM   11  C   UNL     1      42.680 -30.520   1.874  1.00  0.00    -0.009 A 
HETATM   12  C   UNL     1      41.722 -31.407   1.376  1.00  0.00     0.016 A 
HETATM   13  C   UNL     1      40.677 -31.856   2.190  1.00  0.00     0.030 A 
HETATM   14  C   UNL     1      40.575 -31.425   3.513  1.00  0.00     0.034 A 
HETATM   15  C   UNL     1      41.533 -30.528   4.007  1.00  0.00     0.030 A 
HETATM   16  C   UNL     1      42.579 -30.078   3.195  1.00  0.00     0.016 A 
BRANCH  14  17
HETATM   17  N   UNL     1      39.560 -31.839   4.400  1.00  0.00    -0.328 N 
HETATM   18  C   UNL     1      39.564 -32.950   5.223  1.00  0.00     0.218 C 
HETATM   19  C   UNL     1      38.309 -33.057   6.054  1.00  0.00     0.117 C 
HETATM   20  O   UNL     1      40.460 -33.778   5.341  1.00  0.00    -0.274 OA
HETATM   21  H   UNL     1      38.744 -31.241   4.447  1.00  0.00     0.169 HD
ENDBRANCH  14  17
ENDBRANCH   1  11
BRANCH   8  22
HETATM   22  C   UNL     1      44.479 -29.715  -2.466  1.00  0.00    -0.028 A 
HETATM   23  C   UNL     1      44.356 -31.112  -2.570  1.00  0.00     0.028 A 
HETATM   24  C   UNL     1      44.232 -31.717  -3.821  1.00  0.00     0.011 A 
HETATM   25 BR   UNL     1      44.077 -33.598  -3.939  1.00  0.00    -0.051 Br
HETATM   26  C   UNL     1      44.229 -30.950  -4.983  1.00  0.00     0.019 A 
HETATM   27  C   UNL     1      44.357 -29.566  -4.895  1.00  0.00     0.002 A 
HETATM   28  C   UNL     1      44.490 -28.952  -3.648  1.00  0.00     0.010 A 
ENDBRANCH   8  22
BRANCH   6  29
HETATM   29  C   UNL     1      49.485 -29.652  -0.377  1.00  0.00     0.085 C 
BRANCH  29  30
HETATM   30  C   UNL     1      49.886 -30.022  -1.805  1.00  0.00     0.034 C 
BRANCH  30  31
HETATM   31  C   UNL     1      51.188 -30.815  -1.871  1.00  0.00     0.164 C 
BRANCH  31  32
HETATM   32  O   UNL     1      52.152 -30.095  -2.633  1.00  0.00    -0.401 OA
HETATM   33  H   UNL     1      51.673 -29.454  -3.185  1.00  0.00     0.209 HD
ENDBRANCH  31  32
ENDBRANCH  30  31
ENDBRANCH  29  30
ENDBRANCH   6  29
TORSDOF 7
ENDMDL
MODEL 8
REMARK VINA RESULT:      -7.8     16.682     18.352
REMARK  7 active torsions:
REMARK  status: ('A' for Active; 'I' for Inactive)
REMARK       I    between atoms: C_2  and  N_3 
REMARK    1  A    between atoms: N_3  and  C_4 
REMARK    2  A    between atoms: C_7  and  C_8 
REMARK    3  A    between atoms: C_13  and  C_14 
REMARK    4  A    between atoms: C_14  and  C_15 
REMARK    5  A    between atoms: C_15  and  C_16 
REMARK    6  A    between atoms: C_16  and  O_17 
REMARK    7  A    between atoms: C_19  and  C_20 
ROOT
HETATM    1  C   UNL     1      44.069 -30.544   3.055  1.00  0.00     0.058 A 
HETATM    2  N   UNL     1      45.115 -31.226   3.635  1.00  0.00    -0.188 N 
HETATM    3  C   UNL     1      46.385 -30.784   3.588  1.00  0.00     0.726 A 
HETATM    4  N   UNL     1      46.668 -29.620   2.923  1.00  0.00    -0.084 N 
HETATM    5  N   UNL     1      47.982 -29.315   3.001  1.00  0.00    -0.140 NA
HETATM    6  C   UNL     1      48.442 -30.372   3.687  1.00  0.00     0.166 A 
HETATM    7  N   UNL     1      47.491 -31.284   4.078  1.00  0.00    -0.046 NA
HETATM    8  C   UNL     1      45.657 -28.798   2.243  1.00  0.00     0.187 A 
HETATM    9  C   UNL     1      44.258 -29.384   2.400  1.00  0.00     0.036 A 
HETATM   10  H   UNL     1      44.903 -32.102   4.104  1.00  0.00     0.184 HD
ENDROOT
BRANCH   1  11
HETATM   11  C   UNL     1      42.736 -31.145   3.143  1.00  0.00    -0.009 A 
HETATM   12  C   UNL     1      42.384 -31.889   4.273  1.00  0.00     0.016 A 
HETATM   13  C   UNL     1      41.109 -32.455   4.384  1.00  0.00     0.030 A 
HETATM   14  C   UNL     1      40.168 -32.283   3.368  1.00  0.00     0.034 A 
HETATM   15  C   UNL     1      40.527 -31.543   2.232  1.00  0.00     0.030 A 
HETATM   16  C   UNL     1      41.801 -30.978   2.119  1.00  0.00     0.016 A 
BRANCH  14  17
HETATM   17  N   UNL     1      38.861 -32.810   3.409  1.00  0.00    -0.328 N 
HETATM   18  C   UNL     1      38.044 -32.948   4.516  1.00  0.00     0.218 C 
HETATM   19  C   UNL     1      36.697 -33.532   4.170  1.00  0.00     0.117 C 
HETATM   20  O   UNL     1      38.304 -32.626   5.670  1.00  0.00    -0.274 OA
HETATM   21  H   UNL     1      38.475 -33.104   2.520  1.00  0.00     0.169 HD
ENDBRANCH  14  17
ENDBRANCH   1  11
BRANCH   8  22
HETATM   22  C   UNL     1      45.982 -28.589   0.769  1.00  0.00    -0.028 A 
HETATM   23  C   UNL     1      45.073 -29.025  -0.212  1.00  0.00     0.028 A 
HETATM   24  C   UNL     1      45.378 -28.888  -1.567  1.00  0.00     0.011 A 
HETATM   25 BR   UNL     1      44.145 -29.490  -2.868  1.00  0.00    -0.051 Br
HETATM   26  C   UNL     1      46.584 -28.321  -1.969  1.00  0.00     0.019 A 
HETATM   27  C   UNL     1      47.497 -27.891  -1.008  1.00  0.00     0.002 A 
HETATM   28  C   UNL     1      47.204 -28.031   0.350  1.00  0.00     0.010 A 
ENDBRANCH   8  22
BRANCH   6  29
HETATM   29  C   UNL     1      49.886 -30.577   3.967  1.00  0.00     0.085 C 
BRANCH  29  30
HETATM   30  C   UNL     1      50.797 -29.853   2.976  1.00  0.00     0.034 C 
BRANCH  30  31
HETATM   31  C   UNL     1      50.872 -30.548   1.620  1.00  0.00     0.164 C 
BRANCH  31  32
HETATM   32  O   UNL     1      50.326 -29.702   0.614  1.00  0.00    -0.401 OA
HETATM   33  H   UNL     1      50.494 -30.121  -0.247  1.00  0.00     0.209 HD
ENDBRANCH  31  32
ENDBRANCH  30  31
ENDBRANCH  29  30
ENDBRANCH   6  29
TORSDOF 7
ENDMDL
MODEL 9
REMARK VINA RESULT:      -7.8      2.898      8.350
REMARK  7 active torsions:
REMARK  status: ('A' for Active; 'I' for Inactive)
REMARK       I    between atoms: C_2  and  N_3 
REMARK    1  A    between atoms: N_3  and  C_4 
REMARK    2  A    between atoms: C_7  and  C_8 
REMARK    3  A    between atoms: C_13  and  C_14 
REMARK    4  A    between atoms: C_14  and  C_15 
REMARK    5  A    between atoms: C_15  and  C_16 
REMARK    6  A    between atoms: C_16  and  O_17 
REMARK    7  A    between atoms: C_19  and  C_20 
ROOT
HETATM    1  C   UNL     1      42.795 -13.501   5.507  1.00  0.00     0.058 A 
HETATM    2  N   UNL     1      43.951 -13.128   6.154  1.00  0.00    -0.188 N 
HETATM    3  C   UNL     1      44.032 -12.024   6.919  1.00  0.00     0.726 A 
HETATM    4  N   UNL     1      42.933 -11.218   7.055  1.00  0.00    -0.084 N 
HETATM    5  N   UNL     1      43.186 -10.175   7.876  1.00  0.00    -0.140 NA
HETATM    6  C   UNL     1      44.479 -10.389   8.159  1.00  0.00     0.166 A 
HETATM    7  N   UNL     1      45.027 -11.522   7.605  1.00  0.00    -0.046 NA
HETATM    8  C   UNL     1      41.639 -11.482   6.409  1.00  0.00     0.187 A 
HETATM    9  C   UNL     1      41.666 -12.775   5.604  1.00  0.00     0.036 A 
HETATM   10  H   UNL     1      44.770 -13.716   6.029  1.00  0.00     0.184 HD
ENDROOT
BRANCH   1  11
HETATM   11  C   UNL     1      42.841 -14.706   4.674  1.00  0.00    -0.009 A 
HETATM   12  C   UNL     1      43.051 -14.589   3.297  1.00  0.00     0.016 A 
HETATM   13  C   UNL     1      43.118 -15.728   2.488  1.00  0.00     0.030 A 
HETATM   14  C   UNL     1      42.977 -17.000   3.045  1.00  0.00     0.034 A 
HETATM   15  C   UNL     1      42.758 -17.114   4.425  1.00  0.00     0.030 A 
HETATM   16  C   UNL     1      42.691 -15.975   5.235  1.00  0.00     0.016 A 
BRANCH  14  17
HETATM   17  N   UNL     1      43.043 -18.196   2.301  1.00  0.00    -0.328 N 
HETATM   18  C   UNL     1      43.650 -19.383   2.668  1.00  0.00     0.218 C 
HETATM   19  C   UNL     1      43.494 -20.458   1.622  1.00  0.00     0.117 C 
HETATM   20  O   UNL     1      44.235 -19.618   3.719  1.00  0.00    -0.274 OA
HETATM   21  H   UNL     1      42.577 -18.183   1.402  1.00  0.00     0.169 HD
ENDBRANCH  14  17
ENDBRANCH   1  11
BRANCH   8  22
HETATM   22  C   UNL     1      41.186 -10.319   5.532  1.00  0.00    -0.028 A 
HETATM   23  C   UNL     1      40.197  -9.437   6.005  1.00  0.00     0.028 A 
HETATM   24  C   UNL     1      39.735  -8.399   5.195  1.00  0.00     0.011 A 
HETATM   25 BR   UNL     1      38.399  -7.231   5.847  1.00  0.00    -0.051 Br
HETATM   26  C   UNL     1      40.241  -8.220   3.911  1.00  0.00     0.019 A 
HETATM   27  C   UNL     1      41.216  -9.091   3.428  1.00  0.00     0.002 A 
HETATM   28  C   UNL     1      41.679 -10.138   4.228  1.00  0.00     0.010 A 
ENDBRANCH   8  22
BRANCH   6  29
HETATM   29  C   UNL     1      45.286  -9.448   8.975  1.00  0.00     0.085 C 
BRANCH  29  30
HETATM   30  C   UNL     1      45.211  -9.739  10.474  1.00  0.00     0.034 C 
BRANCH  30  31
HETATM   31  C   UNL     1      43.993  -9.108  11.142  1.00  0.00     0.164 C 
BRANCH  31  32
HETATM   32  O   UNL     1      42.908 -10.030  11.135  1.00  0.00    -0.401 OA
HETATM   33  H   UNL     1      42.553 -10.060  10.231  1.00  0.00     0.209 HD
ENDBRANCH  31  32
ENDBRANCH  30  31
ENDBRANCH  29  30
ENDBRANCH   6  29
TORSDOF 7
ENDMDL
MODEL 10
REMARK VINA RESULT:      -7.7      6.079      8.728
REMARK  7 active torsions:
REMARK  status: ('A' for Active; 'I' for Inactive)
REMARK       I    between atoms: C_2  and  N_3 
REMARK    1  A    between atoms: N_3  and  C_4 
REMARK    2  A    between atoms: C_7  and  C_8 
REMARK    3  A    between atoms: C_13  and  C_14 
REMARK    4  A    between atoms: C_14  and  C_15 
REMARK    5  A    between atoms: C_15  and  C_16 
REMARK    6  A    between atoms: C_16  and  O_17 
REMARK    7  A    between atoms: C_19  and  C_20 
ROOT
HETATM    1  C   UNL     1      43.189  -8.194  11.729  1.00  0.00     0.058 A 
HETATM    2  N   UNL     1      43.946  -9.289  11.379  1.00  0.00    -0.188 N 
HETATM    3  C   UNL     1      44.424  -9.475  10.134  1.00  0.00     0.726 A 
HETATM    4  N   UNL     1      44.136  -8.556   9.160  1.00  0.00    -0.084 N 
HETATM    5  N   UNL     1      44.716  -8.887   7.985  1.00  0.00    -0.140 NA
HETATM    6  C   UNL     1      45.297 -10.050   8.313  1.00  0.00     0.166 A 
HETATM    7  N   UNL     1      45.154 -10.434   9.626  1.00  0.00    -0.046 NA
HETATM    8  C   UNL     1      43.326  -7.350   9.384  1.00  0.00     0.187 A 
HETATM    9  C   UNL     1      42.878  -7.236  10.836  1.00  0.00     0.036 A 
HETATM   10  H   UNL     1      44.134  -9.981  12.099  1.00  0.00     0.184 HD
ENDROOT
BRANCH   1  11
HETATM   11  C   UNL     1      42.698  -8.122  13.107  1.00  0.00    -0.009 A 
HETATM   12  C   UNL     1      43.198  -7.143  13.971  1.00  0.00     0.016 A 
HETATM   13  C   UNL     1      42.727  -7.046  15.285  1.00  0.00     0.030 A 
HETATM   14  C   UNL     1      41.749  -7.925  15.753  1.00  0.00     0.034 A 
HETATM   15  C   UNL     1      41.255  -8.910  14.886  1.00  0.00     0.030 A 
HETATM   16  C   UNL     1      41.725  -9.009  13.572  1.00  0.00     0.016 A 
BRANCH  14  17
HETATM   17  N   UNL     1      41.215  -7.885  17.057  1.00  0.00    -0.328 N 
HETATM   18  C   UNL     1      40.139  -7.139  17.503  1.00  0.00     0.218 C 
HETATM   19  C   UNL     1      39.840  -7.374  18.963  1.00  0.00     0.117 C 
HETATM   20  O   UNL     1      39.442  -6.379  16.840  1.00  0.00    -0.274 OA
HETATM   21  H   UNL     1      41.663  -8.486  17.737  1.00  0.00     0.169 HD
ENDBRANCH  14  17
ENDBRANCH   1  11
BRANCH   8  22
HETATM   22  C   UNL     1      42.123  -7.284   8.450  1.00  0.00    -0.028 A 
HETATM   23  C   UNL     1      42.089  -6.318   7.429  1.00  0.00     0.028 A 
HETATM   24  C   UNL     1      40.973  -6.210   6.598  1.00  0.00     0.011 A 
HETATM   25 BR   UNL     1      40.945  -4.898   5.237  1.00  0.00    -0.051 Br
HETATM   26  C   UNL     1      39.878  -7.053   6.766  1.00  0.00     0.019 A 
HETATM   27  C   UNL     1      39.895  -8.010   7.779  1.00  0.00     0.002 A 
HETATM   28  C   UNL     1      41.004  -8.120   8.621  1.00  0.00     0.010 A 
ENDBRANCH   8  22
BRANCH   6  29
HETATM   29  C   UNL     1      46.008 -10.897   7.323  1.00  0.00     0.085 C 
BRANCH  29  30
HETATM   30  C   UNL     1      45.078 -11.488   6.264  1.00  0.00     0.034 C 
BRANCH  30  31
HETATM   31  C   UNL     1      44.458 -12.815   6.690  1.00  0.00     0.164 C 
BRANCH  31  32
HETATM   32  O   UNL     1      43.631 -12.616   7.832  1.00  0.00    -0.401 OA
HETATM   33  H   UNL     1      42.963 -11.949   7.599  1.00  0.00     0.209 HD
ENDBRANCH  31  32
ENDBRANCH  30  31
ENDBRANCH  29  30
ENDBRANCH   6  29
TORSDOF 7
ENDMDL
