MODEL 1
REMARK VINA RESULT:      -8.3      0.000      0.000
REMARK  8 active torsions:
REMARK  status: ('A' for Active; 'I' for Inactive)
REMARK    1  A    between atoms: O_2  and  C_3 
REMARK    2  A    between atoms: C_6  and  C_7 
REMARK    3  A    between atoms: C_7  and  N_8 
REMARK    4  A    between atoms: C_7  and  C_27 
REMARK    5  A    between atoms: N_8  and  C_11 
REMARK    6  A    between atoms: C_11  and  C_12 
REMARK       I    between atoms: C_12  and  N_13 
REMARK    7  A    between atoms: N_13  and  C_14 
REMARK    8  A    between atoms: C_17  and  N_18 
ROOT
HETATM    1  N   UNL     1      44.463 -16.672   5.243  1.00  0.00    -0.055 N 
HETATM    2  H   UNL     1      45.239 -17.337   5.083  1.00  0.00     0.278 HD
HETATM    3  H   UNL     1      44.761 -15.832   4.738  1.00  0.00     0.278 HD
ENDROOT
BRANCH   1   4
HETATM    4  C   UNL     1      43.232 -17.231   4.608  1.00  0.00     0.252 C 
BRANCH   4   5
HETATM    5  C   UNL     1      42.559 -16.290   3.617  1.00  0.00    -0.023 A 
HETATM    6  C   UNL     1      43.278 -15.440   2.755  1.00  0.00     0.012 A 
HETATM    7  C   UNL     1      42.615 -14.592   1.858  1.00  0.00     0.037 A 
HETATM    8  C   UNL     1      41.225 -14.586   1.795  1.00  0.00     0.068 A 
HETATM    9  C   UNL     1      40.503 -15.430   2.638  1.00  0.00     0.037 A 
HETATM   10  C   UNL     1      41.158 -16.279   3.534  1.00  0.00     0.012 A 
BRANCH   8  11
HETATM   11  O   UNL     1      40.460 -13.812   0.969  1.00  0.00    -0.356 OA
HETATM   12  C   UNL     1      40.055 -14.383  -0.269  1.00  0.00     0.210 C 
ENDBRANCH   8  11
ENDBRANCH   4   5
BRANCH   4  13
HETATM   13  C   UNL     1      43.552 -18.609   4.051  1.00  0.00    -0.023 A 
HETATM   14  C   UNL     1      43.401 -18.850   2.673  1.00  0.00     0.009 A 
HETATM   15  C   UNL     1      43.620 -20.123   2.143  1.00  0.00     0.001 A 
HETATM   16  C   UNL     1      43.987 -21.175   2.978  1.00  0.00     0.000 A 
HETATM   17  C   UNL     1      44.137 -20.957   4.344  1.00  0.00     0.001 A 
HETATM   18  C   UNL     1      43.917 -19.686   4.879  1.00  0.00     0.009 A 
ENDBRANCH   4  13
ENDBRANCH   1   4
BRANCH   1  19
HETATM   19  C   UNL     1      44.421 -16.426   6.726  1.00  0.00     0.336 C 
BRANCH  19  20
HETATM   20  C   UNL     1      43.510 -15.228   6.992  1.00  0.00     0.248 C 
HETATM   21  N   UNL     1      43.773 -14.123   6.210  1.00  0.00    -0.326 N 
HETATM   22  H   UNL     1      44.555 -14.148   5.565  1.00  0.00     0.169 HD
HETATM   23  O   UNL     1      42.729 -15.308   7.937  1.00  0.00    -0.271 OA
BRANCH  21  24
HETATM   24  C   UNL     1      43.087 -12.890   6.243  1.00  0.00     0.034 A 
HETATM   25  C   UNL     1      43.535 -11.766   6.929  1.00  0.00     0.032 A 
HETATM   26  C   UNL     1      42.762 -10.593   6.954  1.00  0.00     0.032 A 
HETATM   27  C   UNL     1      41.536 -10.509   6.287  1.00  0.00     0.037 A 
HETATM   28  C   UNL     1      41.113 -11.637   5.572  1.00  0.00     0.032 A 
HETATM   29  C   UNL     1      41.868 -12.816   5.563  1.00  0.00     0.032 A 
BRANCH  27  30
HETATM   30  N   UNL     1      40.733  -9.337   6.333  1.00  0.00    -0.318 N 
HETATM   31  C   UNL     1      39.505  -9.201   7.002  1.00  0.00     0.224 C 
HETATM   32  O   UNL     1      38.917 -10.007   7.706  1.00  0.00    -0.273 OA
HETATM   33  C   UNL     1      38.926  -7.856   6.631  1.00  0.00     0.105 C 
HETATM   34  C   UNL     1      40.131  -7.088   6.129  1.00  0.00     0.029 C 
HETATM   35  C   UNL     1      41.005  -8.168   5.527  1.00  0.00     0.133 C 
ENDBRANCH  27  30
ENDBRANCH  21  24
ENDBRANCH  19  20
ENDBRANCH   1  19
TORSDOF 8
ENDMDL
MODEL 2
REMARK VINA RESULT:      -8.1      3.630      9.779
REMARK  8 active torsions:
REMARK  status: ('A' for Active; 'I' for Inactive)
REMARK    1  A    between atoms: O_2  and  C_3 
REMARK    2  A    between atoms: C_6  and  C_7 
REMARK    3  A    between atoms: C_7  and  N_8 
REMARK    4  A    between atoms: C_7  and  C_27 
REMARK    5  A    between atoms: N_8  and  C_11 
REMARK    6  A    between atoms: C_11  and  C_12 
REMARK       I    between atoms: C_12  and  N_13 
REMARK    7  A    between atoms: N_13  and  C_14 
REMARK    8  A    between atoms: C_17  and  N_18 
ROOT
HETATM    1  N   UNL     1      41.563 -10.003   8.375  1.00  0.00    -0.055 N 
HETATM    2  H   UNL     1      42.027 -10.904   8.166  1.00  0.00     0.278 HD
HETATM    3  H   UNL     1      40.988 -10.217   9.196  1.00  0.00     0.278 HD
ENDROOT
BRANCH   1   4
HETATM    4  C   UNL     1      42.616  -9.010   8.742  1.00  0.00     0.252 C 
BRANCH   4   5
HETATM    5  C   UNL     1      42.524  -8.506  10.176  1.00  0.00    -0.023 A 
HETATM    6  C   UNL     1      42.259  -7.162  10.502  1.00  0.00     0.012 A 
HETATM    7  C   UNL     1      42.182  -6.744  11.838  1.00  0.00     0.037 A 
HETATM    8  C   UNL     1      42.355  -7.660  12.871  1.00  0.00     0.068 A 
HETATM    9  C   UNL     1      42.610  -8.995  12.559  1.00  0.00     0.037 A 
HETATM   10  C   UNL     1      42.687  -9.418  11.230  1.00  0.00     0.012 A 
BRANCH   8  11
HETATM   11  O   UNL     1      42.305  -7.385  14.208  1.00  0.00    -0.356 OA
HETATM   12  C   UNL     1      41.751  -8.381  15.059  1.00  0.00     0.210 C 
ENDBRANCH   8  11
ENDBRANCH   4   5
BRANCH   4  13
HETATM   13  C   UNL     1      43.974  -9.573   8.358  1.00  0.00    -0.023 A 
HETATM   14  C   UNL     1      45.114  -8.753   8.447  1.00  0.00     0.009 A 
HETATM   15  C   UNL     1      46.364  -9.219   8.035  1.00  0.00     0.001 A 
HETATM   16  C   UNL     1      46.496 -10.507   7.524  1.00  0.00     0.000 A 
HETATM   17  C   UNL     1      45.380 -11.332   7.424  1.00  0.00     0.001 A 
HETATM   18  C   UNL     1      44.128 -10.869   7.832  1.00  0.00     0.009 A 
ENDBRANCH   4  13
ENDBRANCH   1   4
BRANCH   1  19
HETATM   19  C   UNL     1      40.705  -9.687   7.181  1.00  0.00     0.336 C 
BRANCH  19  20
HETATM   20  C   UNL     1      40.892 -10.794   6.144  1.00  0.00     0.248 C 
HETATM   21  N   UNL     1      41.377 -11.980   6.653  1.00  0.00    -0.326 N 
HETATM   22  H   UNL     1      41.622 -12.034   7.636  1.00  0.00     0.169 HD
HETATM   23  O   UNL     1      40.716 -10.502   4.964  1.00  0.00    -0.271 OA
BRANCH  21  24
HETATM   24  C   UNL     1      41.637 -13.161   5.925  1.00  0.00     0.034 A 
HETATM   25  C   UNL     1      40.803 -14.275   5.920  1.00  0.00     0.032 A 
HETATM   26  C   UNL     1      41.165 -15.431   5.210  1.00  0.00     0.032 A 
HETATM   27  C   UNL     1      42.355 -15.500   4.478  1.00  0.00     0.037 A 
HETATM   28  C   UNL     1      43.169 -14.360   4.465  1.00  0.00     0.032 A 
HETATM   29  C   UNL     1      42.825 -13.213   5.190  1.00  0.00     0.032 A 
BRANCH  27  30
HETATM   30  N   UNL     1      42.744 -16.676   3.783  1.00  0.00    -0.318 N 
HETATM   31  C   UNL     1      43.718 -17.600   4.198  1.00  0.00     0.224 C 
HETATM   32  O   UNL     1      44.371 -17.621   5.230  1.00  0.00    -0.273 OA
HETATM   33  C   UNL     1      43.928 -18.585   3.072  1.00  0.00     0.105 C 
HETATM   34  C   UNL     1      42.671 -18.431   2.241  1.00  0.00     0.029 C 
HETATM   35  C   UNL     1      42.297 -16.978   2.442  1.00  0.00     0.133 C 
ENDBRANCH  27  30
ENDBRANCH  21  24
ENDBRANCH  19  20
ENDBRANCH   1  19
TORSDOF 8
ENDMDL
MODEL 3
REMARK VINA RESULT:      -8.0      2.885      5.902
REMARK  8 active torsions:
REMARK  status: ('A' for Active; 'I' for Inactive)
REMARK    1  A    between atoms: O_2  and  C_3 
REMARK    2  A    between atoms: C_6  and  C_7 
REMARK    3  A    between atoms: C_7  and  N_8 
REMARK    4  A    between atoms: C_7  and  C_27 
REMARK    5  A    between atoms: N_8  and  C_11 
REMARK    6  A    between atoms: C_11  and  C_12 
REMARK       I    between atoms: C_12  and  N_13 
REMARK    7  A    between atoms: N_13  and  C_14 
REMARK    8  A    between atoms: C_17  and  N_18 
ROOT
HETATM    1  N   UNL     1      39.224 -13.308   2.050  1.00  0.00    -0.055 N 
HETATM    2  H   UNL     1      38.476 -13.445   1.348  1.00  0.00     0.278 HD
HETATM    3  H   UNL     1      39.020 -14.022   2.756  1.00  0.00     0.278 HD
ENDROOT
BRANCH   1   4
HETATM    4  C   UNL     1      40.535 -13.604   1.398  1.00  0.00     0.252 C 
BRANCH   4   5
HETATM    5  C   UNL     1      41.250 -14.824   1.963  1.00  0.00    -0.023 A 
HETATM    6  C   UNL     1      40.755 -15.571   3.049  1.00  0.00     0.012 A 
HETATM    7  C   UNL     1      41.447 -16.689   3.533  1.00  0.00     0.037 A 
HETATM    8  C   UNL     1      42.639 -17.090   2.935  1.00  0.00     0.068 A 
HETATM    9  C   UNL     1      43.134 -16.362   1.853  1.00  0.00     0.037 A 
HETATM   10  C   UNL     1      42.448 -15.247   1.365  1.00  0.00     0.012 A 
BRANCH   8  11
HETATM   11  O   UNL     1      43.408 -18.155   3.307  1.00  0.00    -0.356 OA
HETATM   12  C   UNL     1      43.485 -19.251   2.404  1.00  0.00     0.210 C 
ENDBRANCH   8  11
ENDBRANCH   4   5
BRANCH   4  13
HETATM   13  C   UNL     1      40.337 -13.630  -0.108  1.00  0.00    -0.023 A 
HETATM   14  C   UNL     1      40.852 -12.581  -0.892  1.00  0.00     0.009 A 
HETATM   15  C   UNL     1      40.626 -12.541  -2.269  1.00  0.00     0.001 A 
HETATM   16  C   UNL     1      39.881 -13.542  -2.885  1.00  0.00     0.000 A 
HETATM   17  C   UNL     1      39.359 -14.586  -2.126  1.00  0.00     0.001 A 
HETATM   18  C   UNL     1      39.580 -14.629  -0.748  1.00  0.00     0.009 A 
ENDBRANCH   4  13
ENDBRANCH   1   4
BRANCH   1  19
HETATM   19  C   UNL     1      39.028 -11.924   2.607  1.00  0.00     0.336 C 
BRANCH  19  20
HETATM   20  C   UNL     1      39.732 -11.843   3.960  1.00  0.00     0.248 C 
HETATM   21  N   UNL     1      40.842 -11.024   3.981  1.00  0.00    -0.326 N 
HETATM   22  H   UNL     1      41.146 -10.581   3.121  1.00  0.00     0.169 HD
HETATM   23  O   UNL     1      39.335 -12.588   4.853  1.00  0.00    -0.271 OA
BRANCH  21  24
HETATM   24  C   UNL     1      41.671 -10.763   5.093  1.00  0.00     0.034 A 
HETATM   25  C   UNL     1      42.842 -11.461   5.374  1.00  0.00     0.032 A 
HETATM   26  C   UNL     1      43.581 -11.173   6.532  1.00  0.00     0.032 A 
HETATM   27  C   UNL     1      43.181 -10.177   7.429  1.00  0.00     0.037 A 
HETATM   28  C   UNL     1      42.019  -9.459   7.116  1.00  0.00     0.032 A 
HETATM   29  C   UNL     1      41.265  -9.758   5.974  1.00  0.00     0.032 A 
BRANCH  27  30
HETATM   30  N   UNL     1      43.905  -9.900   8.619  1.00  0.00    -0.318 N 
HETATM   31  C   UNL     1      45.262  -9.545   8.698  1.00  0.00     0.224 C 
HETATM   32  O   UNL     1      46.062  -9.347   7.797  1.00  0.00    -0.273 OA
HETATM   33  C   UNL     1      45.648  -9.526  10.159  1.00  0.00     0.105 C 
HETATM   34  C   UNL     1      44.314  -9.406  10.867  1.00  0.00     0.029 C 
HETATM   35  C   UNL     1      43.362 -10.132   9.939  1.00  0.00     0.133 C 
ENDBRANCH  27  30
ENDBRANCH  21  24
ENDBRANCH  19  20
ENDBRANCH   1  19
TORSDOF 8
ENDMDL
MODEL 4
REMARK VINA RESULT:      -7.8      1.253      1.871
REMARK  8 active torsions:
REMARK  status: ('A' for Active; 'I' for Inactive)
REMARK    1  A    between atoms: O_2  and  C_3 
REMARK    2  A    between atoms: C_6  and  C_7 
REMARK    3  A    between atoms: C_7  and  N_8 
REMARK    4  A    between atoms: C_7  and  C_27 
REMARK    5  A    between atoms: N_8  and  C_11 
REMARK    6  A    between atoms: C_11  and  C_12 
REMARK       I    between atoms: C_12  and  N_13 
REMARK    7  A    between atoms: N_13  and  C_14 
REMARK    8  A    between atoms: C_17  and  N_18 
ROOT
HETATM    1  N   UNL     1      44.332 -16.585   5.152  1.00  0.00    -0.055 N 
HETATM    2  H   UNL     1      45.046 -17.332   5.202  1.00  0.00     0.278 HD
HETATM    3  H   UNL     1      44.763 -15.886   4.539  1.00  0.00     0.278 HD
ENDROOT
BRANCH   1   4
HETATM    4  C   UNL     1      43.114 -17.148   4.496  1.00  0.00     0.252 C 
BRANCH   4   5
HETATM    5  C   UNL     1      42.516 -16.253   3.419  1.00  0.00    -0.023 A 
HETATM    6  C   UNL     1      41.135 -16.198   3.147  1.00  0.00     0.012 A 
HETATM    7  C   UNL     1      40.629 -15.356   2.147  1.00  0.00     0.037 A 
HETATM    8  C   UNL     1      41.488 -14.546   1.410  1.00  0.00     0.068 A 
HETATM    9  C   UNL     1      42.856 -14.588   1.677  1.00  0.00     0.037 A 
HETATM   10  C   UNL     1      43.367 -15.423   2.674  1.00  0.00     0.012 A 
BRANCH   8  11
HETATM   11  O   UNL     1      41.127 -13.686   0.413  1.00  0.00    -0.356 OA
HETATM   12  C   UNL     1      39.747 -13.628   0.070  1.00  0.00     0.210 C 
ENDBRANCH   8  11
ENDBRANCH   4   5
BRANCH   4  13
HETATM   13  C   UNL     1      43.416 -18.567   4.041  1.00  0.00    -0.023 A 
HETATM   14  C   UNL     1      43.859 -19.516   4.980  1.00  0.00     0.009 A 
HETATM   15  C   UNL     1      44.211 -20.806   4.580  1.00  0.00     0.001 A 
HETATM   16  C   UNL     1      44.130 -21.169   3.239  1.00  0.00     0.000 A 
HETATM   17  C   UNL     1      43.698 -20.243   2.295  1.00  0.00     0.001 A 
HETATM   18  C   UNL     1      43.348 -18.951   2.689  1.00  0.00     0.009 A 
ENDBRANCH   4  13
ENDBRANCH   1   4
BRANCH   1  19
HETATM   19  C   UNL     1      44.178 -16.057   6.552  1.00  0.00     0.336 C 
BRANCH  19  20
HETATM   20  C   UNL     1      43.106 -14.970   6.544  1.00  0.00     0.248 C 
HETATM   21  N   UNL     1      43.452 -13.827   5.853  1.00  0.00    -0.326 N 
HETATM   22  H   UNL     1      44.379 -13.755   5.449  1.00  0.00     0.169 HD
HETATM   23  O   UNL     1      42.107 -15.152   7.237  1.00  0.00    -0.271 OA
BRANCH  21  24
HETATM   24  C   UNL     1      42.653 -12.676   5.682  1.00  0.00     0.034 A 
HETATM   25  C   UNL     1      42.795 -11.511   6.428  1.00  0.00     0.032 A 
HETATM   26  C   UNL     1      41.922 -10.429   6.230  1.00  0.00     0.032 A 
HETATM   27  C   UNL     1      40.899 -10.477   5.277  1.00  0.00     0.037 A 
HETATM   28  C   UNL     1      40.789 -11.643   4.509  1.00  0.00     0.032 A 
HETATM   29  C   UNL     1      41.642 -12.734   4.719  1.00  0.00     0.032 A 
BRANCH  27  30
HETATM   30  N   UNL     1      39.992  -9.399   5.092  1.00  0.00    -0.318 N 
HETATM   31  C   UNL     1      40.048  -8.437   4.069  1.00  0.00     0.224 C 
HETATM   32  O   UNL     1      40.819  -8.356   3.126  1.00  0.00    -0.273 OA
HETATM   33  C   UNL     1      39.002  -7.387   4.368  1.00  0.00     0.105 C 
HETATM   34  C   UNL     1      38.065  -8.097   5.323  1.00  0.00     0.029 C 
HETATM   35  C   UNL     1      38.979  -9.051   6.063  1.00  0.00     0.133 C 
ENDBRANCH  27  30
ENDBRANCH  21  24
ENDBRANCH  19  20
ENDBRANCH   1  19
TORSDOF 8
ENDMDL
MODEL 5
REMARK VINA RESULT:      -7.8      4.208      6.414
REMARK  8 active torsions:
REMARK  status: ('A' for Active; 'I' for Inactive)
REMARK    1  A    between atoms: O_2  and  C_3 
REMARK    2  A    between atoms: C_6  and  C_7 
REMARK    3  A    between atoms: C_7  and  N_8 
REMARK    4  A    between atoms: C_7  and  C_27 
REMARK    5  A    between atoms: N_8  and  C_11 
REMARK    6  A    between atoms: C_11  and  C_12 
REMARK       I    between atoms: C_12  and  N_13 
REMARK    7  A    between atoms: N_13  and  C_14 
REMARK    8  A    between atoms: C_17  and  N_18 
ROOT
HETATM    1  N   UNL     1      43.844 -13.207   6.840  1.00  0.00    -0.055 N 
HETATM    2  H   UNL     1      42.980 -12.906   7.324  1.00  0.00     0.278 HD
HETATM    3  H   UNL     1      44.285 -13.839   7.515  1.00  0.00     0.278 HD
ENDROOT
BRANCH   1   4
HETATM    4  C   UNL     1      43.451 -13.969   5.617  1.00  0.00     0.252 C 
BRANCH   4   5
HETATM    5  C   UNL     1      43.495 -15.482   5.785  1.00  0.00    -0.023 A 
HETATM    6  C   UNL     1      43.537 -16.115   7.042  1.00  0.00     0.012 A 
HETATM    7  C   UNL     1      43.574 -17.512   7.146  1.00  0.00     0.037 A 
HETATM    8  C   UNL     1      43.559 -18.302   6.001  1.00  0.00     0.068 A 
HETATM    9  C   UNL     1      43.509 -17.686   4.751  1.00  0.00     0.037 A 
HETATM   10  C   UNL     1      43.470 -16.293   4.640  1.00  0.00     0.012 A 
BRANCH   8  11
HETATM   11  O   UNL     1      43.591 -19.667   5.964  1.00  0.00    -0.356 OA
HETATM   12  C   UNL     1      44.324 -20.274   4.907  1.00  0.00     0.210 C 
ENDBRANCH   8  11
ENDBRANCH   4   5
BRANCH   4  13
HETATM   13  C   UNL     1      42.124 -13.429   5.110  1.00  0.00    -0.023 A 
HETATM   14  C   UNL     1      41.079 -13.193   6.022  1.00  0.00     0.009 A 
HETATM   15  C   UNL     1      39.826 -12.765   5.578  1.00  0.00     0.001 A 
HETATM   16  C   UNL     1      39.595 -12.569   4.219  1.00  0.00     0.000 A 
HETATM   17  C   UNL     1      40.615 -12.801   3.301  1.00  0.00     0.001 A 
HETATM   18  C   UNL     1      41.869 -13.232   3.740  1.00  0.00     0.009 A 
ENDBRANCH   4  13
ENDBRANCH   1   4
BRANCH   1  19
HETATM   19  C   UNL     1      44.668 -11.965   6.643  1.00  0.00     0.336 C 
BRANCH  19  20
HETATM   20  C   UNL     1      44.726 -11.206   7.967  1.00  0.00     0.248 C 
HETATM   21  N   UNL     1      43.494 -10.910   8.513  1.00  0.00    -0.326 N 
HETATM   22  H   UNL     1      42.654 -11.156   8.001  1.00  0.00     0.169 HD
HETATM   23  O   UNL     1      45.828 -10.827   8.358  1.00  0.00    -0.271 OA
BRANCH  21  24
HETATM   24  C   UNL     1      43.255 -10.226   9.724  1.00  0.00     0.034 A 
HETATM   25  C   UNL     1      43.567 -10.733  10.981  1.00  0.00     0.032 A 
HETATM   26  C   UNL     1      43.246 -10.008  12.140  1.00  0.00     0.032 A 
HETATM   27  C   UNL     1      42.622  -8.758  12.074  1.00  0.00     0.037 A 
HETATM   28  C   UNL     1      42.344  -8.244  10.801  1.00  0.00     0.032 A 
HETATM   29  C   UNL     1      42.641  -8.974   9.643  1.00  0.00     0.032 A 
BRANCH  27  30
HETATM   30  N   UNL     1      42.265  -8.032  13.242  1.00  0.00    -0.318 N 
HETATM   31  C   UNL     1      40.967  -7.881  13.759  1.00  0.00     0.224 C 
HETATM   32  O   UNL     1      39.919  -8.369  13.366  1.00  0.00    -0.273 OA
HETATM   33  C   UNL     1      41.037  -6.889  14.896  1.00  0.00     0.105 C 
HETATM   34  C   UNL     1      42.505  -6.899  15.272  1.00  0.00     0.029 C 
HETATM   35  C   UNL     1      43.198  -7.192  13.958  1.00  0.00     0.133 C 
ENDBRANCH  27  30
ENDBRANCH  21  24
ENDBRANCH  19  20
ENDBRANCH   1  19
TORSDOF 8
ENDMDL
MODEL 6
REMARK VINA RESULT:      -7.7      1.631      1.918
REMARK  8 active torsions:
REMARK  status: ('A' for Active; 'I' for Inactive)
REMARK    1  A    between atoms: O_2  and  C_3 
REMARK    2  A    between atoms: C_6  and  C_7 
REMARK    3  A    between atoms: C_7  and  N_8 
REMARK    4  A    between atoms: C_7  and  C_27 
REMARK    5  A    between atoms: N_8  and  C_11 
REMARK    6  A    between atoms: C_11  and  C_12 
REMARK       I    between atoms: C_12  and  N_13 
REMARK    7  A    between atoms: N_13  and  C_14 
REMARK    8  A    between atoms: C_17  and  N_18 
ROOT
HETATM    1  N   UNL     1      44.032 -16.383   5.248  1.00  0.00    -0.055 N 
HETATM    2  H   UNL     1      44.740 -17.108   5.458  1.00  0.00     0.278 HD
HETATM    3  H   UNL     1      44.538 -15.725   4.647  1.00  0.00     0.278 HD
ENDROOT
BRANCH   1   4
HETATM    4  C   UNL     1      42.926 -17.024   4.474  1.00  0.00     0.252 C 
BRANCH   4   5
HETATM    5  C   UNL     1      42.351 -16.149   3.368  1.00  0.00    -0.023 A 
HETATM    6  C   UNL     1      43.143 -15.301   2.569  1.00  0.00     0.012 A 
HETATM    7  C   UNL     1      42.569 -14.516   1.560  1.00  0.00     0.037 A 
HETATM    8  C   UNL     1      41.199 -14.571   1.321  1.00  0.00     0.068 A 
HETATM    9  C   UNL     1      40.408 -15.413   2.101  1.00  0.00     0.037 A 
HETATM   10  C   UNL     1      40.973 -16.200   3.107  1.00  0.00     0.012 A 
BRANCH   8  11
HETATM   11  O   UNL     1      40.518 -13.861   0.374  1.00  0.00    -0.356 OA
HETATM   12  C   UNL     1      39.876 -14.600  -0.658  1.00  0.00     0.210 C 
ENDBRANCH   8  11
ENDBRANCH   4   5
BRANCH   4  13
HETATM   13  C   UNL     1      43.382 -18.400   4.017  1.00  0.00    -0.023 A 
HETATM   14  C   UNL     1      43.279 -18.746   2.657  1.00  0.00     0.009 A 
HETATM   15  C   UNL     1      43.624 -20.026   2.219  1.00  0.00     0.001 A 
HETATM   16  C   UNL     1      44.073 -20.980   3.127  1.00  0.00     0.000 A 
HETATM   17  C   UNL     1      44.178 -20.657   4.477  1.00  0.00     0.001 A 
HETATM   18  C   UNL     1      43.831 -19.380   4.921  1.00  0.00     0.009 A 
ENDBRANCH   4  13
ENDBRANCH   1   4
BRANCH   1  19
HETATM   19  C   UNL     1      43.674 -15.751   6.564  1.00  0.00     0.336 C 
BRANCH  19  20
HETATM   20  C   UNL     1      43.124 -14.352   6.295  1.00  0.00     0.248 C 
HETATM   21  N   UNL     1      41.805 -14.321   5.893  1.00  0.00    -0.326 N 
HETATM   22  H   UNL     1      41.310 -15.195   5.754  1.00  0.00     0.169 HD
HETATM   23  O   UNL     1      43.915 -13.412   6.339  1.00  0.00    -0.271 OA
BRANCH  21  24
HETATM   24  C   UNL     1      41.048 -13.171   5.585  1.00  0.00     0.034 A 
HETATM   25  C   UNL     1      39.937 -12.751   6.310  1.00  0.00     0.032 A 
HETATM   26  C   UNL     1      39.207 -11.622   5.902  1.00  0.00     0.032 A 
HETATM   27  C   UNL     1      39.574 -10.879   4.774  1.00  0.00     0.037 A 
HETATM   28  C   UNL     1      40.714 -11.294   4.074  1.00  0.00     0.032 A 
HETATM   29  C   UNL     1      41.431 -12.432   4.463  1.00  0.00     0.032 A 
BRANCH  27  30
HETATM   30  N   UNL     1      38.823  -9.756   4.337  1.00  0.00    -0.318 N 
HETATM   31  C   UNL     1      38.323  -8.726   5.152  1.00  0.00     0.224 C 
HETATM   32  O   UNL     1      38.470  -8.552   6.352  1.00  0.00    -0.273 OA
HETATM   33  C   UNL     1      37.440  -7.849   4.296  1.00  0.00     0.105 C 
HETATM   34  C   UNL     1      37.890  -8.178   2.887  1.00  0.00     0.029 C 
HETATM   35  C   UNL     1      38.319  -9.627   2.988  1.00  0.00     0.133 C 
ENDBRANCH  27  30
ENDBRANCH  21  24
ENDBRANCH  19  20
ENDBRANCH   1  19
TORSDOF 8
ENDMDL
MODEL 7
REMARK VINA RESULT:      -7.7      4.281     10.253
REMARK  8 active torsions:
REMARK  status: ('A' for Active; 'I' for Inactive)
REMARK    1  A    between atoms: O_2  and  C_3 
REMARK    2  A    between atoms: C_6  and  C_7 
REMARK    3  A    between atoms: C_7  and  N_8 
REMARK    4  A    between atoms: C_7  and  C_27 
REMARK    5  A    between atoms: N_8  and  C_11 
REMARK    6  A    between atoms: C_11  and  C_12 
REMARK       I    between atoms: C_12  and  N_13 
REMARK    7  A    between atoms: N_13  and  C_14 
REMARK    8  A    between atoms: C_17  and  N_18 
ROOT
HETATM    1  N   UNL     1      41.034  -9.343   9.453  1.00  0.00    -0.055 N 
HETATM    2  H   UNL     1      41.498 -10.186   9.073  1.00  0.00     0.278 HD
HETATM    3  H   UNL     1      40.363  -9.724  10.127  1.00  0.00     0.278 HD
ENDROOT
BRANCH   1   4
HETATM    4  C   UNL     1      42.062  -8.530  10.171  1.00  0.00     0.252 C 
BRANCH   4   5
HETATM    5  C   UNL     1      41.900  -8.518  11.685  1.00  0.00    -0.023 A 
HETATM    6  C   UNL     1      40.935  -9.288  12.361  1.00  0.00     0.012 A 
HETATM    7  C   UNL     1      40.824  -9.246  13.757  1.00  0.00     0.037 A 
HETATM    8  C   UNL     1      41.682  -8.445  14.506  1.00  0.00     0.068 A 
HETATM    9  C   UNL     1      42.647  -7.684  13.847  1.00  0.00     0.037 A 
HETATM   10  C   UNL     1      42.763  -7.723  12.455  1.00  0.00     0.012 A 
BRANCH   8  11
HETATM   11  O   UNL     1      41.680  -8.314  15.864  1.00  0.00    -0.356 OA
HETATM   12  C   UNL     1      41.855  -7.005  16.394  1.00  0.00     0.210 C 
ENDBRANCH   8  11
ENDBRANCH   4   5
BRANCH   4  13
HETATM   13  C   UNL     1      43.441  -8.948   9.688  1.00  0.00    -0.023 A 
HETATM   14  C   UNL     1      44.068 -10.066  10.268  1.00  0.00     0.009 A 
HETATM   15  C   UNL     1      45.362 -10.433   9.895  1.00  0.00     0.001 A 
HETATM   16  C   UNL     1      46.053  -9.689   8.943  1.00  0.00     0.000 A 
HETATM   17  C   UNL     1      45.451  -8.578   8.361  1.00  0.00     0.001 A 
HETATM   18  C   UNL     1      44.158  -8.205   8.732  1.00  0.00     0.009 A 
ENDBRANCH   4  13
ENDBRANCH   1   4
BRANCH   1  19
HETATM   19  C   UNL     1      40.330  -8.693   8.294  1.00  0.00     0.336 C 
BRANCH  19  20
HETATM   20  C   UNL     1      40.612  -9.511   7.036  1.00  0.00     0.248 C 
HETATM   21  N   UNL     1      41.042 -10.800   7.273  1.00  0.00    -0.326 N 
HETATM   22  H   UNL     1      41.190 -11.103   8.229  1.00  0.00     0.169 HD
HETATM   23  O   UNL     1      40.554  -8.929   5.955  1.00  0.00    -0.271 OA
BRANCH  21  24
HETATM   24  C   UNL     1      41.368 -11.768   6.300  1.00  0.00     0.034 A 
HETATM   25  C   UNL     1      40.428 -12.529   5.611  1.00  0.00     0.032 A 
HETATM   26  C   UNL     1      40.841 -13.511   4.696  1.00  0.00     0.032 A 
HETATM   27  C   UNL     1      42.195 -13.749   4.436  1.00  0.00     0.037 A 
HETATM   28  C   UNL     1      43.129 -12.953   5.112  1.00  0.00     0.032 A 
HETATM   29  C   UNL     1      42.724 -11.988   6.043  1.00  0.00     0.032 A 
BRANCH  27  30
HETATM   30  N   UNL     1      42.622 -14.761   3.536  1.00  0.00    -0.318 N 
HETATM   31  C   UNL     1      42.653 -16.142   3.797  1.00  0.00     0.224 C 
HETATM   32  O   UNL     1      42.279 -16.748   4.789  1.00  0.00    -0.273 OA
HETATM   33  C   UNL     1      43.343 -16.815   2.634  1.00  0.00     0.105 C 
HETATM   34  C   UNL     1      43.235 -15.786   1.527  1.00  0.00     0.029 C 
HETATM   35  C   UNL     1      43.262 -14.468   2.273  1.00  0.00     0.133 C 
ENDBRANCH  27  30
ENDBRANCH  21  24
ENDBRANCH  19  20
ENDBRANCH   1  19
TORSDOF 8
ENDMDL
MODEL 8
REMARK VINA RESULT:      -7.7      4.107      6.325
REMARK  8 active torsions:
REMARK  status: ('A' for Active; 'I' for Inactive)
REMARK    1  A    between atoms: O_2  and  C_3 
REMARK    2  A    between atoms: C_6  and  C_7 
REMARK    3  A    between atoms: C_7  and  N_8 
REMARK    4  A    between atoms: C_7  and  C_27 
REMARK    5  A    between atoms: N_8  and  C_11 
REMARK    6  A    between atoms: C_11  and  C_12 
REMARK       I    between atoms: C_12  and  N_13 
REMARK    7  A    between atoms: N_13  and  C_14 
REMARK    8  A    between atoms: C_17  and  N_18 
ROOT
HETATM    1  N   UNL     1      40.747 -15.597   3.416  1.00  0.00    -0.055 N 
HETATM    2  H   UNL     1      40.629 -16.563   3.767  1.00  0.00     0.278 HD
HETATM    3  H   UNL     1      40.455 -15.018   4.210  1.00  0.00     0.278 HD
ENDROOT
BRANCH   1   4
HETATM    4  C   UNL     1      42.199 -15.377   3.141  1.00  0.00     0.252 C 
BRANCH   4   5
HETATM    5  C   UNL     1      42.792 -14.168   3.853  1.00  0.00    -0.023 A 
HETATM    6  C   UNL     1      43.336 -13.065   3.168  1.00  0.00     0.012 A 
HETATM    7  C   UNL     1      43.870 -11.973   3.866  1.00  0.00     0.037 A 
HETATM    8  C   UNL     1      43.860 -11.957   5.258  1.00  0.00     0.068 A 
HETATM    9  C   UNL     1      43.316 -13.041   5.945  1.00  0.00     0.037 A 
HETATM   10  C   UNL     1      42.781 -14.132   5.255  1.00  0.00     0.012 A 
BRANCH   8  11
HETATM   11  O   UNL     1      44.345 -10.960   6.055  1.00  0.00    -0.356 OA
HETATM   12  C   UNL     1      45.576 -11.201   6.726  1.00  0.00     0.210 C 
ENDBRANCH   8  11
ENDBRANCH   4   5
BRANCH   4  13
HETATM   13  C   UNL     1      42.945 -16.679   3.381  1.00  0.00    -0.023 A 
HETATM   14  C   UNL     1      42.973 -17.657   2.370  1.00  0.00     0.009 A 
HETATM   15  C   UNL     1      43.590 -18.891   2.587  1.00  0.00     0.001 A 
HETATM   16  C   UNL     1      44.185 -19.170   3.814  1.00  0.00     0.000 A 
HETATM   17  C   UNL     1      44.164 -18.217   4.827  1.00  0.00     0.001 A 
HETATM   18  C   UNL     1      43.546 -16.982   4.617  1.00  0.00     0.009 A 
ENDBRANCH   4  13
ENDBRANCH   1   4
BRANCH   1  19
HETATM   19  C   UNL     1      39.798 -15.451   2.259  1.00  0.00     0.336 C 
BRANCH  19  20
HETATM   20  C   UNL     1      39.830 -13.999   1.786  1.00  0.00     0.248 C 
HETATM   21  N   UNL     1      40.695 -13.756   0.739  1.00  0.00    -0.326 N 
HETATM   22  H   UNL     1      41.274 -14.512   0.391  1.00  0.00     0.169 HD
HETATM   23  O   UNL     1      39.196 -13.174   2.440  1.00  0.00    -0.271 OA
BRANCH  21  24
HETATM   24  C   UNL     1      40.918 -12.514   0.107  1.00  0.00     0.034 A 
HETATM   25  C   UNL     1      41.239 -11.341   0.782  1.00  0.00     0.032 A 
HETATM   26  C   UNL     1      41.392 -10.135   0.079  1.00  0.00     0.032 A 
HETATM   27  C   UNL     1      41.243 -10.072  -1.311  1.00  0.00     0.037 A 
HETATM   28  C   UNL     1      40.954 -11.267  -1.981  1.00  0.00     0.032 A 
HETATM   29  C   UNL     1      40.777 -12.468  -1.283  1.00  0.00     0.032 A 
BRANCH  27  30
HETATM   30  N   UNL     1      41.366  -8.851  -2.026  1.00  0.00    -0.318 N 
HETATM   31  C   UNL     1      42.490  -8.009  -2.040  1.00  0.00     0.224 C 
HETATM   32  O   UNL     1      43.579  -8.167  -1.511  1.00  0.00    -0.273 OA
HETATM   33  C   UNL     1      42.111  -6.746  -2.778  1.00  0.00     0.105 C 
HETATM   34  C   UNL     1      40.893  -7.166  -3.576  1.00  0.00     0.029 C 
HETATM   35  C   UNL     1      40.252  -8.223  -2.701  1.00  0.00     0.133 C 
ENDBRANCH  27  30
ENDBRANCH  21  24
ENDBRANCH  19  20
ENDBRANCH   1  19
TORSDOF 8
ENDMDL
MODEL 9
REMARK VINA RESULT:      -7.6      3.675      5.722
REMARK  8 active torsions:
REMARK  status: ('A' for Active; 'I' for Inactive)
REMARK    1  A    between atoms: O_2  and  C_3 
REMARK    2  A    between atoms: C_6  and  C_7 
REMARK    3  A    between atoms: C_7  and  N_8 
REMARK    4  A    between atoms: C_7  and  C_27 
REMARK    5  A    between atoms: N_8  and  C_11 
REMARK    6  A    between atoms: C_11  and  C_12 
REMARK       I    between atoms: C_12  and  N_13 
REMARK    7  A    between atoms: N_13  and  C_14 
REMARK    8  A    between atoms: C_17  and  N_18 
ROOT
HETATM    1  N   UNL     1      42.974 -13.851   5.025  1.00  0.00    -0.055 N 
HETATM    2  H   UNL     1      41.976 -13.718   5.266  1.00  0.00     0.278 HD
HETATM    3  H   UNL     1      43.295 -14.537   5.717  1.00  0.00     0.278 HD
ENDROOT
BRANCH   1   4
HETATM    4  C   UNL     1      43.047 -14.444   3.657  1.00  0.00     0.252 C 
BRANCH   4   5
HETATM    5  C   UNL     1      43.296 -15.946   3.640  1.00  0.00    -0.023 A 
HETATM    6  C   UNL     1      43.076 -16.749   2.504  1.00  0.00     0.012 A 
HETATM    7  C   UNL     1      43.320 -18.128   2.535  1.00  0.00     0.037 A 
HETATM    8  C   UNL     1      43.801 -18.730   3.695  1.00  0.00     0.068 A 
HETATM    9  C   UNL     1      44.030 -17.943   4.823  1.00  0.00     0.037 A 
HETATM   10  C   UNL     1      43.789 -16.567   4.798  1.00  0.00     0.012 A 
BRANCH   8  11
HETATM   11  O   UNL     1      44.079 -20.057   3.857  1.00  0.00    -0.356 OA
HETATM   12  C   UNL     1      44.157 -20.549   5.189  1.00  0.00     0.210 C 
ENDBRANCH   8  11
ENDBRANCH   4   5
BRANCH   4  13
HETATM   13  C   UNL     1      41.830 -13.998   2.864  1.00  0.00    -0.023 A 
HETATM   14  C   UNL     1      41.999 -13.487   1.564  1.00  0.00     0.009 A 
HETATM   15  C   UNL     1      40.908 -13.004   0.839  1.00  0.00     0.001 A 
HETATM   16  C   UNL     1      39.634 -13.019   1.398  1.00  0.00     0.000 A 
HETATM   17  C   UNL     1      39.447 -13.517   2.684  1.00  0.00     0.001 A 
HETATM   18  C   UNL     1      40.535 -13.998   3.415  1.00  0.00     0.009 A 
ENDBRANCH   4  13
ENDBRANCH   1   4
BRANCH   1  19
HETATM   19  C   UNL     1      43.638 -12.518   5.235  1.00  0.00     0.336 C 
BRANCH  19  20
HETATM   20  C   UNL     1      43.552 -12.163   6.718  1.00  0.00     0.248 C 
HETATM   21  N   UNL     1      43.409 -10.816   6.978  1.00  0.00    -0.326 N 
HETATM   22  H   UNL     1      43.421 -10.159   6.205  1.00  0.00     0.169 HD
HETATM   23  O   UNL     1      43.736 -13.066   7.531  1.00  0.00    -0.271 OA
BRANCH  21  24
HETATM   24  C   UNL     1      43.301 -10.213   8.250  1.00  0.00     0.034 A 
HETATM   25  C   UNL     1      44.326 -10.189   9.191  1.00  0.00     0.032 A 
HETATM   26  C   UNL     1      44.116  -9.614  10.455  1.00  0.00     0.032 A 
HETATM   27  C   UNL     1      42.889  -9.040  10.806  1.00  0.00     0.037 A 
HETATM   28  C   UNL     1      41.877  -9.042   9.837  1.00  0.00     0.032 A 
HETATM   29  C   UNL     1      42.074  -9.634   8.582  1.00  0.00     0.032 A 
BRANCH  27  30
HETATM   30  N   UNL     1      42.658  -8.485  12.093  1.00  0.00    -0.318 N 
HETATM   31  C   UNL     1      42.547  -7.117  12.397  1.00  0.00     0.224 C 
HETATM   32  O   UNL     1      42.565  -6.156  11.644  1.00  0.00    -0.273 OA
HETATM   33  C   UNL     1      42.488  -6.984  13.901  1.00  0.00     0.105 C 
HETATM   34  C   UNL     1      42.078  -8.370  14.354  1.00  0.00     0.029 C 
HETATM   35  C   UNL     1      42.689  -9.274  13.304  1.00  0.00     0.133 C 
ENDBRANCH  27  30
ENDBRANCH  21  24
ENDBRANCH  19  20
ENDBRANCH   1  19
TORSDOF 8
ENDMDL
MODEL 10
REMARK VINA RESULT:      -7.6      4.752      7.820
REMARK  8 active torsions:
REMARK  status: ('A' for Active; 'I' for Inactive)
REMARK    1  A    between atoms: O_2  and  C_3 
REMARK    2  A    between atoms: C_6  and  C_7 
REMARK    3  A    between atoms: C_7  and  N_8 
REMARK    4  A    between atoms: C_7  and  C_27 
REMARK    5  A    between atoms: N_8  and  C_11 
REMARK    6  A    between atoms: C_11  and  C_12 
REMARK       I    between atoms: C_12  and  N_13 
REMARK    7  A    between atoms: N_13  and  C_14 
REMARK    8  A    between atoms: C_17  and  N_18 
ROOT
HETATM    1  N   UNL     1      41.565 -15.071   1.168  1.00  0.00    -0.055 N 
HETATM    2  H   UNL     1      41.977 -14.172   0.864  1.00  0.00     0.278 HD
HETATM    3  H   UNL     1      42.199 -15.770   0.768  1.00  0.00     0.278 HD
ENDROOT
BRANCH   1   4
HETATM    4  C   UNL     1      41.627 -15.130   2.659  1.00  0.00     0.252 C 
BRANCH   4   5
HETATM    5  C   UNL     1      42.430 -16.304   3.204  1.00  0.00    -0.023 A 
HETATM    6  C   UNL     1      42.770 -16.436   4.564  1.00  0.00     0.012 A 
HETATM    7  C   UNL     1      43.510 -17.536   5.020  1.00  0.00     0.037 A 
HETATM    8  C   UNL     1      43.912 -18.529   4.131  1.00  0.00     0.068 A 
HETATM    9  C   UNL     1      43.573 -18.411   2.784  1.00  0.00     0.037 A 
HETATM   10  C   UNL     1      42.836 -17.318   2.323  1.00  0.00     0.012 A 
BRANCH   8  11
HETATM   11  O   UNL     1      44.632 -19.646   4.444  1.00  0.00    -0.356 OA
HETATM   12  C   UNL     1      44.055 -20.556   5.372  1.00  0.00     0.210 C 
ENDBRANCH   8  11
ENDBRANCH   4   5
BRANCH   4  13
HETATM   13  C   UNL     1      42.061 -13.771   3.185  1.00  0.00    -0.023 A 
HETATM   14  C   UNL     1      41.192 -13.041   4.015  1.00  0.00     0.009 A 
HETATM   15  C   UNL     1      41.533 -11.761   4.456  1.00  0.00     0.001 A 
HETATM   16  C   UNL     1      42.743 -11.188   4.074  1.00  0.00     0.000 A 
HETATM   17  C   UNL     1      43.614 -11.894   3.249  1.00  0.00     0.001 A 
HETATM   18  C   UNL     1      43.276 -13.173   2.803  1.00  0.00     0.009 A 
ENDBRANCH   4  13
ENDBRANCH   1   4
BRANCH   1  19
HETATM   19  C   UNL     1      40.205 -15.146   0.532  1.00  0.00     0.336 C 
BRANCH  19  20
HETATM   20  C   UNL     1      40.034 -13.942  -0.391  1.00  0.00     0.248 C 
HETATM   21  N   UNL     1      40.942 -12.925  -0.181  1.00  0.00    -0.326 N 
HETATM   22  H   UNL     1      41.611 -13.008   0.577  1.00  0.00     0.169 HD
HETATM   23  O   UNL     1      39.056 -13.930  -1.135  1.00  0.00    -0.271 OA
BRANCH  21  24
HETATM   24  C   UNL     1      41.017 -11.707  -0.890  1.00  0.00     0.034 A 
HETATM   25  C   UNL     1      40.867 -11.597  -2.269  1.00  0.00     0.032 A 
HETATM   26  C   UNL     1      41.010 -10.351  -2.902  1.00  0.00     0.032 A 
HETATM   27  C   UNL     1      41.291  -9.188  -2.178  1.00  0.00     0.037 A 
HETATM   28  C   UNL     1      41.406  -9.308  -0.787  1.00  0.00     0.032 A 
HETATM   29  C   UNL     1      41.288 -10.551  -0.153  1.00  0.00     0.032 A 
BRANCH  27  30
HETATM   30  N   UNL     1      41.468  -7.930  -2.813  1.00  0.00    -0.318 N 
HETATM   31  C   UNL     1      40.468  -7.175  -3.449  1.00  0.00     0.224 C 
HETATM   32  O   UNL     1      39.270  -7.399  -3.536  1.00  0.00    -0.273 OA
HETATM   33  C   UNL     1      41.138  -6.008  -4.136  1.00  0.00     0.105 C 
HETATM   34  C   UNL     1      42.472  -5.909  -3.425  1.00  0.00     0.029 C 
HETATM   35  C   UNL     1      42.770  -7.345  -3.044  1.00  0.00     0.133 C 
ENDBRANCH  27  30
ENDBRANCH  21  24
ENDBRANCH  19  20
ENDBRANCH   1  19
TORSDOF 8
ENDMDL
