MODEL 1
REMARK VINA RESULT:      -7.8      0.000      0.000
REMARK  5 active torsions:
REMARK  status: ('A' for Active; 'I' for Inactive)
REMARK    1  A    between atoms: C_7  and  N_8 
REMARK    2  A    between atoms: N_8  and  C_9 
REMARK    3  A    between atoms: C_9  and  C_10 
REMARK       I    between atoms: C_10  and  N_11 
REMARK    4  A    between atoms: N_11  and  C_12 
REMARK    5  A    between atoms: C_16  and  C_17 
ROOT
HETATM    1  C   UNL     1      44.344 -15.921   6.737  1.00  0.00     0.068 C 
HETATM    2  C   UNL     1      43.886 -16.548   5.453  1.00  0.00     0.014 A 
HETATM    3  N   UNL     1      44.212 -17.839   5.272  1.00  0.00    -0.359 N 
HETATM    4  H   UNL     1      44.745 -18.308   6.002  1.00  0.00     0.166 HD
HETATM    5  C   UNL     1      43.867 -18.566   4.198  1.00  0.00     0.044 A 
HETATM    6  C   UNL     1      43.127 -17.963   3.161  1.00  0.00     0.012 A 
HETATM    7  C   UNL     1      42.807 -16.581   3.281  1.00  0.00     0.030 A 
HETATM    8  C   UNL     1      43.146 -15.871   4.462  1.00  0.00    -0.010 A 
HETATM    9  C   UNL     1      44.252 -19.916   4.128  1.00  0.00     0.030 A 
HETATM   10  C   UNL     1      43.888 -20.695   3.033  1.00  0.00     0.002 A 
HETATM   11  C   UNL     1      43.131 -20.135   2.014  1.00  0.00     0.001 A 
HETATM   12  C   UNL     1      42.751 -18.791   2.078  1.00  0.00     0.015 A 
ENDROOT
BRANCH   7  13
HETATM   13  N   UNL     1      42.181 -15.880   2.235  1.00  0.00    -0.283 NA
HETATM   14  H   UNL     1      42.353 -14.871   2.277  1.00  0.00     0.128 HD
BRANCH  13  15
HETATM   15  C   UNL     1      40.728 -16.102   2.096  1.00  0.00     0.195 C 
BRANCH  15  16
HETATM   16  C   UNL     1      40.090 -14.877   1.428  1.00  0.00     0.231 C 
HETATM   17  N   UNL     1      39.891 -15.010   0.069  1.00  0.00    -0.356 N 
HETATM   18  H   UNL     1      40.341 -15.777  -0.411  1.00  0.00     0.162 HD
HETATM   19  O   UNL     1      39.804 -13.869   2.070  1.00  0.00    -0.272 OA
BRANCH  17  20
HETATM   20  C   UNL     1      39.429 -13.901  -0.758  1.00  0.00     0.076 C 
HETATM   21  C   UNL     1      40.565 -12.905  -0.988  1.00  0.00     0.032 C 
HETATM   22  C   UNL     1      38.903 -14.437  -2.085  1.00  0.00     0.032 C 
ENDBRANCH  17  20
ENDBRANCH  15  16
ENDBRANCH  13  15
ENDBRANCH   7  13
BRANCH   8  23
HETATM   23  C   UNL     1      42.741 -14.408   4.698  1.00  0.00     0.014 C 
HETATM   24  C   UNL     1      43.073 -13.522   3.497  1.00  0.00     0.015 C 
HETATM   25  C   UNL     1      41.295 -14.198   5.164  1.00  0.00     0.015 C 
ENDBRANCH   8  23
TORSDOF 5
ENDMDL
MODEL 2
REMARK VINA RESULT:      -7.7      1.267      1.623
REMARK  5 active torsions:
REMARK  status: ('A' for Active; 'I' for Inactive)
REMARK    1  A    between atoms: C_7  and  N_8 
REMARK    2  A    between atoms: N_8  and  C_9 
REMARK    3  A    between atoms: C_9  and  C_10 
REMARK       I    between atoms: C_10  and  N_11 
REMARK    4  A    between atoms: N_11  and  C_12 
REMARK    5  A    between atoms: C_16  and  C_17 
ROOT
HETATM    1  C   UNL     1      43.399 -14.159   6.691  1.00  0.00     0.068 C 
HETATM    2  C   UNL     1      43.283 -14.987   5.446  1.00  0.00     0.014 A 
HETATM    3  N   UNL     1      43.682 -16.267   5.543  1.00  0.00    -0.359 N 
HETATM    4  H   UNL     1      44.037 -16.594   6.441  1.00  0.00     0.166 HD
HETATM    5  C   UNL     1      43.628 -17.158   4.542  1.00  0.00     0.044 A 
HETATM    6  C   UNL     1      43.142 -16.756   3.282  1.00  0.00     0.012 A 
HETATM    7  C   UNL     1      42.761 -15.394   3.112  1.00  0.00     0.030 A 
HETATM    8  C   UNL     1      42.783 -14.505   4.218  1.00  0.00    -0.010 A 
HETATM    9  C   UNL     1      44.059 -18.476   4.769  1.00  0.00     0.030 A 
HETATM   10  C   UNL     1      43.994 -19.423   3.751  1.00  0.00     0.002 A 
HETATM   11  C   UNL     1      43.489 -19.062   2.509  1.00  0.00     0.001 A 
HETATM   12  C   UNL     1      43.064 -17.750   2.278  1.00  0.00     0.015 A 
ENDROOT
BRANCH   7  13
HETATM   13  N   UNL     1      42.385 -14.888   1.855  1.00  0.00    -0.283 NA
HETATM   14  H   UNL     1      42.560 -13.883   1.765  1.00  0.00     0.128 HD
BRANCH  13  15
HETATM   15  C   UNL     1      40.993 -15.162   1.446  1.00  0.00     0.195 C 
BRANCH  15  16
HETATM   16  C   UNL     1      40.604 -14.210   0.307  1.00  0.00     0.231 C 
HETATM   17  N   UNL     1      39.609 -14.690  -0.519  1.00  0.00    -0.356 N 
HETATM   18  H   UNL     1      39.358 -15.668  -0.455  1.00  0.00     0.162 HD
HETATM   19  O   UNL     1      41.158 -13.124   0.158  1.00  0.00    -0.272 OA
BRANCH  17  20
HETATM   20  C   UNL     1      39.209 -13.992  -1.735  1.00  0.00     0.076 C 
HETATM   21  C   UNL     1      38.740 -14.993  -2.791  1.00  0.00     0.032 C 
HETATM   22  C   UNL     1      38.103 -12.993  -1.410  1.00  0.00     0.032 C 
ENDBRANCH  17  20
ENDBRANCH  15  16
ENDBRANCH  13  15
ENDBRANCH   7  13
BRANCH   8  23
HETATM   23  C   UNL     1      42.290 -13.054   4.129  1.00  0.00     0.014 C 
HETATM   24  C   UNL     1      43.049 -12.255   3.068  1.00  0.00     0.015 C 
HETATM   25  C   UNL     1      40.773 -12.889   3.971  1.00  0.00     0.015 C 
ENDBRANCH   8  23
TORSDOF 5
ENDMDL
MODEL 3
REMARK VINA RESULT:      -7.5      1.746      2.567
REMARK  5 active torsions:
REMARK  status: ('A' for Active; 'I' for Inactive)
REMARK    1  A    between atoms: C_7  and  N_8 
REMARK    2  A    between atoms: N_8  and  C_9 
REMARK    3  A    between atoms: C_9  and  C_10 
REMARK       I    between atoms: C_10  and  N_11 
REMARK    4  A    between atoms: N_11  and  C_12 
REMARK    5  A    between atoms: C_16  and  C_17 
ROOT
HETATM    1  C   UNL     1      42.691 -12.907   5.685  1.00  0.00     0.068 C 
HETATM    2  C   UNL     1      42.747 -13.989   4.648  1.00  0.00     0.014 A 
HETATM    3  N   UNL     1      43.264 -15.165   5.044  1.00  0.00    -0.359 N 
HETATM    4  H   UNL     1      43.586 -15.250   6.007  1.00  0.00     0.166 HD
HETATM    5  C   UNL     1      43.371 -16.250   4.262  1.00  0.00     0.044 A 
HETATM    6  C   UNL     1      42.938 -16.184   2.922  1.00  0.00     0.012 A 
HETATM    7  C   UNL     1      42.436 -14.942   2.439  1.00  0.00     0.030 A 
HETATM    8  C   UNL     1      42.290 -13.840   3.322  1.00  0.00    -0.010 A 
HETATM    9  C   UNL     1      43.914 -17.431   4.793  1.00  0.00     0.030 A 
HETATM   10  C   UNL     1      44.017 -18.575   4.006  1.00  0.00     0.002 A 
HETATM   11  C   UNL     1      43.568 -18.547   2.693  1.00  0.00     0.001 A 
HETATM   12  C   UNL     1      43.031 -17.372   2.159  1.00  0.00     0.015 A 
ENDROOT
BRANCH   7  13
HETATM   13  N   UNL     1      42.101 -14.762   1.086  1.00  0.00    -0.283 NA
HETATM   14  H   UNL     1      42.300 -13.814   0.751  1.00  0.00     0.128 HD
BRANCH  13  15
HETATM   15  C   UNL     1      40.713 -15.108   0.718  1.00  0.00     0.195 C 
BRANCH  15  16
HETATM   16  C   UNL     1      40.242 -14.179  -0.409  1.00  0.00     0.231 C 
HETATM   17  N   UNL     1      41.045 -13.076  -0.608  1.00  0.00    -0.356 N 
HETATM   18  H   UNL     1      41.736 -12.848   0.094  1.00  0.00     0.162 HD
HETATM   19  O   UNL     1      39.223 -14.415  -1.053  1.00  0.00    -0.272 OA
BRANCH  17  20
HETATM   20  C   UNL     1      40.681 -12.011  -1.535  1.00  0.00     0.076 C 
HETATM   21  C   UNL     1      41.198 -10.666  -1.025  1.00  0.00     0.032 C 
HETATM   22  C   UNL     1      41.248 -12.319  -2.917  1.00  0.00     0.032 C 
ENDBRANCH  17  20
ENDBRANCH  15  16
ENDBRANCH  13  15
ENDBRANCH   7  13
BRANCH   8  23
HETATM   23  C   UNL     1      41.662 -12.507   2.893  1.00  0.00     0.014 C 
HETATM   24  C   UNL     1      40.367 -12.214   3.653  1.00  0.00     0.015 C 
HETATM   25  C   UNL     1      42.609 -11.300   2.919  1.00  0.00     0.015 C 
ENDBRANCH   8  23
TORSDOF 5
ENDMDL
MODEL 4
REMARK VINA RESULT:      -6.8      3.299      5.964
REMARK  5 active torsions:
REMARK  status: ('A' for Active; 'I' for Inactive)
REMARK    1  A    between atoms: C_7  and  N_8 
REMARK    2  A    between atoms: N_8  and  C_9 
REMARK    3  A    between atoms: C_9  and  C_10 
REMARK       I    between atoms: C_10  and  N_11 
REMARK    4  A    between atoms: N_11  and  C_12 
REMARK    5  A    between atoms: C_16  and  C_17 
ROOT
HETATM    1  C   UNL     1      40.287 -14.928   0.605  1.00  0.00     0.068 C 
HETATM    2  C   UNL     1      41.116 -15.230   1.818  1.00  0.00     0.014 A 
HETATM    3  N   UNL     1      41.742 -16.419   1.829  1.00  0.00    -0.359 N 
HETATM    4  H   UNL     1      41.617 -17.037   1.029  1.00  0.00     0.166 HD
HETATM    5  C   UNL     1      42.542 -16.847   2.817  1.00  0.00     0.044 A 
HETATM    6  C   UNL     1      42.750 -16.028   3.945  1.00  0.00     0.012 A 
HETATM    7  C   UNL     1      42.062 -14.783   4.006  1.00  0.00     0.030 A 
HETATM    8  C   UNL     1      41.272 -14.351   2.909  1.00  0.00    -0.010 A 
HETATM    9  C   UNL     1      43.158 -18.106   2.709  1.00  0.00     0.030 A 
HETATM   10  C   UNL     1      44.007 -18.563   3.712  1.00  0.00     0.002 A 
HETATM   11  C   UNL     1      44.255 -17.762   4.818  1.00  0.00     0.001 A 
HETATM   12  C   UNL     1      43.641 -16.511   4.932  1.00  0.00     0.015 A 
ENDROOT
BRANCH   7  13
HETATM   13  N   UNL     1      42.119 -13.968   5.150  1.00  0.00    -0.283 NA
HETATM   14  H   UNL     1      41.233 -13.493   5.343  1.00  0.00     0.128 HD
BRANCH  13  15
HETATM   15  C   UNL     1      43.203 -12.965   5.168  1.00  0.00     0.195 C 
BRANCH  15  16
HETATM   16  C   UNL     1      43.605 -12.680   6.621  1.00  0.00     0.231 C 
HETATM   17  N   UNL     1      43.843 -11.348   6.893  1.00  0.00    -0.356 N 
HETATM   18  H   UNL     1      43.937 -10.706   6.117  1.00  0.00     0.162 HD
HETATM   19  O   UNL     1      43.713 -13.581   7.448  1.00  0.00    -0.272 OA
BRANCH  17  20
HETATM   20  C   UNL     1      44.371 -10.903   8.177  1.00  0.00     0.076 C 
HETATM   21  C   UNL     1      45.862 -10.590   8.056  1.00  0.00     0.032 C 
HETATM   22  C   UNL     1      43.599  -9.675   8.650  1.00  0.00     0.032 C 
ENDBRANCH  17  20
ENDBRANCH  15  16
ENDBRANCH  13  15
ENDBRANCH   7  13
BRANCH   8  23
HETATM   23  C   UNL     1      40.587 -12.977   2.867  1.00  0.00     0.014 C 
HETATM   24  C   UNL     1      41.209 -12.060   1.812  1.00  0.00     0.015 C 
HETATM   25  C   UNL     1      39.058 -13.013   2.743  1.00  0.00     0.015 C 
ENDBRANCH   8  23
TORSDOF 5
ENDMDL
MODEL 5
REMARK VINA RESULT:      -6.7     13.425     15.446
REMARK  5 active torsions:
REMARK  status: ('A' for Active; 'I' for Inactive)
REMARK    1  A    between atoms: C_7  and  N_8 
REMARK    2  A    between atoms: N_8  and  C_9 
REMARK    3  A    between atoms: C_9  and  C_10 
REMARK       I    between atoms: C_10  and  N_11 
REMARK    4  A    between atoms: N_11  and  C_12 
REMARK    5  A    between atoms: C_16  and  C_17 
ROOT
HETATM    1  C   UNL     1      43.297 -32.480   0.452  1.00  0.00     0.068 C 
HETATM    2  C   UNL     1      43.877 -31.305  -0.276  1.00  0.00     0.014 A 
HETATM    3  N   UNL     1      43.821 -31.350  -1.618  1.00  0.00    -0.359 N 
HETATM    4  H   UNL     1      43.399 -32.167  -2.056  1.00  0.00     0.166 HD
HETATM    5  C   UNL     1      44.267 -30.380  -2.431  1.00  0.00     0.044 A 
HETATM    6  C   UNL     1      44.857 -29.227  -1.875  1.00  0.00     0.012 A 
HETATM    7  C   UNL     1      44.992 -29.157  -0.459  1.00  0.00     0.030 A 
HETATM    8  C   UNL     1      44.452 -30.184   0.359  1.00  0.00    -0.010 A 
HETATM    9  C   UNL     1      44.139 -30.532  -3.821  1.00  0.00     0.030 A 
HETATM   10  C   UNL     1      44.577 -29.530  -4.683  1.00  0.00     0.002 A 
HETATM   11  C   UNL     1      45.131 -28.370  -4.161  1.00  0.00     0.001 A 
HETATM   12  C   UNL     1      45.265 -28.217  -2.777  1.00  0.00     0.015 A 
ENDROOT
BRANCH   7  13
HETATM   13  N   UNL     1      45.679 -28.100   0.163  1.00  0.00    -0.283 NA
HETATM   14  H   UNL     1      45.389 -27.181  -0.185  1.00  0.00     0.128 HD
BRANCH  13  15
HETATM   15  C   UNL     1      47.153 -28.178   0.112  1.00  0.00     0.195 C 
BRANCH  15  16
HETATM   16  C   UNL     1      47.691 -28.486   1.516  1.00  0.00     0.231 C 
HETATM   17  N   UNL     1      48.762 -29.355   1.534  1.00  0.00    -0.356 N 
HETATM   18  H   UNL     1      48.982 -29.869   0.691  1.00  0.00     0.162 HD
HETATM   19  O   UNL     1      47.183 -27.998   2.522  1.00  0.00    -0.272 OA
BRANCH  17  20
HETATM   20  C   UNL     1      49.316 -29.875   2.779  1.00  0.00     0.076 C 
HETATM   21  C   UNL     1      48.750 -31.265   3.070  1.00  0.00     0.032 C 
HETATM   22  C   UNL     1      50.838 -29.922   2.683  1.00  0.00     0.032 C 
ENDBRANCH  17  20
ENDBRANCH  15  16
ENDBRANCH  13  15
ENDBRANCH   7  13
BRANCH   8  23
HETATM   23  C   UNL     1      44.472 -30.123   1.893  1.00  0.00     0.014 C 
HETATM   24  C   UNL     1      43.086 -29.832   2.472  1.00  0.00     0.015 C 
HETATM   25  C   UNL     1      45.123 -31.326   2.587  1.00  0.00     0.015 C 
ENDBRANCH   8  23
TORSDOF 5
ENDMDL
MODEL 6
REMARK VINA RESULT:      -6.3     13.956     16.415
REMARK  5 active torsions:
REMARK  status: ('A' for Active; 'I' for Inactive)
REMARK    1  A    between atoms: C_7  and  N_8 
REMARK    2  A    between atoms: N_8  and  C_9 
REMARK    3  A    between atoms: C_9  and  C_10 
REMARK       I    between atoms: C_10  and  N_11 
REMARK    4  A    between atoms: N_11  and  C_12 
REMARK    5  A    between atoms: C_16  and  C_17 
ROOT
HETATM    1  C   UNL     1      45.807 -30.360   3.312  1.00  0.00     0.068 C 
HETATM    2  C   UNL     1      46.237 -29.853   1.968  1.00  0.00     0.014 A 
HETATM    3  N   UNL     1      45.256 -29.618   1.079  1.00  0.00    -0.359 N 
HETATM    4  H   UNL     1      44.295 -29.798   1.364  1.00  0.00     0.166 HD
HETATM    5  C   UNL     1      45.451 -29.140  -0.159  1.00  0.00     0.044 A 
HETATM    6  C   UNL     1      46.763 -28.872  -0.600  1.00  0.00     0.012 A 
HETATM    7  C   UNL     1      47.841 -29.159   0.284  1.00  0.00     0.030 A 
HETATM    8  C   UNL     1      47.578 -29.610   1.605  1.00  0.00    -0.010 A 
HETATM    9  C   UNL     1      44.344 -28.918  -0.994  1.00  0.00     0.030 A 
HETATM   10  C   UNL     1      44.520 -28.405  -2.276  1.00  0.00     0.002 A 
HETATM   11  C   UNL     1      45.798 -28.101  -2.724  1.00  0.00     0.001 A 
HETATM   12  C   UNL     1      46.904 -28.325  -1.897  1.00  0.00     0.015 A 
ENDROOT
BRANCH   7  13
HETATM   13  N   UNL     1      49.180 -29.036  -0.125  1.00  0.00    -0.283 NA
HETATM   14  H   UNL     1      49.372 -28.143  -0.587  1.00  0.00     0.128 HD
BRANCH  13  15
HETATM   15  C   UNL     1      49.690 -30.127  -0.981  1.00  0.00     0.195 C 
BRANCH  15  16
HETATM   16  C   UNL     1      50.919 -30.759  -0.317  1.00  0.00     0.231 C 
HETATM   17  N   UNL     1      51.546 -31.721  -1.081  1.00  0.00    -0.356 N 
HETATM   18  H   UNL     1      51.065 -32.079  -1.895  1.00  0.00     0.162 HD
HETATM   19  O   UNL     1      51.284 -30.429   0.809  1.00  0.00    -0.272 OA
BRANCH  17  20
HETATM   20  C   UNL     1      52.642 -32.530  -0.561  1.00  0.00     0.076 C 
HETATM   21  C   UNL     1      52.134 -33.916  -0.162  1.00  0.00     0.032 C 
HETATM   22  C   UNL     1      53.741 -32.641  -1.614  1.00  0.00     0.032 C 
ENDBRANCH  17  20
ENDBRANCH  15  16
ENDBRANCH  13  15
ENDBRANCH   7  13
BRANCH   8  23
HETATM   23  C   UNL     1      48.687 -29.840   2.642  1.00  0.00     0.014 C 
HETATM   24  C   UNL     1      48.671 -28.778   3.742  1.00  0.00     0.015 C 
HETATM   25  C   UNL     1      48.745 -31.254   3.233  1.00  0.00     0.015 C 
ENDBRANCH   8  23
TORSDOF 5
ENDMDL
MODEL 7
REMARK VINA RESULT:      -6.3     13.562     16.236
REMARK  5 active torsions:
REMARK  status: ('A' for Active; 'I' for Inactive)
REMARK    1  A    between atoms: C_7  and  N_8 
REMARK    2  A    between atoms: N_8  and  C_9 
REMARK    3  A    between atoms: C_9  and  C_10 
REMARK       I    between atoms: C_10  and  N_11 
REMARK    4  A    between atoms: N_11  and  C_12 
REMARK    5  A    between atoms: C_16  and  C_17 
ROOT
HETATM    1  C   UNL     1      45.122 -31.020  -3.875  1.00  0.00     0.068 C 
HETATM    2  C   UNL     1      46.368 -30.655  -3.124  1.00  0.00     0.014 A 
HETATM    3  N   UNL     1      47.385 -31.530  -3.197  1.00  0.00    -0.359 N 
HETATM    4  H   UNL     1      47.252 -32.379  -3.746  1.00  0.00     0.166 HD
HETATM    5  C   UNL     1      48.579 -31.359  -2.611  1.00  0.00     0.044 A 
HETATM    6  C   UNL     1      48.815 -30.200  -1.844  1.00  0.00     0.012 A 
HETATM    7  C   UNL     1      47.749 -29.269  -1.689  1.00  0.00     0.030 A 
HETATM    8  C   UNL     1      46.523 -29.469  -2.376  1.00  0.00    -0.010 A 
HETATM    9  C   UNL     1      49.574 -32.338  -2.773  1.00  0.00     0.030 A 
HETATM   10  C   UNL     1      50.827 -32.172  -2.191  1.00  0.00     0.002 A 
HETATM   11  C   UNL     1      51.097 -31.025  -1.458  1.00  0.00     0.001 A 
HETATM   12  C   UNL     1      50.108 -30.050  -1.290  1.00  0.00     0.015 A 
ENDROOT
BRANCH   7  13
HETATM   13  N   UNL     1      47.865 -28.155  -0.840  1.00  0.00    -0.283 NA
HETATM   14  H   UNL     1      48.831 -27.977  -0.550  1.00  0.00     0.128 HD
BRANCH  13  15
HETATM   15  C   UNL     1      47.009 -28.176   0.364  1.00  0.00     0.195 C 
BRANCH  15  16
HETATM   16  C   UNL     1      47.487 -29.290   1.305  1.00  0.00     0.231 C 
HETATM   17  N   UNL     1      48.726 -29.064   1.868  1.00  0.00    -0.356 N 
HETATM   18  H   UNL     1      49.301 -28.325   1.488  1.00  0.00     0.162 HD
HETATM   19  O   UNL     1      46.810 -30.294   1.510  1.00  0.00    -0.272 OA
BRANCH  17  20
HETATM   20  C   UNL     1      49.405 -30.072   2.673  1.00  0.00     0.076 C 
HETATM   21  C   UNL     1      50.902 -30.077   2.364  1.00  0.00     0.032 C 
HETATM   22  C   UNL     1      49.161 -29.795   4.153  1.00  0.00     0.032 C 
ENDBRANCH  17  20
ENDBRANCH  15  16
ENDBRANCH  13  15
ENDBRANCH   7  13
BRANCH   8  23
HETATM   23  C   UNL     1      45.371 -28.455  -2.334  1.00  0.00     0.014 C 
HETATM   24  C   UNL     1      45.133 -27.804  -3.698  1.00  0.00     0.015 C 
HETATM   25  C   UNL     1      44.062 -28.978  -1.730  1.00  0.00     0.015 C 
ENDBRANCH   8  23
TORSDOF 5
ENDMDL
MODEL 8
REMARK VINA RESULT:      -6.3     13.481     14.939
REMARK  5 active torsions:
REMARK  status: ('A' for Active; 'I' for Inactive)
REMARK    1  A    between atoms: C_7  and  N_8 
REMARK    2  A    between atoms: N_8  and  C_9 
REMARK    3  A    between atoms: C_9  and  C_10 
REMARK       I    between atoms: C_10  and  N_11 
REMARK    4  A    between atoms: N_11  and  C_12 
REMARK    5  A    between atoms: C_16  and  C_17 
ROOT
HETATM    1  C   UNL     1      47.589 -30.485  -2.354  1.00  0.00     0.068 C 
HETATM    2  C   UNL     1      47.576 -30.040  -0.921  1.00  0.00     0.014 A 
HETATM    3  N   UNL     1      48.693 -30.279  -0.213  1.00  0.00    -0.359 N 
HETATM    4  H   UNL     1      49.470 -30.743  -0.681  1.00  0.00     0.166 HD
HETATM    5  C   UNL     1      48.868 -29.930   1.070  1.00  0.00     0.044 A 
HETATM    6  C   UNL     1      47.824 -29.283   1.761  1.00  0.00     0.012 A 
HETATM    7  C   UNL     1      46.599 -29.059   1.071  1.00  0.00     0.030 A 
HETATM    8  C   UNL     1      46.484 -29.396  -0.303  1.00  0.00    -0.010 A 
HETATM    9  C   UNL     1      50.090 -30.218   1.702  1.00  0.00     0.030 A 
HETATM   10  C   UNL     1      50.302 -29.848   3.027  1.00  0.00     0.002 A 
HETATM   11  C   UNL     1      49.303 -29.180   3.721  1.00  0.00     0.001 A 
HETATM   12  C   UNL     1      48.083 -28.896   3.097  1.00  0.00     0.015 A 
ENDROOT
BRANCH   7  13
HETATM   13  N   UNL     1      45.472 -28.533   1.727  1.00  0.00    -0.283 NA
HETATM   14  H   UNL     1      45.681 -27.676   2.248  1.00  0.00     0.128 HD
BRANCH  13  15
HETATM   15  C   UNL     1      44.761 -29.466   2.624  1.00  0.00     0.195 C 
BRANCH  15  16
HETATM   16  C   UNL     1      43.319 -29.643   2.129  1.00  0.00     0.231 C 
HETATM   17  N   UNL     1      42.639 -30.686   2.723  1.00  0.00    -0.356 N 
HETATM   18  H   UNL     1      43.165 -31.361   3.262  1.00  0.00     0.162 HD
HETATM   19  O   UNL     1      42.840 -28.912   1.265  1.00  0.00    -0.272 OA
BRANCH  17  20
HETATM   20  C   UNL     1      41.312 -31.096   2.281  1.00  0.00     0.076 C 
HETATM   21  C   UNL     1      41.421 -32.205   1.235  1.00  0.00     0.032 C 
HETATM   22  C   UNL     1      40.494 -31.565   3.481  1.00  0.00     0.032 C 
ENDBRANCH  17  20
ENDBRANCH  15  16
ENDBRANCH  13  15
ENDBRANCH   7  13
BRANCH   8  23
HETATM   23  C   UNL     1      45.229 -29.088  -1.133  1.00  0.00     0.014 C 
HETATM   24  C   UNL     1      45.532 -28.151  -2.303  1.00  0.00     0.015 C 
HETATM   25  C   UNL     1      44.434 -30.317  -1.593  1.00  0.00     0.015 C 
ENDBRANCH   8  23
TORSDOF 5
ENDMDL
MODEL 9
REMARK VINA RESULT:      -6.2      2.045      6.646
REMARK  5 active torsions:
REMARK  status: ('A' for Active; 'I' for Inactive)
REMARK    1  A    between atoms: C_7  and  N_8 
REMARK    2  A    between atoms: N_8  and  C_9 
REMARK    3  A    between atoms: C_9  and  C_10 
REMARK       I    between atoms: C_10  and  N_11 
REMARK    4  A    between atoms: N_11  and  C_12 
REMARK    5  A    between atoms: C_16  and  C_17 
ROOT
HETATM    1  C   UNL     1      40.711 -10.017   2.446  1.00  0.00     0.068 C 
HETATM    2  C   UNL     1      40.466 -11.315   1.736  1.00  0.00     0.014 A 
HETATM    3  N   UNL     1      39.917 -11.229   0.513  1.00  0.00    -0.359 N 
HETATM    4  H   UNL     1      39.700 -10.303   0.146  1.00  0.00     0.166 HD
HETATM    5  C   UNL     1      39.649 -12.281  -0.276  1.00  0.00     0.044 A 
HETATM    6  C   UNL     1      39.934 -13.582   0.184  1.00  0.00     0.012 A 
HETATM    7  C   UNL     1      40.463 -13.729   1.498  1.00  0.00     0.030 A 
HETATM    8  C   UNL     1      40.781 -12.581   2.270  1.00  0.00    -0.010 A 
HETATM    9  C   UNL     1      39.089 -12.065  -1.546  1.00  0.00     0.030 A 
HETATM   10  C   UNL     1      38.821 -13.139  -2.389  1.00  0.00     0.002 A 
HETATM   11  C   UNL     1      39.122 -14.429  -1.974  1.00  0.00     0.001 A 
HETATM   12  C   UNL     1      39.675 -14.649  -0.709  1.00  0.00     0.015 A 
ENDROOT
BRANCH   7  13
HETATM   13  N   UNL     1      40.656 -14.997   2.074  1.00  0.00    -0.283 NA
HETATM   14  H   UNL     1      40.634 -14.974   3.098  1.00  0.00     0.128 HD
BRANCH  13  15
HETATM   15  C   UNL     1      41.874 -15.715   1.647  1.00  0.00     0.195 C 
BRANCH  15  16
HETATM   16  C   UNL     1      42.188 -16.826   2.657  1.00  0.00     0.231 C 
HETATM   17  N   UNL     1      43.009 -17.822   2.170  1.00  0.00    -0.356 N 
HETATM   18  H   UNL     1      43.174 -17.866   1.173  1.00  0.00     0.162 HD
HETATM   19  O   UNL     1      41.721 -16.813   3.794  1.00  0.00    -0.272 OA
BRANCH  17  20
HETATM   20  C   UNL     1      43.300 -19.028   2.935  1.00  0.00     0.076 C 
HETATM   21  C   UNL     1      43.522 -20.211   1.993  1.00  0.00     0.032 C 
HETATM   22  C   UNL     1      44.528 -18.797   3.809  1.00  0.00     0.032 C 
ENDBRANCH  17  20
ENDBRANCH  15  16
ENDBRANCH  13  15
ENDBRANCH   7  13
BRANCH   8  23
HETATM   23  C   UNL     1      41.448 -12.666   3.651  1.00  0.00     0.014 C 
HETATM   24  C   UNL     1      40.660 -13.557   4.613  1.00  0.00     0.015 C 
HETATM   25  C   UNL     1      42.936 -13.042   3.635  1.00  0.00     0.015 C 
ENDBRANCH   8  23
TORSDOF 5
ENDMDL
MODEL 10
REMARK VINA RESULT:      -6.1      2.542      4.023
REMARK  5 active torsions:
REMARK  status: ('A' for Active; 'I' for Inactive)
REMARK    1  A    between atoms: C_7  and  N_8 
REMARK    2  A    between atoms: N_8  and  C_9 
REMARK    3  A    between atoms: C_9  and  C_10 
REMARK       I    between atoms: C_10  and  N_11 
REMARK    4  A    between atoms: N_11  and  C_12 
REMARK    5  A    between atoms: C_16  and  C_17 
ROOT
HETATM    1  C   UNL     1      39.197 -11.748   5.975  1.00  0.00     0.068 C 
HETATM    2  C   UNL     1      40.002 -12.779   5.240  1.00  0.00     0.014 A 
HETATM    3  N   UNL     1      40.490 -13.790   5.978  1.00  0.00    -0.359 N 
HETATM    4  H   UNL     1      40.291 -13.797   6.977  1.00  0.00     0.166 HD
HETATM    5  C   UNL     1      41.208 -14.811   5.487  1.00  0.00     0.044 A 
HETATM    6  C   UNL     1      41.508 -14.850   4.110  1.00  0.00     0.012 A 
HETATM    7  C   UNL     1      41.062 -13.771   3.296  1.00  0.00     0.030 A 
HETATM    8  C   UNL     1      40.256 -12.743   3.853  1.00  0.00    -0.010 A 
HETATM    9  C   UNL     1      41.651 -15.823   6.356  1.00  0.00     0.030 A 
HETATM   10  C   UNL     1      42.382 -16.902   5.866  1.00  0.00     0.002 A 
HETATM   11  C   UNL     1      42.662 -16.981   4.509  1.00  0.00     0.001 A 
HETATM   12  C   UNL     1      42.227 -15.974   3.642  1.00  0.00     0.015 A 
ENDROOT
BRANCH   7  13
HETATM   13  N   UNL     1      41.425 -13.674   1.941  1.00  0.00    -0.283 NA
HETATM   14  H   UNL     1      41.246 -12.745   1.548  1.00  0.00     0.128 HD
BRANCH  13  15
HETATM   15  C   UNL     1      40.829 -14.686   1.045  1.00  0.00     0.195 C 
BRANCH  15  16
HETATM   16  C   UNL     1      40.335 -13.999  -0.235  1.00  0.00     0.231 C 
HETATM   17  N   UNL     1      41.055 -12.878  -0.592  1.00  0.00    -0.356 N 
HETATM   18  H   UNL     1      41.694 -12.480   0.082  1.00  0.00     0.162 HD
HETATM   19  O   UNL     1      39.367 -14.424  -0.861  1.00  0.00    -0.272 OA
BRANCH  17  20
HETATM   20  C   UNL     1      40.648 -12.015  -1.695  1.00  0.00     0.076 C 
HETATM   21  C   UNL     1      41.116 -10.582  -1.446  1.00  0.00     0.032 C 
HETATM   22  C   UNL     1      41.221 -12.551  -3.003  1.00  0.00     0.032 C 
ENDBRANCH  17  20
ENDBRANCH  15  16
ENDBRANCH  13  15
ENDBRANCH   7  13
BRANCH   8  23
HETATM   23  C   UNL     1      39.658 -11.606   3.011  1.00  0.00     0.014 C 
HETATM   24  C   UNL     1      40.738 -10.804   2.284  1.00  0.00     0.015 C 
HETATM   25  C   UNL     1      38.534 -12.024   2.054  1.00  0.00     0.015 C 
ENDBRANCH   8  23
TORSDOF 5
ENDMDL
