MODEL 1
REMARK VINA RESULT:      -9.3      0.000      0.000
REMARK  2 active torsions:
REMARK  status: ('A' for Active; 'I' for Inactive)
REMARK    1  A    between atoms: C_4  and  N_5 
REMARK       I    between atoms: N_5  and  C_6 
REMARK    2  A    between atoms: C_6  and  C_7 
ROOT
HETATM    1  N   UNL     1      41.969 -15.962   1.753  1.00  0.00    -0.319 N 
HETATM    2  C   UNL     1      40.624 -15.669   1.756  1.00  0.00     0.280 C 
HETATM    3  O   UNL     1      39.771 -16.038   2.547  1.00  0.00    -0.265 OA
HETATM    4  H   UNL     1      42.569 -15.417   1.134  1.00  0.00     0.169 HD
ENDROOT
BRANCH   2   5
HETATM    5  C   UNL     1      40.219 -14.723   0.643  1.00  0.00     0.195 C 
HETATM    6  N   UNL     1      39.431 -15.198  -0.288  1.00  0.00    -0.165 NA
HETATM    7  N   UNL     1      39.055 -14.385  -1.320  1.00  0.00    -0.277 N 
HETATM    8  C   UNL     1      39.763 -13.210  -1.626  1.00  0.00     0.064 A 
HETATM    9  H   UNL     1      38.637 -14.855  -2.124  1.00  0.00     0.189 HD
HETATM   10  C   UNL     1      40.596 -12.612  -0.681  1.00  0.00     0.045 A 
HETATM   11  C   UNL     1      39.557 -12.541  -2.837  1.00  0.00     0.032 A 
HETATM   12  C   UNL     1      40.718 -13.303   0.601  1.00  0.00     0.220 C 
HETATM   13  C   UNL     1      41.253 -11.404  -0.928  1.00  0.00     0.018 A 
HETATM   14  O   UNL     1      41.173 -12.760   1.595  1.00  0.00    -0.285 OA
HETATM   15  C   UNL     1      41.067 -10.769  -2.153  1.00  0.00     0.001 A 
HETATM   16  C   UNL     1      40.216 -11.334  -3.104  1.00  0.00     0.002 A 
ENDBRANCH   2   5
BRANCH   1  17
HETATM   17  C   UNL     1      42.664 -16.870   2.588  1.00  0.00     0.065 A 
HETATM   18  C   UNL     1      42.940 -18.189   2.207  1.00  0.00     0.038 A 
HETATM   19  C   UNL     1      43.661 -19.039   3.050  1.00  0.00    -0.059 A 
HETATM   20  C   UNL     1      43.937 -20.455   2.639  1.00  0.00     0.048 C 
HETATM   21  C   UNL     1      44.073 -18.565   4.298  1.00  0.00     0.020 A 
HETATM   22  C   UNL     1      43.800 -17.243   4.687  1.00  0.00    -0.005 A 
HETATM   23  C   UNL     1      43.096 -16.372   3.828  1.00  0.00     0.093 A 
HETATM   24  C   UNL     1      44.215 -16.754   5.933  1.00  0.00     0.015 A 
HETATM   25  N   UNL     1      42.827 -15.091   4.179  1.00  0.00    -0.258 NA
HETATM   26  C   UNL     1      43.242 -14.658   5.390  1.00  0.00     0.117 A 
HETATM   27  C   UNL     1      43.932 -15.442   6.293  1.00  0.00     0.020 A 
ENDBRANCH   1  17
TORSDOF 2
ENDMDL
MODEL 2
REMARK VINA RESULT:      -9.0      0.996      2.731
REMARK  2 active torsions:
REMARK  status: ('A' for Active; 'I' for Inactive)
REMARK    1  A    between atoms: C_4  and  N_5 
REMARK       I    between atoms: N_5  and  C_6 
REMARK    2  A    between atoms: C_6  and  C_7 
ROOT
HETATM    1  N   UNL     1      42.275 -15.819   2.511  1.00  0.00    -0.319 N 
HETATM    2  C   UNL     1      41.023 -15.254   2.601  1.00  0.00     0.280 C 
HETATM    3  O   UNL     1      40.311 -15.144   3.588  1.00  0.00    -0.265 OA
HETATM    4  H   UNL     1      42.805 -15.654   1.656  1.00  0.00     0.169 HD
ENDROOT
BRANCH   2   5
HETATM    5  C   UNL     1      40.540 -14.666   1.291  1.00  0.00     0.195 C 
HETATM    6  N   UNL     1      39.863 -15.454   0.494  1.00  0.00    -0.165 NA
HETATM    7  N   UNL     1      39.424 -14.970  -0.706  1.00  0.00    -0.277 N 
HETATM    8  C   UNL     1      39.977 -13.812  -1.279  1.00  0.00     0.064 A 
HETATM    9  H   UNL     1      39.107 -15.671  -1.377  1.00  0.00     0.189 HD
HETATM   10  C   UNL     1      40.681 -12.895  -0.497  1.00  0.00     0.045 A 
HETATM   11  C   UNL     1      39.733 -13.484  -2.616  1.00  0.00     0.032 A 
HETATM   12  C   UNL     1      40.842 -13.239   0.913  1.00  0.00     0.220 C 
HETATM   13  C   UNL     1      41.177 -11.698  -1.021  1.00  0.00     0.018 A 
HETATM   14  O   UNL     1      41.177 -12.418   1.752  1.00  0.00    -0.285 OA
HETATM   15  C   UNL     1      40.958 -11.404  -2.364  1.00  0.00     0.001 A 
HETATM   16  C   UNL     1      40.232 -12.293  -3.160  1.00  0.00     0.002 A 
ENDBRANCH   2   5
BRANCH   1  17
HETATM   17  C   UNL     1      42.983 -16.527   3.510  1.00  0.00     0.065 A 
HETATM   18  C   UNL     1      43.426 -15.925   4.695  1.00  0.00     0.038 A 
HETATM   19  C   UNL     1      44.092 -16.674   5.670  1.00  0.00    -0.059 A 
HETATM   20  C   UNL     1      44.577 -16.015   6.928  1.00  0.00     0.048 C 
HETATM   21  C   UNL     1      44.341 -18.027   5.431  1.00  0.00     0.020 A 
HETATM   22  C   UNL     1      43.900 -18.638   4.246  1.00  0.00    -0.005 A 
HETATM   23  C   UNL     1      43.204 -17.893   3.270  1.00  0.00     0.093 A 
HETATM   24  C   UNL     1      44.138 -19.997   3.999  1.00  0.00     0.015 A 
HETATM   25  N   UNL     1      42.762 -18.463   2.122  1.00  0.00    -0.258 NA
HETATM   26  C   UNL     1      43.013 -19.776   1.920  1.00  0.00     0.117 A 
HETATM   27  C   UNL     1      43.690 -20.577   2.818  1.00  0.00     0.020 A 
ENDBRANCH   1  17
TORSDOF 2
ENDMDL
MODEL 3
REMARK VINA RESULT:      -8.9      3.821      7.121
REMARK  2 active torsions:
REMARK  status: ('A' for Active; 'I' for Inactive)
REMARK    1  A    between atoms: C_4  and  N_5 
REMARK       I    between atoms: N_5  and  C_6 
REMARK    2  A    between atoms: C_6  and  C_7 
ROOT
HETATM    1  N   UNL     1      42.516 -13.640   4.665  1.00  0.00    -0.319 N 
HETATM    2  C   UNL     1      41.627 -13.020   5.513  1.00  0.00     0.280 C 
HETATM    3  O   UNL     1      40.430 -13.230   5.639  1.00  0.00    -0.265 OA
HETATM    4  H   UNL     1      43.511 -13.478   4.825  1.00  0.00     0.169 HD
ENDROOT
BRANCH   2   5
HETATM    5  C   UNL     1      42.281 -11.993   6.415  1.00  0.00     0.195 C 
HETATM    6  N   UNL     1      41.549 -10.976   6.793  1.00  0.00    -0.165 NA
HETATM    7  N   UNL     1      42.104 -10.017   7.593  1.00  0.00    -0.277 N 
HETATM    8  C   UNL     1      43.497  -9.876   7.712  1.00  0.00     0.064 A 
HETATM    9  H   UNL     1      41.577  -9.146   7.672  1.00  0.00     0.189 HD
HETATM   10  C   UNL     1      44.353 -10.922   7.370  1.00  0.00     0.045 A 
HETATM   11  C   UNL     1      44.057  -8.733   8.293  1.00  0.00     0.032 A 
HETATM   12  C   UNL     1      43.719 -12.128   6.843  1.00  0.00     0.220 C 
HETATM   13  C   UNL     1      45.736 -10.840   7.549  1.00  0.00     0.018 A 
HETATM   14  O   UNL     1      44.304 -13.197   6.773  1.00  0.00    -0.285 OA
HETATM   15  C   UNL     1      46.281  -9.681   8.093  1.00  0.00     0.001 A 
HETATM   16  C   UNL     1      45.443  -8.631   8.470  1.00  0.00     0.002 A 
ENDBRANCH   2   5
BRANCH   1  17
HETATM   17  C   UNL     1      42.235 -14.575   3.641  1.00  0.00     0.065 A 
HETATM   18  C   UNL     1      41.411 -14.277   2.548  1.00  0.00     0.038 A 
HETATM   19  C   UNL     1      41.191 -15.222   1.542  1.00  0.00    -0.059 A 
HETATM   20  C   UNL     1      40.293 -14.897   0.384  1.00  0.00     0.048 C 
HETATM   21  C   UNL     1      41.777 -16.484   1.659  1.00  0.00     0.020 A 
HETATM   22  C   UNL     1      42.604 -16.791   2.751  1.00  0.00    -0.005 A 
HETATM   23  C   UNL     1      42.852 -15.831   3.756  1.00  0.00     0.093 A 
HETATM   24  C   UNL     1      43.204 -18.052   2.875  1.00  0.00     0.015 A 
HETATM   25  N   UNL     1      43.653 -16.103   4.816  1.00  0.00    -0.258 NA
HETATM   26  C   UNL     1      44.211 -17.331   4.900  1.00  0.00     0.117 A 
HETATM   27  C   UNL     1      44.018 -18.329   3.966  1.00  0.00     0.020 A 
ENDBRANCH   1  17
TORSDOF 2
ENDMDL
MODEL 4
REMARK VINA RESULT:      -8.8      4.019      7.380
REMARK  2 active torsions:
REMARK  status: ('A' for Active; 'I' for Inactive)
REMARK    1  A    between atoms: C_4  and  N_5 
REMARK       I    between atoms: N_5  and  C_6 
REMARK    2  A    between atoms: C_6  and  C_7 
ROOT
HETATM    1  N   UNL     1      42.518 -14.247   4.962  1.00  0.00    -0.319 N 
HETATM    2  C   UNL     1      42.859 -14.511   3.655  1.00  0.00     0.280 C 
HETATM    3  O   UNL     1      42.920 -13.732   2.716  1.00  0.00    -0.265 OA
HETATM    4  H   UNL     1      42.705 -14.973   5.654  1.00  0.00     0.169 HD
ENDROOT
BRANCH   2   5
HETATM    5  C   UNL     1      43.249 -15.957   3.422  1.00  0.00     0.195 C 
HETATM    6  N   UNL     1      43.060 -16.441   2.221  1.00  0.00    -0.165 NA
HETATM    7  N   UNL     1      43.381 -17.746   1.971  1.00  0.00    -0.277 N 
HETATM    8  C   UNL     1      43.541 -18.676   3.013  1.00  0.00     0.064 A 
HETATM    9  H   UNL     1      43.011 -18.135   1.102  1.00  0.00     0.189 HD
HETATM   10  C   UNL     1      43.785 -18.251   4.318  1.00  0.00     0.045 A 
HETATM   11  C   UNL     1      43.585 -20.049   2.750  1.00  0.00     0.032 A 
HETATM   12  C   UNL     1      43.812 -16.806   4.532  1.00  0.00     0.220 C 
HETATM   13  C   UNL     1      44.024 -19.150   5.360  1.00  0.00     0.018 A 
HETATM   14  O   UNL     1      44.285 -16.302   5.538  1.00  0.00    -0.285 OA
HETATM   15  C   UNL     1      44.027 -20.516   5.090  1.00  0.00     0.001 A 
HETATM   16  C   UNL     1      43.813 -20.965   3.785  1.00  0.00     0.002 A 
ENDBRANCH   2   5
BRANCH   1  17
HETATM   17  C   UNL     1      42.026 -13.037   5.505  1.00  0.00     0.065 A 
HETATM   18  C   UNL     1      40.679 -12.661   5.418  1.00  0.00     0.038 A 
HETATM   19  C   UNL     1      40.231 -11.472   6.002  1.00  0.00    -0.059 A 
HETATM   20  C   UNL     1      38.790 -11.071   5.888  1.00  0.00     0.048 C 
HETATM   21  C   UNL     1      41.154 -10.643   6.644  1.00  0.00     0.020 A 
HETATM   22  C   UNL     1      42.506 -11.013   6.735  1.00  0.00    -0.005 A 
HETATM   23  C   UNL     1      42.959 -12.226   6.172  1.00  0.00     0.093 A 
HETATM   24  C   UNL     1      43.440 -10.194   7.384  1.00  0.00     0.015 A 
HETATM   25  N   UNL     1      44.257 -12.607   6.253  1.00  0.00    -0.258 NA
HETATM   26  C   UNL     1      45.127 -11.788   6.886  1.00  0.00     0.117 A 
HETATM   27  C   UNL     1      44.771 -10.584   7.460  1.00  0.00     0.020 A 
ENDBRANCH   1  17
TORSDOF 2
ENDMDL
MODEL 5
REMARK VINA RESULT:      -8.8      1.923      2.213
REMARK  2 active torsions:
REMARK  status: ('A' for Active; 'I' for Inactive)
REMARK    1  A    between atoms: C_4  and  N_5 
REMARK       I    between atoms: N_5  and  C_6 
REMARK    2  A    between atoms: C_6  and  C_7 
ROOT
HETATM    1  N   UNL     1      41.499 -16.019   2.215  1.00  0.00    -0.319 N 
HETATM    2  C   UNL     1      41.818 -14.825   1.608  1.00  0.00     0.280 C 
HETATM    3  O   UNL     1      42.926 -14.383   1.343  1.00  0.00    -0.265 OA
HETATM    4  H   UNL     1      40.524 -16.316   2.185  1.00  0.00     0.169 HD
ENDROOT
BRANCH   2   5
HETATM    5  C   UNL     1      40.601 -14.025   1.192  1.00  0.00     0.195 C 
HETATM    6  N   UNL     1      40.195 -14.151  -0.046  1.00  0.00    -0.165 NA
HETATM    7  N   UNL     1      39.112 -13.434  -0.469  1.00  0.00    -0.277 N 
HETATM    8  C   UNL     1      38.656 -12.307   0.236  1.00  0.00     0.064 A 
HETATM    9  H   UNL     1      38.976 -13.391  -1.480  1.00  0.00     0.189 HD
HETATM   10  C   UNL     1      39.005 -12.111   1.572  1.00  0.00     0.045 A 
HETATM   11  C   UNL     1      37.742 -11.419  -0.341  1.00  0.00     0.032 A 
HETATM   12  C   UNL     1      39.898 -13.107   2.159  1.00  0.00     0.220 C 
HETATM   13  C   UNL     1      38.507 -11.042   2.322  1.00  0.00     0.018 A 
HETATM   14  O   UNL     1      40.053 -13.217   3.365  1.00  0.00    -0.285 OA
HETATM   15  C   UNL     1      37.627 -10.146   1.721  1.00  0.00     0.001 A 
HETATM   16  C   UNL     1      37.240 -10.337   0.394  1.00  0.00     0.002 A 
ENDBRANCH   2   5
BRANCH   1  17
HETATM   17  C   UNL     1      42.379 -16.961   2.799  1.00  0.00     0.065 A 
HETATM   18  C   UNL     1      42.687 -18.185   2.192  1.00  0.00     0.038 A 
HETATM   19  C   UNL     1      43.590 -19.070   2.789  1.00  0.00    -0.059 A 
HETATM   20  C   UNL     1      43.900 -20.386   2.139  1.00  0.00     0.048 C 
HETATM   21  C   UNL     1      44.156 -18.731   4.020  1.00  0.00     0.020 A 
HETATM   22  C   UNL     1      43.852 -17.504   4.635  1.00  0.00    -0.005 A 
HETATM   23  C   UNL     1      42.962 -16.596   4.023  1.00  0.00     0.093 A 
HETATM   24  C   UNL     1      44.420 -17.150   5.866  1.00  0.00     0.015 A 
HETATM   25  N   UNL     1      42.659 -15.404   4.593  1.00  0.00    -0.258 NA
HETATM   26  C   UNL     1      43.226 -15.100   5.782  1.00  0.00     0.117 A 
HETATM   27  C   UNL     1      44.102 -15.931   6.451  1.00  0.00     0.020 A 
ENDBRANCH   1  17
TORSDOF 2
ENDMDL
MODEL 6
REMARK VINA RESULT:      -8.7      1.347      7.933
REMARK  2 active torsions:
REMARK  status: ('A' for Active; 'I' for Inactive)
REMARK    1  A    between atoms: C_4  and  N_5 
REMARK       I    between atoms: N_5  and  C_6 
REMARK    2  A    between atoms: C_6  and  C_7 
ROOT
HETATM    1  N   UNL     1      41.346 -13.577   1.079  1.00  0.00    -0.319 N 
HETATM    2  C   UNL     1      41.155 -13.575   2.442  1.00  0.00     0.280 C 
HETATM    3  O   UNL     1      40.511 -12.785   3.115  1.00  0.00    -0.265 OA
HETATM    4  H   UNL     1      41.749 -14.416   0.661  1.00  0.00     0.169 HD
ENDROOT
BRANCH   2   5
HETATM    5  C   UNL     1      41.806 -14.754   3.136  1.00  0.00     0.195 C 
HETATM    6  N   UNL     1      42.426 -14.517   4.264  1.00  0.00    -0.165 NA
HETATM    7  N   UNL     1      43.043 -15.548   4.915  1.00  0.00    -0.277 N 
HETATM    8  C   UNL     1      43.362 -16.747   4.256  1.00  0.00     0.064 A 
HETATM    9  H   UNL     1      43.694 -15.279   5.655  1.00  0.00     0.189 HD
HETATM   10  C   UNL     1      42.723 -17.101   3.068  1.00  0.00     0.045 A 
HETATM   11  C   UNL     1      44.235 -17.675   4.833  1.00  0.00     0.032 A 
HETATM   12  C   UNL     1      41.758 -16.138   2.543  1.00  0.00     0.220 C 
HETATM   13  C   UNL     1      42.962 -18.321   2.430  1.00  0.00     0.018 A 
HETATM   14  O   UNL     1      40.936 -16.434   1.690  1.00  0.00    -0.285 OA
HETATM   15  C   UNL     1      43.863 -19.218   2.998  1.00  0.00     0.001 A 
HETATM   16  C   UNL     1      44.494 -18.898   4.201  1.00  0.00     0.002 A 
ENDBRANCH   2   5
BRANCH   1  17
HETATM   17  C   UNL     1      40.954 -12.590   0.144  1.00  0.00     0.065 A 
HETATM   18  C   UNL     1      41.338 -11.247   0.255  1.00  0.00     0.038 A 
HETATM   19  C   UNL     1      40.957 -10.314  -0.713  1.00  0.00    -0.059 A 
HETATM   20  C   UNL     1      41.360  -8.875  -0.575  1.00  0.00     0.048 C 
HETATM   21  C   UNL     1      40.155 -10.732  -1.777  1.00  0.00     0.020 A 
HETATM   22  C   UNL     1      39.766 -12.076  -1.896  1.00  0.00    -0.005 A 
HETATM   23  C   UNL     1      40.171 -13.028  -0.936  1.00  0.00     0.093 A 
HETATM   24  C   UNL     1      38.968 -12.508  -2.964  1.00  0.00     0.015 A 
HETATM   25  N   UNL     1      39.813 -14.332  -1.033  1.00  0.00    -0.258 NA
HETATM   26  C   UNL     1      39.041 -14.709  -2.077  1.00  0.00     0.117 A 
HETATM   27  C   UNL     1      38.597 -13.844  -3.057  1.00  0.00     0.020 A 
ENDBRANCH   1  17
TORSDOF 2
ENDMDL
MODEL 7
REMARK VINA RESULT:      -8.6      4.197      7.901
REMARK  2 active torsions:
REMARK  status: ('A' for Active; 'I' for Inactive)
REMARK    1  A    between atoms: C_4  and  N_5 
REMARK       I    between atoms: N_5  and  C_6 
REMARK    2  A    between atoms: C_6  and  C_7 
ROOT
HETATM    1  N   UNL     1      43.161 -13.046   5.012  1.00  0.00    -0.319 N 
HETATM    2  C   UNL     1      43.980 -11.959   4.806  1.00  0.00     0.280 C 
HETATM    3  O   UNL     1      44.399 -11.518   3.747  1.00  0.00    -0.265 OA
HETATM    4  H   UNL     1      42.752 -13.159   5.940  1.00  0.00     0.169 HD
ENDROOT
BRANCH   2   5
HETATM    5  C   UNL     1      44.331 -11.227   6.085  1.00  0.00     0.195 C 
HETATM    6  N   UNL     1      45.564 -11.327   6.513  1.00  0.00    -0.165 NA
HETATM    7  N   UNL     1      45.920 -10.697   7.672  1.00  0.00    -0.277 N 
HETATM    8  C   UNL     1      44.956 -10.275   8.605  1.00  0.00     0.064 A 
HETATM    9  H   UNL     1      46.811 -10.986   8.077  1.00  0.00     0.189 HD
HETATM   10  C   UNL     1      43.625 -10.103   8.227  1.00  0.00     0.045 A 
HETATM   11  C   UNL     1      45.327  -9.896   9.899  1.00  0.00     0.032 A 
HETATM   12  C   UNL     1      43.299 -10.433   6.842  1.00  0.00     0.220 C 
HETATM   13  C   UNL     1      42.660  -9.611   9.110  1.00  0.00     0.018 A 
HETATM   14  O   UNL     1      42.262 -10.068   6.310  1.00  0.00    -0.285 OA
HETATM   15  C   UNL     1      43.037  -9.274  10.407  1.00  0.00     0.001 A 
HETATM   16  C   UNL     1      44.370  -9.411  10.800  1.00  0.00     0.002 A 
ENDBRANCH   2   5
BRANCH   1  17
HETATM   17  C   UNL     1      42.716 -13.994   4.060  1.00  0.00     0.065 A 
HETATM   18  C   UNL     1      41.935 -13.643   2.950  1.00  0.00     0.038 A 
HETATM   19  C   UNL     1      41.549 -14.608   2.016  1.00  0.00    -0.059 A 
HETATM   20  C   UNL     1      40.699 -14.224   0.841  1.00  0.00     0.048 C 
HETATM   21  C   UNL     1      41.923 -15.938   2.222  1.00  0.00     0.020 A 
HETATM   22  C   UNL     1      42.706 -16.298   3.332  1.00  0.00    -0.005 A 
HETATM   23  C   UNL     1      43.122 -15.322   4.264  1.00  0.00     0.093 A 
HETATM   24  C   UNL     1      43.094 -17.627   3.545  1.00  0.00     0.015 A 
HETATM   25  N   UNL     1      43.883 -15.645   5.338  1.00  0.00    -0.258 NA
HETATM   26  C   UNL     1      44.235 -16.938   5.509  1.00  0.00     0.117 A 
HETATM   27  C   UNL     1      43.869 -17.956   4.650  1.00  0.00     0.020 A 
ENDBRANCH   1  17
TORSDOF 2
ENDMDL
MODEL 8
REMARK VINA RESULT:      -8.6      1.963      3.523
REMARK  2 active torsions:
REMARK  status: ('A' for Active; 'I' for Inactive)
REMARK    1  A    between atoms: C_4  and  N_5 
REMARK       I    between atoms: N_5  and  C_6 
REMARK    2  A    between atoms: C_6  and  C_7 
ROOT
HETATM    1  N   UNL     1      41.654 -13.997   2.702  1.00  0.00    -0.319 N 
HETATM    2  C   UNL     1      40.360 -13.528   2.680  1.00  0.00     0.280 C 
HETATM    3  O   UNL     1      39.630 -13.277   3.627  1.00  0.00    -0.265 OA
HETATM    4  H   UNL     1      42.180 -13.967   1.829  1.00  0.00     0.169 HD
ENDROOT
BRANCH   2   5
HETATM    5  C   UNL     1      39.848 -13.258   1.280  1.00  0.00     0.195 C 
HETATM    6  N   UNL     1      39.177 -12.150   1.091  1.00  0.00    -0.165 NA
HETATM    7  N   UNL     1      38.682 -11.875  -0.152  1.00  0.00    -0.277 N 
HETATM    8  C   UNL     1      38.533 -12.881  -1.124  1.00  0.00     0.064 A 
HETATM    9  H   UNL     1      37.986 -11.130  -0.198  1.00  0.00     0.189 HD
HETATM   10  C   UNL     1      39.240 -14.078  -1.024  1.00  0.00     0.045 A 
HETATM   11  C   UNL     1      37.773 -12.660  -2.277  1.00  0.00     0.032 A 
HETATM   12  C   UNL     1      40.086 -14.233   0.156  1.00  0.00     0.220 C 
HETATM   13  C   UNL     1      39.173 -15.065  -2.012  1.00  0.00     0.018 A 
HETATM   14  O   UNL     1      40.958 -15.084   0.229  1.00  0.00    -0.285 OA
HETATM   15  C   UNL     1      38.381 -14.846  -3.136  1.00  0.00     0.001 A 
HETATM   16  C   UNL     1      37.686 -13.643  -3.271  1.00  0.00     0.002 A 
ENDBRANCH   2   5
BRANCH   1  17
HETATM   17  C   UNL     1      42.404 -14.429   3.821  1.00  0.00     0.065 A 
HETATM   18  C   UNL     1      42.672 -13.600   4.919  1.00  0.00     0.038 A 
HETATM   19  C   UNL     1      43.387 -14.082   6.019  1.00  0.00    -0.059 A 
HETATM   20  C   UNL     1      43.683 -13.180   7.181  1.00  0.00     0.048 C 
HETATM   21  C   UNL     1      43.864 -15.394   5.994  1.00  0.00     0.020 A 
HETATM   22  C   UNL     1      43.599 -16.232   4.898  1.00  0.00    -0.005 A 
HETATM   23  C   UNL     1      42.854 -15.759   3.796  1.00  0.00     0.093 A 
HETATM   24  C   UNL     1      44.065 -17.553   4.865  1.00  0.00     0.015 A 
HETATM   25  N   UNL     1      42.580 -16.551   2.730  1.00  0.00    -0.258 NA
HETATM   26  C   UNL     1      43.049 -17.818   2.737  1.00  0.00     0.117 A 
HETATM   27  C   UNL     1      43.789 -18.360   3.769  1.00  0.00     0.020 A 
ENDBRANCH   1  17
TORSDOF 2
ENDMDL
MODEL 9
REMARK VINA RESULT:      -8.6      1.891      8.030
REMARK  2 active torsions:
REMARK  status: ('A' for Active; 'I' for Inactive)
REMARK    1  A    between atoms: C_4  and  N_5 
REMARK       I    between atoms: N_5  and  C_6 
REMARK    2  A    between atoms: C_6  and  C_7 
ROOT
HETATM    1  N   UNL     1      40.054 -13.606   1.711  1.00  0.00    -0.319 N 
HETATM    2  C   UNL     1      41.362 -13.415   2.094  1.00  0.00     0.280 C 
HETATM    3  O   UNL     1      42.061 -12.426   1.934  1.00  0.00    -0.265 OA
HETATM    4  H   UNL     1      39.565 -14.415   2.093  1.00  0.00     0.169 HD
ENDROOT
BRANCH   2   5
HETATM    5  C   UNL     1      41.939 -14.595   2.850  1.00  0.00     0.195 C 
HETATM    6  N   UNL     1      42.594 -14.336   3.953  1.00  0.00    -0.165 NA
HETATM    7  N   UNL     1      43.146 -15.368   4.657  1.00  0.00    -0.277 N 
HETATM    8  C   UNL     1      43.367 -16.625   4.068  1.00  0.00     0.064 A 
HETATM    9  H   UNL     1      43.827 -15.104   5.371  1.00  0.00     0.189 HD
HETATM   10  C   UNL     1      42.684 -17.002   2.912  1.00  0.00     0.045 A 
HETATM   11  C   UNL     1      44.181 -17.578   4.690  1.00  0.00     0.032 A 
HETATM   12  C   UNL     1      41.781 -16.004   2.342  1.00  0.00     0.220 C 
HETATM   13  C   UNL     1      42.824 -18.272   2.346  1.00  0.00     0.018 A 
HETATM   14  O   UNL     1      40.926 -16.290   1.519  1.00  0.00    -0.285 OA
HETATM   15  C   UNL     1      43.667 -19.196   2.956  1.00  0.00     0.001 A 
HETATM   16  C   UNL     1      44.341 -18.852   4.129  1.00  0.00     0.002 A 
ENDBRANCH   2   5
BRANCH   1  17
HETATM   17  C   UNL     1      39.245 -12.754   0.922  1.00  0.00     0.065 A 
HETATM   18  C   UNL     1      38.659 -11.586   1.427  1.00  0.00     0.038 A 
HETATM   19  C   UNL     1      37.896 -10.756   0.601  1.00  0.00    -0.059 A 
HETATM   20  C   UNL     1      37.258  -9.516   1.157  1.00  0.00     0.048 C 
HETATM   21  C   UNL     1      37.697 -11.125  -0.731  1.00  0.00     0.020 A 
HETATM   22  C   UNL     1      38.282 -12.294  -1.245  1.00  0.00    -0.005 A 
HETATM   23  C   UNL     1      39.075 -13.122  -0.422  1.00  0.00     0.093 A 
HETATM   24  C   UNL     1      38.095 -12.670  -2.582  1.00  0.00     0.015 A 
HETATM   25  N   UNL     1      39.655 -14.251  -0.898  1.00  0.00    -0.258 NA
HETATM   26  C   UNL     1      39.450 -14.580  -2.192  1.00  0.00     0.117 A 
HETATM   27  C   UNL     1      38.686 -13.832  -3.065  1.00  0.00     0.020 A 
ENDBRANCH   1  17
TORSDOF 2
ENDMDL
MODEL 10
REMARK VINA RESULT:      -8.5      4.605      7.769
REMARK  2 active torsions:
REMARK  status: ('A' for Active; 'I' for Inactive)
REMARK    1  A    between atoms: C_4  and  N_5 
REMARK       I    between atoms: N_5  and  C_6 
REMARK    2  A    between atoms: C_6  and  C_7 
ROOT
HETATM    1  N   UNL     1      43.377 -13.281   5.681  1.00  0.00    -0.319 N 
HETATM    2  C   UNL     1      42.946 -14.530   6.067  1.00  0.00     0.280 C 
HETATM    3  O   UNL     1      42.382 -14.849   7.102  1.00  0.00    -0.265 OA
HETATM    4  H   UNL     1      43.654 -13.158   4.707  1.00  0.00     0.169 HD
ENDROOT
BRANCH   2   5
HETATM    5  C   UNL     1      43.182 -15.593   5.013  1.00  0.00     0.195 C 
HETATM    6  N   UNL     1      42.713 -15.361   3.813  1.00  0.00    -0.165 NA
HETATM    7  N   UNL     1      42.887 -16.300   2.837  1.00  0.00    -0.277 N 
HETATM    8  C   UNL     1      43.203 -17.634   3.148  1.00  0.00     0.064 A 
HETATM    9  H   UNL     1      42.317 -16.179   1.998  1.00  0.00     0.189 HD
HETATM   10  C   UNL     1      43.745 -17.969   4.388  1.00  0.00     0.045 A 
HETATM   11  C   UNL     1      43.101 -18.641   2.182  1.00  0.00     0.032 A 
HETATM   12  C   UNL     1      43.911 -16.871   5.338  1.00  0.00     0.220 C 
HETATM   13  C   UNL     1      44.141 -19.272   4.699  1.00  0.00     0.018 A 
HETATM   14  O   UNL     1      44.619 -16.964   6.328  1.00  0.00    -0.285 OA
HETATM   15  C   UNL     1      43.997 -20.271   3.740  1.00  0.00     0.001 A 
HETATM   16  C   UNL     1      43.483 -19.955   2.481  1.00  0.00     0.002 A 
ENDBRANCH   2   5
BRANCH   1  17
HETATM   17  C   UNL     1      43.392 -12.091   6.446  1.00  0.00     0.065 A 
HETATM   18  C   UNL     1      44.436 -11.766   7.321  1.00  0.00     0.038 A 
HETATM   19  C   UNL     1      44.424 -10.561   8.030  1.00  0.00    -0.059 A 
HETATM   20  C   UNL     1      45.540 -10.231   8.977  1.00  0.00     0.048 C 
HETATM   21  C   UNL     1      43.337  -9.698   7.879  1.00  0.00     0.020 A 
HETATM   22  C   UNL     1      42.286 -10.016   7.003  1.00  0.00    -0.005 A 
HETATM   23  C   UNL     1      42.306 -11.219   6.265  1.00  0.00     0.093 A 
HETATM   24  C   UNL     1      41.193  -9.154   6.838  1.00  0.00     0.015 A 
HETATM   25  N   UNL     1      41.306 -11.544   5.409  1.00  0.00    -0.258 NA
HETATM   26  C   UNL     1      40.269 -10.687   5.279  1.00  0.00     0.117 A 
HETATM   27  C   UNL     1      40.167  -9.493   5.965  1.00  0.00     0.020 A 
ENDBRANCH   1  17
TORSDOF 2
ENDMDL
