MODEL 1
REMARK VINA RESULT:      -7.5      0.000      0.000
REMARK  10 active torsions:
REMARK  status: ('A' for Active; 'I' for Inactive)
REMARK    1  A    between atoms: C_2  and  C_3 
REMARK    2  A    between atoms: C_3  and  N_4 
REMARK    3  A    between atoms: C_7  and  C_8 
REMARK       I    between atoms: C_8  and  N_9 
REMARK    4  A    between atoms: N_9  and  C_10 
REMARK    5  A    between atoms: C_10  and  C_11 
REMARK    6  A    between atoms: C_11  and  O_12 
REMARK    7  A    between atoms: C_11  and  C_13 
REMARK    8  A    between atoms: C_13  and  O_14 
REMARK    9  A    between atoms: O_14  and  C_15 
REMARK   10  A    between atoms: C_23  and  C_24 
ROOT
HETATM    1  C   UNL     1      41.198 -12.603   2.645  1.00  0.00     0.255 C 
HETATM    2  N   UNL     1      41.508 -13.434   1.599  1.00  0.00    -0.354 N 
HETATM    3  O   UNL     1      40.097 -12.081   2.778  1.00  0.00    -0.268 OA
HETATM    4  H   UNL     1      42.411 -13.891   1.590  1.00  0.00     0.162 HD
ENDROOT
BRANCH   2   5
HETATM    5  C   UNL     1      40.482 -13.955   0.715  1.00  0.00     0.156 C 
BRANCH   5   6
HETATM    6  C   UNL     1      39.951 -15.312   1.178  1.00  0.00     0.160 C 
BRANCH   6   7
HETATM    7  O   UNL     1      39.175 -15.127   2.375  1.00  0.00    -0.392 OA
HETATM    8  H   UNL     1      38.860 -14.202   2.342  1.00  0.00     0.210 HD
ENDBRANCH   6   7
BRANCH   6   9
HETATM    9  C   UNL     1      41.083 -16.307   1.456  1.00  0.00     0.209 C 
BRANCH   9  10
HETATM   10  O   UNL     1      41.525 -16.086   2.801  1.00  0.00    -0.349 OA
BRANCH  10  11
HETATM   11  C   UNL     1      42.487 -16.933   3.277  1.00  0.00     0.069 A 
HETATM   12  C   UNL     1      42.685 -18.083   2.506  1.00  0.00     0.043 A 
HETATM   13  C   UNL     1      43.636 -19.044   2.874  1.00  0.00    -0.059 A 
HETATM   14  C   UNL     1      43.840 -20.280   2.051  1.00  0.00     0.048 C 
HETATM   15  C   UNL     1      44.376 -18.851   4.045  1.00  0.00     0.007 A 
HETATM   16  C   UNL     1      44.182 -17.708   4.819  1.00  0.00     0.003 A 
HETATM   17  C   UNL     1      43.242 -16.748   4.435  1.00  0.00     0.037 A 
ENDBRANCH  10  11
ENDBRANCH   9  10
ENDBRANCH   6   9
ENDBRANCH   5   6
ENDBRANCH   2   5
BRANCH   1  18
HETATM   18  C   UNL     1      42.295 -12.308   3.539  1.00  0.00     0.075 A 
HETATM   19  C   UNL     1      43.402 -11.509   3.177  1.00  0.00     0.158 A 
HETATM   20  N   UNL     1      44.241 -11.295   4.183  1.00  0.00    -0.183 NA
HETATM   21  N   UNL     1      43.638 -11.883   5.237  1.00  0.00    -0.268 N 
HETATM   22  C   UNL     1      42.486 -12.573   4.892  1.00  0.00     0.052 A 
BRANCH  21  23
HETATM   23  C   UNL     1      44.213 -11.682   6.569  1.00  0.00     0.106 C 
HETATM   24  C   UNL     1      43.433 -10.642   7.380  1.00  0.00     0.034 C 
BRANCH  23  25
HETATM   25  C   UNL     1      45.730 -11.422   6.528  1.00  0.00     0.022 C 
HETATM   26  C   UNL     1      46.301 -10.625   7.694  1.00  0.00     0.007 C 
ENDBRANCH  23  25
ENDBRANCH  21  23
BRANCH  22  27
HETATM   27  C   UNL     1      41.614 -13.348   5.885  1.00  0.00     0.038 A 
HETATM   28  C   UNL     1      40.180 -12.951   6.147  1.00  0.00     0.011 A 
HETATM   29  C   UNL     1      40.472 -14.210   5.403  1.00  0.00     0.011 A 
ENDBRANCH  22  27
ENDBRANCH   1  18
TORSDOF 10
ENDMDL
MODEL 2
REMARK VINA RESULT:      -7.3      2.097      2.975
REMARK  10 active torsions:
REMARK  status: ('A' for Active; 'I' for Inactive)
REMARK    1  A    between atoms: C_2  and  C_3 
REMARK    2  A    between atoms: C_3  and  N_4 
REMARK    3  A    between atoms: C_7  and  C_8 
REMARK       I    between atoms: C_8  and  N_9 
REMARK    4  A    between atoms: N_9  and  C_10 
REMARK    5  A    between atoms: C_10  and  C_11 
REMARK    6  A    between atoms: C_11  and  O_12 
REMARK    7  A    between atoms: C_11  and  C_13 
REMARK    8  A    between atoms: C_13  and  O_14 
REMARK    9  A    between atoms: O_14  and  C_15 
REMARK   10  A    between atoms: C_23  and  C_24 
ROOT
HETATM    1  C   UNL     1      43.325 -12.001   4.709  1.00  0.00     0.255 C 
HETATM    2  N   UNL     1      42.229 -12.823   4.664  1.00  0.00    -0.354 N 
HETATM    3  O   UNL     1      43.969 -11.691   3.712  1.00  0.00    -0.268 OA
HETATM    4  H   UNL     1      41.699 -12.976   5.513  1.00  0.00     0.162 HD
ENDROOT
BRANCH   2   5
HETATM    5  C   UNL     1      41.601 -13.182   3.406  1.00  0.00     0.156 C 
BRANCH   5   6
HETATM    6  C   UNL     1      40.475 -14.200   3.589  1.00  0.00     0.160 C 
BRANCH   6   7
HETATM    7  O   UNL     1      40.171 -14.314   4.990  1.00  0.00    -0.392 OA
HETATM    8  H   UNL     1      39.196 -14.304   5.048  1.00  0.00     0.210 HD
ENDBRANCH   6   7
BRANCH   6   9
HETATM    9  C   UNL     1      40.851 -15.578   3.037  1.00  0.00     0.209 C 
BRANCH   9  10
HETATM   10  O   UNL     1      42.269 -15.583   2.829  1.00  0.00    -0.349 OA
BRANCH  10  11
HETATM   11  C   UNL     1      42.954 -16.670   3.300  1.00  0.00     0.069 A 
HETATM   12  C   UNL     1      42.909 -17.793   2.467  1.00  0.00     0.043 A 
HETATM   13  C   UNL     1      43.561 -18.980   2.822  1.00  0.00    -0.059 A 
HETATM   14  C   UNL     1      43.505 -20.186   1.931  1.00  0.00     0.048 C 
HETATM   15  C   UNL     1      44.245 -19.040   4.040  1.00  0.00     0.007 A 
HETATM   16  C   UNL     1      44.292 -17.925   4.876  1.00  0.00     0.003 A 
HETATM   17  C   UNL     1      43.651 -16.740   4.506  1.00  0.00     0.037 A 
ENDBRANCH  10  11
ENDBRANCH   9  10
ENDBRANCH   6   9
ENDBRANCH   5   6
ENDBRANCH   2   5
BRANCH   1  18
HETATM   18  C   UNL     1      43.730 -11.592   6.036  1.00  0.00     0.075 A 
HETATM   19  C   UNL     1      44.961 -11.960   6.622  1.00  0.00     0.158 A 
HETATM   20  N   UNL     1      45.163 -11.395   7.806  1.00  0.00    -0.183 NA
HETATM   21  N   UNL     1      44.099 -10.581   7.960  1.00  0.00    -0.268 N 
HETATM   22  C   UNL     1      43.162 -10.709   6.948  1.00  0.00     0.052 A 
BRANCH  21  23
HETATM   23  C   UNL     1      44.090  -9.656   9.097  1.00  0.00     0.106 C 
HETATM   24  C   UNL     1      44.765  -8.323   8.759  1.00  0.00     0.034 C 
BRANCH  23  25
HETATM   25  C   UNL     1      44.615 -10.303  10.393  1.00  0.00     0.022 C 
HETATM   26  C   UNL     1      43.586 -10.507  11.498  1.00  0.00     0.007 C 
ENDBRANCH  23  25
ENDBRANCH  21  23
BRANCH  22  27
HETATM   27  C   UNL     1      41.850  -9.919   6.881  1.00  0.00     0.038 A 
HETATM   28  C   UNL     1      41.841  -8.434   6.603  1.00  0.00     0.011 A 
HETATM   29  C   UNL     1      41.338  -9.381   5.566  1.00  0.00     0.011 A 
ENDBRANCH  22  27
ENDBRANCH   1  18
TORSDOF 10
ENDMDL
MODEL 3
REMARK VINA RESULT:      -7.3      2.839      4.540
REMARK  10 active torsions:
REMARK  status: ('A' for Active; 'I' for Inactive)
REMARK    1  A    between atoms: C_2  and  C_3 
REMARK    2  A    between atoms: C_3  and  N_4 
REMARK    3  A    between atoms: C_7  and  C_8 
REMARK       I    between atoms: C_8  and  N_9 
REMARK    4  A    between atoms: N_9  and  C_10 
REMARK    5  A    between atoms: C_10  and  C_11 
REMARK    6  A    between atoms: C_11  and  O_12 
REMARK    7  A    between atoms: C_11  and  C_13 
REMARK    8  A    between atoms: C_13  and  O_14 
REMARK    9  A    between atoms: O_14  and  C_15 
REMARK   10  A    between atoms: C_23  and  C_24 
ROOT
HETATM    1  C   UNL     1      42.230 -10.865   6.194  1.00  0.00     0.255 C 
HETATM    2  N   UNL     1      41.572 -12.064   6.301  1.00  0.00    -0.354 N 
HETATM    3  O   UNL     1      42.679 -10.444   5.134  1.00  0.00    -0.268 OA
HETATM    4  H   UNL     1      41.160 -12.317   7.190  1.00  0.00     0.162 HD
ENDROOT
BRANCH   2   5
HETATM    5  C   UNL     1      41.139 -12.799   5.127  1.00  0.00     0.156 C 
BRANCH   5   6
HETATM    6  C   UNL     1      40.699 -14.224   5.464  1.00  0.00     0.160 C 
BRANCH   6   7
HETATM    7  O   UNL     1      39.547 -14.166   6.324  1.00  0.00    -0.392 OA
HETATM    8  H   UNL     1      38.775 -14.277   5.735  1.00  0.00     0.210 HD
ENDBRANCH   6   7
BRANCH   6   9
HETATM    9  C   UNL     1      41.810 -15.019   6.157  1.00  0.00     0.209 C 
BRANCH   9  10
HETATM   10  O   UNL     1      42.981 -14.920   5.337  1.00  0.00    -0.349 OA
BRANCH  10  11
HETATM   11  C   UNL     1      43.169 -15.910   4.413  1.00  0.00     0.069 A 
HETATM   12  C   UNL     1      43.583 -17.135   4.947  1.00  0.00     0.043 A 
HETATM   13  C   UNL     1      43.819 -18.240   4.119  1.00  0.00    -0.059 A 
HETATM   14  C   UNL     1      44.271 -19.550   4.693  1.00  0.00     0.048 C 
HETATM   15  C   UNL     1      43.658 -18.098   2.737  1.00  0.00     0.007 A 
HETATM   16  C   UNL     1      43.249 -16.880   2.198  1.00  0.00     0.003 A 
HETATM   17  C   UNL     1      43.000 -15.788   3.034  1.00  0.00     0.037 A 
ENDBRANCH  10  11
ENDBRANCH   9  10
ENDBRANCH   6   9
ENDBRANCH   5   6
ENDBRANCH   2   5
BRANCH   1  18
HETATM   18  C   UNL     1      42.441 -10.168   7.443  1.00  0.00     0.075 A 
HETATM   19  C   UNL     1      41.440  -9.410   8.089  1.00  0.00     0.158 A 
HETATM   20  N   UNL     1      41.826  -8.936   9.268  1.00  0.00    -0.183 NA
HETATM   21  N   UNL     1      43.057  -9.460   9.438  1.00  0.00    -0.268 N 
HETATM   22  C   UNL     1      43.510 -10.162   8.332  1.00  0.00     0.052 A 
BRANCH  21  23
HETATM   23  C   UNL     1      43.715  -9.284  10.736  1.00  0.00     0.106 C 
HETATM   24  C   UNL     1      43.639 -10.550  11.595  1.00  0.00     0.034 C 
BRANCH  23  25
HETATM   25  C   UNL     1      43.251  -8.011  11.469  1.00  0.00     0.022 C 
HETATM   26  C   UNL     1      43.271  -8.075  12.990  1.00  0.00     0.007 C 
ENDBRANCH  23  25
ENDBRANCH  21  23
BRANCH  22  27
HETATM   27  C   UNL     1      44.880 -10.844   8.244  1.00  0.00     0.038 A 
HETATM   28  C   UNL     1      45.679 -10.837   6.962  1.00  0.00     0.011 A 
HETATM   29  C   UNL     1      46.144 -10.027   8.125  1.00  0.00     0.011 A 
ENDBRANCH  22  27
ENDBRANCH   1  18
TORSDOF 10
ENDMDL
MODEL 4
REMARK VINA RESULT:      -7.2      1.590      2.213
REMARK  10 active torsions:
REMARK  status: ('A' for Active; 'I' for Inactive)
REMARK    1  A    between atoms: C_2  and  C_3 
REMARK    2  A    between atoms: C_3  and  N_4 
REMARK    3  A    between atoms: C_7  and  C_8 
REMARK       I    between atoms: C_8  and  N_9 
REMARK    4  A    between atoms: N_9  and  C_10 
REMARK    5  A    between atoms: C_10  and  C_11 
REMARK    6  A    between atoms: C_11  and  O_12 
REMARK    7  A    between atoms: C_11  and  C_13 
REMARK    8  A    between atoms: C_13  and  O_14 
REMARK    9  A    between atoms: O_14  and  C_15 
REMARK   10  A    between atoms: C_23  and  C_24 
ROOT
HETATM    1  C   UNL     1      40.609 -13.085   4.882  1.00  0.00     0.255 C 
HETATM    2  N   UNL     1      40.920 -13.279   3.561  1.00  0.00    -0.354 N 
HETATM    3  O   UNL     1      39.462 -13.131   5.311  1.00  0.00    -0.268 OA
HETATM    4  H   UNL     1      41.894 -13.303   3.287  1.00  0.00     0.162 HD
ENDROOT
BRANCH   2   5
HETATM    5  C   UNL     1      39.945 -13.801   2.621  1.00  0.00     0.156 C 
BRANCH   5   6
HETATM    6  C   UNL     1      40.029 -15.322   2.483  1.00  0.00     0.160 C 
BRANCH   6   7
HETATM    7  O   UNL     1      39.863 -15.919   3.781  1.00  0.00    -0.392 OA
HETATM    8  H   UNL     1      40.701 -16.387   3.963  1.00  0.00     0.210 HD
ENDBRANCH   6   7
BRANCH   6   9
HETATM    9  C   UNL     1      41.365 -15.772   1.885  1.00  0.00     0.209 C 
BRANCH   9  10
HETATM   10  O   UNL     1      42.368 -15.587   2.892  1.00  0.00    -0.349 OA
BRANCH  10  11
HETATM   11  C   UNL     1      43.010 -16.712   3.332  1.00  0.00     0.069 A 
HETATM   12  C   UNL     1      42.930 -17.806   2.465  1.00  0.00     0.043 A 
HETATM   13  C   UNL     1      43.537 -19.027   2.786  1.00  0.00    -0.059 A 
HETATM   14  C   UNL     1      43.444 -20.201   1.857  1.00  0.00     0.048 C 
HETATM   15  C   UNL     1      44.209 -19.150   4.006  1.00  0.00     0.007 A 
HETATM   16  C   UNL     1      44.289 -18.064   4.877  1.00  0.00     0.003 A 
HETATM   17  C   UNL     1      43.694 -16.846   4.540  1.00  0.00     0.037 A 
ENDBRANCH  10  11
ENDBRANCH   9  10
ENDBRANCH   6   9
ENDBRANCH   5   6
ENDBRANCH   2   5
BRANCH   1  18
HETATM   18  C   UNL     1      41.726 -12.729   5.728  1.00  0.00     0.075 A 
HETATM   19  C   UNL     1      42.623 -13.675   6.272  1.00  0.00     0.158 A 
HETATM   20  N   UNL     1      43.626 -13.117   6.940  1.00  0.00    -0.183 NA
HETATM   21  N   UNL     1      43.437 -11.794   6.759  1.00  0.00    -0.268 N 
HETATM   22  C   UNL     1      42.261 -11.496   6.089  1.00  0.00     0.052 A 
BRANCH  21  23
HETATM   23  C   UNL     1      44.479 -10.873   7.220  1.00  0.00     0.106 C 
HETATM   24  C   UNL     1      45.859 -11.245   6.670  1.00  0.00     0.034 C 
BRANCH  23  25
HETATM   25  C   UNL     1      44.457 -10.667   8.746  1.00  0.00     0.022 C 
HETATM   26  C   UNL     1      45.421  -9.620   9.290  1.00  0.00     0.007 C 
ENDBRANCH  23  25
ENDBRANCH  21  23
BRANCH  22  27
HETATM   27  C   UNL     1      41.787 -10.075   5.766  1.00  0.00     0.038 A 
HETATM   28  C   UNL     1      41.773  -9.555   4.348  1.00  0.00     0.011 A 
HETATM   29  C   UNL     1      40.483  -9.841   5.040  1.00  0.00     0.011 A 
ENDBRANCH  22  27
ENDBRANCH   1  18
TORSDOF 10
ENDMDL
MODEL 5
REMARK VINA RESULT:      -7.1      2.404      5.570
REMARK  10 active torsions:
REMARK  status: ('A' for Active; 'I' for Inactive)
REMARK    1  A    between atoms: C_2  and  C_3 
REMARK    2  A    between atoms: C_3  and  N_4 
REMARK    3  A    between atoms: C_7  and  C_8 
REMARK       I    between atoms: C_8  and  N_9 
REMARK    4  A    between atoms: N_9  and  C_10 
REMARK    5  A    between atoms: C_10  and  C_11 
REMARK    6  A    between atoms: C_11  and  O_12 
REMARK    7  A    between atoms: C_11  and  C_13 
REMARK    8  A    between atoms: C_13  and  O_14 
REMARK    9  A    between atoms: O_14  and  C_15 
REMARK   10  A    between atoms: C_23  and  C_24 
ROOT
HETATM    1  C   UNL     1      42.219 -12.574   2.923  1.00  0.00     0.255 C 
HETATM    2  N   UNL     1      41.392 -12.517   4.016  1.00  0.00    -0.354 N 
HETATM    3  O   UNL     1      43.426 -12.767   3.009  1.00  0.00    -0.268 OA
HETATM    4  H   UNL     1      40.395 -12.431   3.869  1.00  0.00     0.162 HD
ENDROOT
BRANCH   2   5
HETATM    5  C   UNL     1      41.845 -12.932   5.331  1.00  0.00     0.156 C 
BRANCH   5   6
HETATM    6  C   UNL     1      41.184 -14.233   5.788  1.00  0.00     0.160 C 
BRANCH   6   7
HETATM    7  O   UNL     1      40.222 -13.934   6.813  1.00  0.00    -0.392 OA
HETATM    8  H   UNL     1      40.709 -13.999   7.658  1.00  0.00     0.210 HD
ENDBRANCH   6   7
BRANCH   6   9
HETATM    9  C   UNL     1      42.206 -15.238   6.329  1.00  0.00     0.209 C 
BRANCH   9  10
HETATM   10  O   UNL     1      43.327 -15.231   5.436  1.00  0.00    -0.349 OA
BRANCH  10  11
HETATM   11  C   UNL     1      43.412 -16.271   4.552  1.00  0.00     0.069 A 
HETATM   12  C   UNL     1      43.777 -17.494   5.124  1.00  0.00     0.043 A 
HETATM   13  C   UNL     1      43.909 -18.647   4.340  1.00  0.00    -0.059 A 
HETATM   14  C   UNL     1      44.307 -19.956   4.954  1.00  0.00     0.048 C 
HETATM   15  C   UNL     1      43.693 -18.557   2.961  1.00  0.00     0.007 A 
HETATM   16  C   UNL     1      43.332 -17.340   2.384  1.00  0.00     0.003 A 
HETATM   17  C   UNL     1      43.188 -16.199   3.177  1.00  0.00     0.037 A 
ENDBRANCH  10  11
ENDBRANCH   9  10
ENDBRANCH   6   9
ENDBRANCH   5   6
ENDBRANCH   2   5
BRANCH   1  18
HETATM   18  C   UNL     1      41.579 -12.297   1.656  1.00  0.00     0.075 A 
HETATM   19  C   UNL     1      41.464 -11.000   1.109  1.00  0.00     0.158 A 
HETATM   20  N   UNL     1      40.924 -10.994  -0.104  1.00  0.00    -0.183 NA
HETATM   21  N   UNL     1      40.765 -12.301  -0.393  1.00  0.00    -0.268 N 
HETATM   22  C   UNL     1      41.082 -13.137   0.665  1.00  0.00     0.052 A 
BRANCH  21  23
HETATM   23  C   UNL     1      40.351 -12.668  -1.750  1.00  0.00     0.106 C 
HETATM   24  C   UNL     1      41.304 -12.109  -2.812  1.00  0.00     0.034 C 
BRANCH  23  25
HETATM   25  C   UNL     1      38.868 -12.354  -2.024  1.00  0.00     0.022 C 
HETATM   26  C   UNL     1      38.597 -11.165  -2.936  1.00  0.00     0.007 C 
ENDBRANCH  23  25
ENDBRANCH  21  23
BRANCH  22  27
HETATM   27  C   UNL     1      40.975 -14.666   0.620  1.00  0.00     0.038 A 
HETATM   28  C   UNL     1      40.082 -15.419   1.577  1.00  0.00     0.011 A 
HETATM   29  C   UNL     1      39.714 -15.339   0.134  1.00  0.00     0.011 A 
ENDBRANCH  22  27
ENDBRANCH   1  18
TORSDOF 10
ENDMDL
MODEL 6
REMARK VINA RESULT:      -7.0      2.514      4.080
REMARK  10 active torsions:
REMARK  status: ('A' for Active; 'I' for Inactive)
REMARK    1  A    between atoms: C_2  and  C_3 
REMARK    2  A    between atoms: C_3  and  N_4 
REMARK    3  A    between atoms: C_7  and  C_8 
REMARK       I    between atoms: C_8  and  N_9 
REMARK    4  A    between atoms: N_9  and  C_10 
REMARK    5  A    between atoms: C_10  and  C_11 
REMARK    6  A    between atoms: C_11  and  O_12 
REMARK    7  A    between atoms: C_11  and  C_13 
REMARK    8  A    between atoms: C_13  and  O_14 
REMARK    9  A    between atoms: O_14  and  C_15 
REMARK   10  A    between atoms: C_23  and  C_24 
ROOT
HETATM    1  C   UNL     1      42.327 -10.768   5.705  1.00  0.00     0.255 C 
HETATM    2  N   UNL     1      42.241 -12.137   5.722  1.00  0.00    -0.354 N 
HETATM    3  O   UNL     1      42.288 -10.111   4.671  1.00  0.00    -0.268 OA
HETATM    4  H   UNL     1      42.204 -12.612   6.615  1.00  0.00     0.162 HD
ENDROOT
BRANCH   2   5
HETATM    5  C   UNL     1      41.845 -12.887   4.545  1.00  0.00     0.156 C 
BRANCH   5   6
HETATM    6  C   UNL     1      43.043 -13.300   3.690  1.00  0.00     0.160 C 
BRANCH   6   7
HETATM    7  O   UNL     1      43.515 -12.155   2.960  1.00  0.00    -0.392 OA
HETATM    8  H   UNL     1      43.593 -11.438   3.619  1.00  0.00     0.210 HD
ENDBRANCH   6   7
BRANCH   6   9
HETATM    9  C   UNL     1      42.687 -14.418   2.705  1.00  0.00     0.209 C 
BRANCH   9  10
HETATM   10  O   UNL     1      42.075 -15.472   3.457  1.00  0.00    -0.349 OA
BRANCH  10  11
HETATM   11  C   UNL     1      42.852 -16.566   3.725  1.00  0.00     0.069 A 
HETATM   12  C   UNL     1      42.762 -17.591   2.778  1.00  0.00     0.043 A 
HETATM   13  C   UNL     1      43.497 -18.774   2.923  1.00  0.00    -0.059 A 
HETATM   14  C   UNL     1      43.394 -19.875   1.911  1.00  0.00     0.048 C 
HETATM   15  C   UNL     1      44.313 -18.931   4.049  1.00  0.00     0.007 A 
HETATM   16  C   UNL     1      44.405 -17.915   4.998  1.00  0.00     0.003 A 
HETATM   17  C   UNL     1      43.679 -16.732   4.836  1.00  0.00     0.037 A 
ENDBRANCH  10  11
ENDBRANCH   9  10
ENDBRANCH   6   9
ENDBRANCH   5   6
ENDBRANCH   2   5
BRANCH   1  18
HETATM   18  C   UNL     1      42.561 -10.153   6.992  1.00  0.00     0.075 A 
HETATM   19  C   UNL     1      41.607  -9.352   7.657  1.00  0.00     0.158 A 
HETATM   20  N   UNL     1      42.000  -8.969   8.866  1.00  0.00    -0.183 NA
HETATM   21  N   UNL     1      43.182  -9.596   9.034  1.00  0.00    -0.268 N 
HETATM   22  C   UNL     1      43.606 -10.274   7.902  1.00  0.00     0.052 A 
BRANCH  21  23
HETATM   23  C   UNL     1      43.820  -9.536  10.351  1.00  0.00     0.106 C 
HETATM   24  C   UNL     1      43.567 -10.806  11.170  1.00  0.00     0.034 C 
BRANCH  23  25
HETATM   25  C   UNL     1      43.495  -8.236  11.111  1.00  0.00     0.022 C 
HETATM   26  C   UNL     1      43.341  -8.368  12.620  1.00  0.00     0.007 C 
ENDBRANCH  23  25
ENDBRANCH  21  23
BRANCH  22  27
HETATM   27  C   UNL     1      44.921 -11.056   7.806  1.00  0.00     0.038 A 
HETATM   28  C   UNL     1      45.720 -11.096   6.525  1.00  0.00     0.011 A 
HETATM   29  C   UNL     1      46.243 -10.336   7.697  1.00  0.00     0.011 A 
ENDBRANCH  22  27
ENDBRANCH   1  18
TORSDOF 10
ENDMDL
MODEL 7
REMARK VINA RESULT:      -6.9      2.319      7.211
REMARK  10 active torsions:
REMARK  status: ('A' for Active; 'I' for Inactive)
REMARK    1  A    between atoms: C_2  and  C_3 
REMARK    2  A    between atoms: C_3  and  N_4 
REMARK    3  A    between atoms: C_7  and  C_8 
REMARK       I    between atoms: C_8  and  N_9 
REMARK    4  A    between atoms: N_9  and  C_10 
REMARK    5  A    between atoms: C_10  and  C_11 
REMARK    6  A    between atoms: C_11  and  O_12 
REMARK    7  A    between atoms: C_11  and  C_13 
REMARK    8  A    between atoms: C_13  and  O_14 
REMARK    9  A    between atoms: O_14  and  C_15 
REMARK   10  A    between atoms: C_23  and  C_24 
ROOT
HETATM    1  C   UNL     1      41.234 -13.678   3.954  1.00  0.00     0.255 C 
HETATM    2  N   UNL     1      42.049 -13.017   4.837  1.00  0.00    -0.354 N 
HETATM    3  O   UNL     1      40.117 -13.277   3.648  1.00  0.00    -0.268 OA
HETATM    4  H   UNL     1      42.988 -13.362   4.987  1.00  0.00     0.162 HD
ENDROOT
BRANCH   2   5
HETATM    5  C   UNL     1      41.752 -11.666   5.277  1.00  0.00     0.156 C 
BRANCH   5   6
HETATM    6  C   UNL     1      42.906 -10.700   5.005  1.00  0.00     0.160 C 
BRANCH   6   7
HETATM    7  O   UNL     1      42.766 -10.167   3.676  1.00  0.00    -0.392 OA
HETATM    8  H   UNL     1      42.558 -10.933   3.107  1.00  0.00     0.210 HD
ENDBRANCH   6   7
BRANCH   6   9
HETATM    9  C   UNL     1      44.270 -11.384   5.137  1.00  0.00     0.209 C 
BRANCH   9  10
HETATM   10  O   UNL     1      44.351 -11.924   6.461  1.00  0.00    -0.349 OA
BRANCH  10  11
HETATM   11  C   UNL     1      44.792 -11.079   7.442  1.00  0.00     0.069 A 
HETATM   12  C   UNL     1      44.052 -11.126   8.628  1.00  0.00     0.043 A 
HETATM   13  C   UNL     1      44.384 -10.313   9.719  1.00  0.00    -0.059 A 
HETATM   14  C   UNL     1      43.585 -10.360  10.987  1.00  0.00     0.048 C 
HETATM   15  C   UNL     1      45.460  -9.426   9.601  1.00  0.00     0.007 A 
HETATM   16  C   UNL     1      46.199  -9.372   8.421  1.00  0.00     0.003 A 
HETATM   17  C   UNL     1      45.870 -10.199   7.344  1.00  0.00     0.037 A 
ENDBRANCH  10  11
ENDBRANCH   9  10
ENDBRANCH   6   9
ENDBRANCH   5   6
ENDBRANCH   2   5
BRANCH   1  18
HETATM   18  C   UNL     1      41.749 -14.942   3.475  1.00  0.00     0.075 A 
HETATM   19  C   UNL     1      42.458 -15.082   2.261  1.00  0.00     0.158 A 
HETATM   20  N   UNL     1      42.916 -16.313   2.067  1.00  0.00    -0.183 NA
HETATM   21  N   UNL     1      42.585 -16.964   3.200  1.00  0.00    -0.268 N 
HETATM   22  C   UNL     1      41.815 -16.200   4.063  1.00  0.00     0.052 A 
BRANCH  21  23
HETATM   23  C   UNL     1      43.104 -18.319   3.402  1.00  0.00     0.106 C 
HETATM   24  C   UNL     1      44.459 -18.314   4.117  1.00  0.00     0.034 C 
BRANCH  23  25
HETATM   25  C   UNL     1      43.090 -19.159   2.111  1.00  0.00     0.022 C 
HETATM   26  C   UNL     1      43.896 -20.451   2.149  1.00  0.00     0.007 C 
ENDBRANCH  23  25
ENDBRANCH  21  23
BRANCH  22  27
HETATM   27  C   UNL     1      41.283 -16.694   5.413  1.00  0.00     0.038 A 
HETATM   28  C   UNL     1      42.154 -16.701   6.646  1.00  0.00     0.011 A 
HETATM   29  C   UNL     1      41.028 -15.728   6.544  1.00  0.00     0.011 A 
ENDBRANCH  22  27
ENDBRANCH   1  18
TORSDOF 10
ENDMDL
MODEL 8
REMARK VINA RESULT:      -6.9      1.986      2.848
REMARK  10 active torsions:
REMARK  status: ('A' for Active; 'I' for Inactive)
REMARK    1  A    between atoms: C_2  and  C_3 
REMARK    2  A    between atoms: C_3  and  N_4 
REMARK    3  A    between atoms: C_7  and  C_8 
REMARK       I    between atoms: C_8  and  N_9 
REMARK    4  A    between atoms: N_9  and  C_10 
REMARK    5  A    between atoms: C_10  and  C_11 
REMARK    6  A    between atoms: C_11  and  O_12 
REMARK    7  A    between atoms: C_11  and  C_13 
REMARK    8  A    between atoms: C_13  and  O_14 
REMARK    9  A    between atoms: O_14  and  C_15 
REMARK   10  A    between atoms: C_23  and  C_24 
ROOT
HETATM    1  C   UNL     1      40.898 -10.984   5.217  1.00  0.00     0.255 C 
HETATM    2  N   UNL     1      40.310 -12.201   5.449  1.00  0.00    -0.354 N 
HETATM    3  O   UNL     1      40.863 -10.422   4.128  1.00  0.00    -0.268 OA
HETATM    4  H   UNL     1      40.311 -12.572   6.390  1.00  0.00     0.162 HD
ENDROOT
BRANCH   2   5
HETATM    5  C   UNL     1      39.390 -12.792   4.494  1.00  0.00     0.156 C 
BRANCH   5   6
HETATM    6  C   UNL     1      40.108 -13.654   3.455  1.00  0.00     0.160 C 
BRANCH   6   7
HETATM    7  O   UNL     1      39.129 -14.267   2.599  1.00  0.00    -0.392 OA
HETATM    8  H   UNL     1      38.976 -15.157   2.971  1.00  0.00     0.210 HD
ENDBRANCH   6   7
BRANCH   6   9
HETATM    9  C   UNL     1      40.966 -14.743   4.105  1.00  0.00     0.209 C 
BRANCH   9  10
HETATM   10  O   UNL     1      41.562 -15.506   3.048  1.00  0.00    -0.349 OA
BRANCH  10  11
HETATM   11  C   UNL     1      42.482 -16.448   3.415  1.00  0.00     0.069 A 
HETATM   12  C   UNL     1      42.492 -17.596   2.617  1.00  0.00     0.043 A 
HETATM   13  C   UNL     1      43.379 -18.649   2.876  1.00  0.00    -0.059 A 
HETATM   14  C   UNL     1      43.382 -19.882   2.023  1.00  0.00     0.048 C 
HETATM   15  C   UNL     1      44.248 -18.549   3.968  1.00  0.00     0.007 A 
HETATM   16  C   UNL     1      44.241 -17.409   4.770  1.00  0.00     0.003 A 
HETATM   17  C   UNL     1      43.363 -16.358   4.493  1.00  0.00     0.037 A 
ENDBRANCH  10  11
ENDBRANCH   9  10
ENDBRANCH   6   9
ENDBRANCH   5   6
ENDBRANCH   2   5
BRANCH   1  18
HETATM   18  C   UNL     1      41.648 -10.444   6.330  1.00  0.00     0.075 A 
HETATM   19  C   UNL     1      41.106  -9.537   7.267  1.00  0.00     0.158 A 
HETATM   20  N   UNL     1      41.943  -9.248   8.256  1.00  0.00    -0.183 NA
HETATM   21  N   UNL     1      43.010 -10.038   8.016  1.00  0.00    -0.268 N 
HETATM   22  C   UNL     1      42.915 -10.736   6.823  1.00  0.00     0.052 A 
BRANCH  21  23
HETATM   23  C   UNL     1      44.066 -10.106   9.029  1.00  0.00     0.106 C 
HETATM   24  C   UNL     1      43.496 -10.228  10.446  1.00  0.00     0.034 C 
BRANCH  23  25
HETATM   25  C   UNL     1      45.108  -8.982   8.877  1.00  0.00     0.022 C 
HETATM   26  C   UNL     1      46.329  -9.317   8.030  1.00  0.00     0.007 C 
ENDBRANCH  23  25
ENDBRANCH  21  23
BRANCH  22  27
HETATM   27  C   UNL     1      43.991 -11.691   6.294  1.00  0.00     0.038 A 
HETATM   28  C   UNL     1      43.911 -13.179   6.542  1.00  0.00     0.011 A 
HETATM   29  C   UNL     1      43.689 -12.648   5.166  1.00  0.00     0.011 A 
ENDBRANCH  22  27
ENDBRANCH   1  18
TORSDOF 10
ENDMDL
MODEL 9
REMARK VINA RESULT:      -6.7      2.431      7.277
REMARK  10 active torsions:
REMARK  status: ('A' for Active; 'I' for Inactive)
REMARK    1  A    between atoms: C_2  and  C_3 
REMARK    2  A    between atoms: C_3  and  N_4 
REMARK    3  A    between atoms: C_7  and  C_8 
REMARK       I    between atoms: C_8  and  N_9 
REMARK    4  A    between atoms: N_9  and  C_10 
REMARK    5  A    between atoms: C_10  and  C_11 
REMARK    6  A    between atoms: C_11  and  O_12 
REMARK    7  A    between atoms: C_11  and  C_13 
REMARK    8  A    between atoms: C_13  and  O_14 
REMARK    9  A    between atoms: O_14  and  C_15 
REMARK   10  A    between atoms: C_23  and  C_24 
ROOT
HETATM    1  C   UNL     1      42.631 -14.180   4.432  1.00  0.00     0.255 C 
HETATM    2  N   UNL     1      41.307 -14.031   4.752  1.00  0.00    -0.354 N 
HETATM    3  O   UNL     1      43.321 -13.261   4.003  1.00  0.00    -0.268 OA
HETATM    4  H   UNL     1      40.816 -14.810   5.173  1.00  0.00     0.162 HD
ENDROOT
BRANCH   2   5
HETATM    5  C   UNL     1      40.691 -12.720   4.846  1.00  0.00     0.156 C 
BRANCH   5   6
HETATM    6  C   UNL     1      40.831 -12.112   6.242  1.00  0.00     0.160 C 
BRANCH   6   7
HETATM    7  O   UNL     1      39.638 -12.389   6.995  1.00  0.00    -0.392 OA
HETATM    8  H   UNL     1      39.182 -13.104   6.510  1.00  0.00     0.210 HD
ENDBRANCH   6   7
BRANCH   6   9
HETATM    9  C   UNL     1      41.058 -10.598   6.190  1.00  0.00     0.209 C 
BRANCH   9  10
HETATM   10  O   UNL     1      42.376 -10.382   5.670  1.00  0.00    -0.349 OA
BRANCH  10  11
HETATM   11  C   UNL     1      43.410 -10.484   6.558  1.00  0.00     0.069 A 
HETATM   12  C   UNL     1      43.271  -9.701   7.709  1.00  0.00     0.043 A 
HETATM   13  C   UNL     1      44.255  -9.701   8.705  1.00  0.00    -0.059 A 
HETATM   14  C   UNL     1      44.107  -8.854   9.934  1.00  0.00     0.048 C 
HETATM   15  C   UNL     1      45.402 -10.482   8.526  1.00  0.00     0.007 A 
HETATM   16  C   UNL     1      45.548 -11.262   7.380  1.00  0.00     0.003 A 
HETATM   17  C   UNL     1      44.553 -11.268   6.399  1.00  0.00     0.037 A 
ENDBRANCH  10  11
ENDBRANCH   9  10
ENDBRANCH   6   9
ENDBRANCH   5   6
ENDBRANCH   2   5
BRANCH   1  18
HETATM   18  C   UNL     1      43.143 -15.527   4.549  1.00  0.00     0.075 A 
HETATM   19  C   UNL     1      43.766 -16.025   5.715  1.00  0.00     0.158 A 
HETATM   20  N   UNL     1      44.072 -17.314   5.631  1.00  0.00    -0.183 NA
HETATM   21  N   UNL     1      43.568 -17.688   4.437  1.00  0.00    -0.268 N 
HETATM   22  C   UNL     1      43.052 -16.630   3.706  1.00  0.00     0.052 A 
BRANCH  21  23
HETATM   23  C   UNL     1      43.571 -19.113   4.097  1.00  0.00     0.106 C 
HETATM   24  C   UNL     1      44.136 -19.974   5.232  1.00  0.00     0.034 C 
BRANCH  23  25
HETATM   25  C   UNL     1      44.217 -19.395   2.727  1.00  0.00     0.022 C 
HETATM   26  C   UNL     1      43.443 -20.331   1.807  1.00  0.00     0.007 C 
ENDBRANCH  23  25
ENDBRANCH  21  23
BRANCH  22  27
HETATM   27  C   UNL     1      42.434 -16.765   2.310  1.00  0.00     0.038 A 
HETATM   28  C   UNL     1      41.016 -16.323   2.033  1.00  0.00     0.011 A 
HETATM   29  C   UNL     1      42.155 -15.545   1.466  1.00  0.00     0.011 A 
ENDBRANCH  22  27
ENDBRANCH   1  18
TORSDOF 10
ENDMDL
MODEL 10
REMARK VINA RESULT:      -6.7      2.646      6.166
REMARK  10 active torsions:
REMARK  status: ('A' for Active; 'I' for Inactive)
REMARK    1  A    between atoms: C_2  and  C_3 
REMARK    2  A    between atoms: C_3  and  N_4 
REMARK    3  A    between atoms: C_7  and  C_8 
REMARK       I    between atoms: C_8  and  N_9 
REMARK    4  A    between atoms: N_9  and  C_10 
REMARK    5  A    between atoms: C_10  and  C_11 
REMARK    6  A    between atoms: C_11  and  O_12 
REMARK    7  A    between atoms: C_11  and  C_13 
REMARK    8  A    between atoms: C_13  and  O_14 
REMARK    9  A    between atoms: O_14  and  C_15 
REMARK   10  A    between atoms: C_23  and  C_24 
ROOT
HETATM    1  C   UNL     1      41.797 -11.826   2.403  1.00  0.00     0.255 C 
HETATM    2  N   UNL     1      41.172 -12.205   3.563  1.00  0.00    -0.354 N 
HETATM    3  O   UNL     1      42.697 -10.993   2.373  1.00  0.00    -0.268 OA
HETATM    4  H   UNL     1      40.490 -12.952   3.528  1.00  0.00     0.162 HD
ENDROOT
BRANCH   2   5
HETATM    5  C   UNL     1      41.699 -11.838   4.864  1.00  0.00     0.156 C 
BRANCH   5   6
HETATM    6  C   UNL     1      41.581 -12.975   5.880  1.00  0.00     0.160 C 
BRANCH   6   7
HETATM    7  O   UNL     1      42.680 -12.892   6.804  1.00  0.00    -0.392 OA
HETATM    8  H   UNL     1      43.459 -13.225   6.315  1.00  0.00     0.210 HD
ENDBRANCH   6   7
BRANCH   6   9
HETATM    9  C   UNL     1      41.587 -14.350   5.206  1.00  0.00     0.209 C 
BRANCH   9  10
HETATM   10  O   UNL     1      42.940 -14.637   4.832  1.00  0.00    -0.349 OA
BRANCH  10  11
HETATM   11  C   UNL     1      43.146 -15.771   4.096  1.00  0.00     0.069 A 
HETATM   12  C   UNL     1      43.517 -16.893   4.844  1.00  0.00     0.043 A 
HETATM   13  C   UNL     1      43.765 -18.124   4.224  1.00  0.00    -0.059 A 
HETATM   14  C   UNL     1      44.170 -19.324   5.027  1.00  0.00     0.048 C 
HETATM   15  C   UNL     1      43.661 -18.215   2.832  1.00  0.00     0.007 A 
HETATM   16  C   UNL     1      43.294 -17.100   2.080  1.00  0.00     0.003 A 
HETATM   17  C   UNL     1      43.034 -15.880   2.710  1.00  0.00     0.037 A 
ENDBRANCH  10  11
ENDBRANCH   9  10
ENDBRANCH   6   9
ENDBRANCH   5   6
ENDBRANCH   2   5
BRANCH   1  18
HETATM   18  C   UNL     1      41.258 -12.411   1.196  1.00  0.00     0.075 A 
HETATM   19  C   UNL     1      41.026 -13.795   1.039  1.00  0.00     0.158 A 
HETATM   20  N   UNL     1      40.440 -14.097  -0.113  1.00  0.00    -0.183 NA
HETATM   21  N   UNL     1      40.204 -12.896  -0.679  1.00  0.00    -0.268 N 
HETATM   22  C   UNL     1      40.740 -11.839   0.039  1.00  0.00     0.052 A 
BRANCH  21  23
HETATM   23  C   UNL     1      39.395 -12.849  -1.900  1.00  0.00     0.106 C 
HETATM   24  C   UNL     1      37.909 -12.630  -1.596  1.00  0.00     0.034 C 
BRANCH  23  25
HETATM   25  C   UNL     1      39.665 -14.040  -2.838  1.00  0.00     0.022 C 
HETATM   26  C   UNL     1      38.451 -14.883  -3.208  1.00  0.00     0.007 C 
ENDBRANCH  23  25
ENDBRANCH  21  23
BRANCH  22  27
HETATM   27  C   UNL     1      40.639 -10.369  -0.382  1.00  0.00     0.038 A 
HETATM   28  C   UNL     1      41.872  -9.516  -0.561  1.00  0.00     0.011 A 
HETATM   29  C   UNL     1      41.081  -9.926  -1.756  1.00  0.00     0.011 A 
ENDBRANCH  22  27
ENDBRANCH   1  18
TORSDOF 10
ENDMDL
