MODEL 1
REMARK VINA RESULT:      -8.1      0.000      0.000
REMARK  7 active torsions:
REMARK  status: ('A' for Active; 'I' for Inactive)
REMARK    1  A    between atoms: C_6  and  N_7 
REMARK       I    between atoms: N_7  and  C_8 
REMARK       I    between atoms: C_8  and  N_9 
REMARK    2  A    between atoms: N_9  and  C_10 
REMARK    3  A    between atoms: C_10  and  C_11 
REMARK    4  A    between atoms: C_11  and  O_12 
REMARK    5  A    between atoms: C_11  and  C_13 
REMARK    6  A    between atoms: C_13  and  N_14 
REMARK       I    between atoms: N_14  and  C_15 
REMARK       I    between atoms: C_15  and  N_16 
REMARK    7  A    between atoms: N_16  and  C_17 
ROOT
HETATM    1  C   UNL     1      39.230 -12.587   5.268  1.00  0.00     0.153 C 
ENDROOT
BRANCH   1   2
HETATM    2  C   UNL     1      39.923 -12.858   3.920  1.00  0.00     0.157 C 
BRANCH   2   3
HETATM    3  N   UNL     1      41.226 -13.483   4.085  1.00  0.00    -0.340 N 
HETATM    4  C   UNL     1      41.387 -14.847   3.998  1.00  0.00     0.320 C 
HETATM    5  N   UNL     1      42.721 -15.185   3.945  1.00  0.00    -0.306 N 
HETATM    6  O   UNL     1      40.437 -15.615   3.935  1.00  0.00    -0.247 OA
HETATM    7  H   UNL     1      43.307 -14.459   3.562  1.00  0.00     0.171 HD
HETATM    8  H   UNL     1      41.995 -12.903   3.783  1.00  0.00     0.164 HD
BRANCH   5   9
HETATM    9  C   UNL     1      43.233 -16.502   3.874  1.00  0.00     0.077 A 
HETATM   10  C   UNL     1      43.962 -17.188   4.853  1.00  0.00     0.152 A 
HETATM   11  N   UNL     1      44.408 -18.464   4.710  1.00  0.00    -0.247 NA
HETATM   12 CL   UNL     1      44.631 -16.457   6.263  1.00  0.00    -0.060 Cl
HETATM   13  C   UNL     1      44.134 -19.087   3.548  1.00  0.00     0.118 A 
HETATM   14  C   UNL     1      43.462 -18.487   2.499  1.00  0.00     0.022 A 
HETATM   15  C   UNL     1      43.017 -17.178   2.664  1.00  0.00     0.034 A 
ENDBRANCH   5   9
ENDBRANCH   2   3
ENDBRANCH   1   2
BRANCH   1  16
HETATM   16  O   UNL     1      39.654 -13.599   6.198  1.00  0.00    -0.392 OA
HETATM   17  H   UNL     1      40.446 -14.042   5.822  1.00  0.00     0.210 HD
ENDBRANCH   1  16
BRANCH   1  18
HETATM   18  C   UNL     1      39.496 -11.162   5.790  1.00  0.00     0.157 C 
BRANCH  18  19
HETATM   19  N   UNL     1      40.515 -11.128   6.835  1.00  0.00    -0.340 N 
HETATM   20  C   UNL     1      41.746 -10.554   6.615  1.00  0.00     0.320 C 
HETATM   21  N   UNL     1      42.495 -10.541   7.767  1.00  0.00    -0.306 N 
HETATM   22  O   UNL     1      42.055 -10.086   5.529  1.00  0.00    -0.247 OA
HETATM   23  H   UNL     1      41.926 -10.483   8.599  1.00  0.00     0.171 HD
HETATM   24  H   UNL     1      40.459 -11.825   7.565  1.00  0.00     0.164 HD
BRANCH  21  25
HETATM   25  C   UNL     1      43.814 -10.036   7.873  1.00  0.00     0.077 A 
HETATM   26  C   UNL     1      44.202  -8.746   8.262  1.00  0.00     0.152 A 
HETATM   27 CL   UNL     1      43.122  -7.412   8.424  1.00  0.00    -0.060 Cl
HETATM   28  N   UNL     1      45.495  -8.342   8.362  1.00  0.00    -0.247 NA
HETATM   29  C   UNL     1      46.449  -9.241   8.054  1.00  0.00     0.118 A 
HETATM   30  C   UNL     1      46.175 -10.523   7.613  1.00  0.00     0.022 A 
HETATM   31  C   UNL     1      44.842 -10.917   7.514  1.00  0.00     0.034 A 
ENDBRANCH  21  25
ENDBRANCH  18  19
ENDBRANCH   1  18
TORSDOF 7
ENDMDL
MODEL 2
REMARK VINA RESULT:      -8.1      3.921      7.614
REMARK  7 active torsions:
REMARK  status: ('A' for Active; 'I' for Inactive)
REMARK    1  A    between atoms: C_6  and  N_7 
REMARK       I    between atoms: N_7  and  C_8 
REMARK       I    between atoms: C_8  and  N_9 
REMARK    2  A    between atoms: N_9  and  C_10 
REMARK    3  A    between atoms: C_10  and  C_11 
REMARK    4  A    between atoms: C_11  and  O_12 
REMARK    5  A    between atoms: C_11  and  C_13 
REMARK    6  A    between atoms: C_13  and  N_14 
REMARK       I    between atoms: N_14  and  C_15 
REMARK       I    between atoms: C_15  and  N_16 
REMARK    7  A    between atoms: N_16  and  C_17 
ROOT
HETATM    1  C   UNL     1      43.378 -13.632   6.898  1.00  0.00     0.153 C 
ENDROOT
BRANCH   1   2
HETATM    2  C   UNL     1      42.195 -13.215   6.005  1.00  0.00     0.157 C 
BRANCH   2   3
HETATM    3  N   UNL     1      42.384 -13.607   4.618  1.00  0.00    -0.340 N 
HETATM    4  C   UNL     1      41.400 -13.418   3.675  1.00  0.00     0.320 C 
HETATM    5  N   UNL     1      41.884 -13.637   2.405  1.00  0.00    -0.306 N 
HETATM    6  O   UNL     1      40.269 -13.060   3.973  1.00  0.00    -0.247 OA
HETATM    7  H   UNL     1      42.876 -13.476   2.316  1.00  0.00     0.171 HD
HETATM    8  H   UNL     1      43.344 -13.551   4.308  1.00  0.00     0.164 HD
BRANCH   5   9
HETATM    9  C   UNL     1      41.130 -13.548   1.210  1.00  0.00     0.077 A 
HETATM   10  C   UNL     1      40.201 -14.472   0.718  1.00  0.00     0.152 A 
HETATM   11  N   UNL     1      39.505 -14.303  -0.438  1.00  0.00    -0.247 NA
HETATM   12 CL   UNL     1      39.986 -16.066   1.338  1.00  0.00    -0.060 Cl
HETATM   13  C   UNL     1      39.742 -13.180  -1.143  1.00  0.00     0.118 A 
HETATM   14  C   UNL     1      40.669 -12.226  -0.771  1.00  0.00     0.022 A 
HETATM   15  C   UNL     1      41.375 -12.420   0.414  1.00  0.00     0.034 A 
ENDBRANCH   5   9
ENDBRANCH   2   3
ENDBRANCH   1   2
BRANCH   1  16
HETATM   16  O   UNL     1      43.564 -12.613   7.895  1.00  0.00    -0.392 OA
HETATM   17  H   UNL     1      44.357 -12.849   8.425  1.00  0.00     0.210 HD
ENDBRANCH   1  16
BRANCH   1  18
HETATM   18  C   UNL     1      43.185 -15.030   7.516  1.00  0.00     0.157 C 
BRANCH  18  19
HETATM   19  N   UNL     1      43.961 -16.059   6.830  1.00  0.00    -0.340 N 
HETATM   20  C   UNL     1      43.392 -16.857   5.864  1.00  0.00     0.320 C 
HETATM   21  N   UNL     1      44.334 -17.671   5.283  1.00  0.00    -0.306 N 
HETATM   22  O   UNL     1      42.209 -16.769   5.568  1.00  0.00    -0.247 OA
HETATM   23  H   UNL     1      45.255 -17.258   5.280  1.00  0.00     0.171 HD
HETATM   24  H   UNL     1      44.776 -16.423   7.302  1.00  0.00     0.164 HD
BRANCH  21  25
HETATM   25  C   UNL     1      44.070 -18.624   4.268  1.00  0.00     0.077 A 
HETATM   26  C   UNL     1      43.750 -18.370   2.927  1.00  0.00     0.152 A 
HETATM   27 CL   UNL     1      43.334 -16.819   2.301  1.00  0.00    -0.060 Cl
HETATM   28  N   UNL     1      43.532 -19.343   2.003  1.00  0.00    -0.247 NA
HETATM   29  C   UNL     1      43.620 -20.620   2.419  1.00  0.00     0.118 A 
HETATM   30  C   UNL     1      43.882 -20.980   3.728  1.00  0.00     0.022 A 
HETATM   31  C   UNL     1      44.099 -19.968   4.661  1.00  0.00     0.034 A 
ENDBRANCH  21  25
ENDBRANCH  18  19
ENDBRANCH   1  18
TORSDOF 7
ENDMDL
MODEL 3
REMARK VINA RESULT:      -7.9      0.797      7.667
REMARK  7 active torsions:
REMARK  status: ('A' for Active; 'I' for Inactive)
REMARK    1  A    between atoms: C_6  and  N_7 
REMARK       I    between atoms: N_7  and  C_8 
REMARK       I    between atoms: C_8  and  N_9 
REMARK    2  A    between atoms: N_9  and  C_10 
REMARK    3  A    between atoms: C_10  and  C_11 
REMARK    4  A    between atoms: C_11  and  O_12 
REMARK    5  A    between atoms: C_11  and  C_13 
REMARK    6  A    between atoms: C_13  and  N_14 
REMARK       I    between atoms: N_14  and  C_15 
REMARK       I    between atoms: C_15  and  N_16 
REMARK    7  A    between atoms: N_16  and  C_17 
ROOT
HETATM    1  C   UNL     1      39.278 -11.956   5.163  1.00  0.00     0.153 C 
ENDROOT
BRANCH   1   2
HETATM    2  C   UNL     1      39.329 -10.784   6.161  1.00  0.00     0.157 C 
BRANCH   2   3
HETATM    3  N   UNL     1      40.439 -10.900   7.093  1.00  0.00    -0.340 N 
HETATM    4  C   UNL     1      41.676 -10.369   6.809  1.00  0.00     0.320 C 
HETATM    5  N   UNL     1      42.489 -10.387   7.921  1.00  0.00    -0.306 N 
HETATM    6  O   UNL     1      41.955  -9.913   5.709  1.00  0.00    -0.247 OA
HETATM    7  H   UNL     1      41.983 -10.364   8.793  1.00  0.00     0.171 HD
HETATM    8  H   UNL     1      40.154 -10.927   8.062  1.00  0.00     0.164 HD
BRANCH   5   9
HETATM    9  C   UNL     1      43.829  -9.935   7.967  1.00  0.00     0.077 A 
HETATM   10  C   UNL     1      44.290  -8.673   8.362  1.00  0.00     0.152 A 
HETATM   11  N   UNL     1      45.604  -8.322   8.391  1.00  0.00    -0.247 NA
HETATM   12 CL   UNL     1      43.281  -7.299   8.614  1.00  0.00    -0.060 Cl
HETATM   13  C   UNL     1      46.500  -9.251   8.005  1.00  0.00     0.118 A 
HETATM   14  C   UNL     1      46.150 -10.510   7.555  1.00  0.00     0.022 A 
HETATM   15  C   UNL     1      44.799 -10.848   7.529  1.00  0.00     0.034 A 
ENDBRANCH   5   9
ENDBRANCH   2   3
ENDBRANCH   1   2
BRANCH   1  16
HETATM   16  O   UNL     1      39.986 -11.560   3.976  1.00  0.00    -0.392 OA
HETATM   17  H   UNL     1      40.945 -11.704   4.133  1.00  0.00     0.210 HD
ENDBRANCH   1  16
BRANCH   1  18
HETATM   18  C   UNL     1      39.826 -13.264   5.765  1.00  0.00     0.157 C 
BRANCH  18  19
HETATM   19  N   UNL     1      41.039 -13.725   5.094  1.00  0.00    -0.340 N 
HETATM   20  C   UNL     1      41.341 -15.064   5.004  1.00  0.00     0.320 C 
HETATM   21  N   UNL     1      42.465 -15.265   4.240  1.00  0.00    -0.306 N 
HETATM   22  O   UNL     1      40.633 -15.922   5.514  1.00  0.00    -0.247 OA
HETATM   23  H   UNL     1      42.583 -14.556   3.531  1.00  0.00     0.171 HD
HETATM   24  H   UNL     1      41.811 -13.077   5.026  1.00  0.00     0.164 HD
BRANCH  21  25
HETATM   25  C   UNL     1      43.049 -16.527   3.969  1.00  0.00     0.077 A 
HETATM   26  C   UNL     1      43.947 -17.239   4.776  1.00  0.00     0.152 A 
HETATM   27 CL   UNL     1      44.747 -16.583   6.155  1.00  0.00    -0.060 Cl
HETATM   28  N   UNL     1      44.448 -18.460   4.457  1.00  0.00    -0.247 NA
HETATM   29  C   UNL     1      44.059 -19.000   3.286  1.00  0.00     0.118 A 
HETATM   30  C   UNL     1      43.217 -18.363   2.394  1.00  0.00     0.022 A 
HETATM   31  C   UNL     1      42.717 -17.108   2.739  1.00  0.00     0.034 A 
ENDBRANCH  21  25
ENDBRANCH  18  19
ENDBRANCH   1  18
TORSDOF 7
ENDMDL
MODEL 4
REMARK VINA RESULT:      -7.8      1.852      2.166
REMARK  7 active torsions:
REMARK  status: ('A' for Active; 'I' for Inactive)
REMARK    1  A    between atoms: C_6  and  N_7 
REMARK       I    between atoms: N_7  and  C_8 
REMARK       I    between atoms: C_8  and  N_9 
REMARK    2  A    between atoms: N_9  and  C_10 
REMARK    3  A    between atoms: C_10  and  C_11 
REMARK    4  A    between atoms: C_11  and  O_12 
REMARK    5  A    between atoms: C_11  and  C_13 
REMARK    6  A    between atoms: C_13  and  N_14 
REMARK       I    between atoms: N_14  and  C_15 
REMARK       I    between atoms: C_15  and  N_16 
REMARK    7  A    between atoms: N_16  and  C_17 
ROOT
HETATM    1  C   UNL     1      40.438 -13.299   2.646  1.00  0.00     0.153 C 
ENDROOT
BRANCH   1   2
HETATM    2  C   UNL     1      40.385 -14.473   1.651  1.00  0.00     0.157 C 
BRANCH   2   3
HETATM    3  N   UNL     1      41.599 -15.274   1.676  1.00  0.00    -0.340 N 
HETATM    4  C   UNL     1      41.746 -16.334   2.540  1.00  0.00     0.320 C 
HETATM    5  N   UNL     1      42.858 -17.080   2.223  1.00  0.00    -0.306 N 
HETATM    6  O   UNL     1      40.941 -16.566   3.433  1.00  0.00    -0.247 OA
HETATM    7  H   UNL     1      43.118 -17.025   1.250  1.00  0.00     0.171 HD
HETATM    8  H   UNL     1      42.064 -15.334   0.781  1.00  0.00     0.164 HD
BRANCH   5   9
HETATM    9  C   UNL     1      43.307 -18.226   2.923  1.00  0.00     0.077 A 
HETATM   10  C   UNL     1      43.814 -18.283   4.227  1.00  0.00     0.152 A 
HETATM   11  N   UNL     1      44.214 -19.433   4.834  1.00  0.00    -0.247 NA
HETATM   12 CL   UNL     1      44.260 -16.907   5.163  1.00  0.00    -0.060 Cl
HETATM   13  C   UNL     1      44.119 -20.572   4.122  1.00  0.00     0.118 A 
HETATM   14  C   UNL     1      43.675 -20.621   2.813  1.00  0.00     0.022 A 
HETATM   15  C   UNL     1      43.275 -19.432   2.208  1.00  0.00     0.034 A 
ENDBRANCH   5   9
ENDBRANCH   2   3
ENDBRANCH   1   2
BRANCH   1  16
HETATM   16  O   UNL     1      39.822 -13.726   3.872  1.00  0.00    -0.392 OA
HETATM   17  H   UNL     1      40.358 -14.463   4.240  1.00  0.00     0.210 HD
ENDBRANCH   1  16
BRANCH   1  18
HETATM   18  C   UNL     1      41.871 -12.775   2.861  1.00  0.00     0.157 C 
BRANCH  18  19
HETATM   19  N   UNL     1      42.237 -12.705   4.273  1.00  0.00    -0.340 N 
HETATM   20  C   UNL     1      43.122 -11.759   4.736  1.00  0.00     0.320 C 
HETATM   21  N   UNL     1      43.228 -11.813   6.104  1.00  0.00    -0.306 N 
HETATM   22  O   UNL     1      43.670 -10.965   3.984  1.00  0.00    -0.247 OA
HETATM   23  H   UNL     1      42.379 -12.134   6.547  1.00  0.00     0.171 HD
HETATM   24  H   UNL     1      42.137 -13.545   4.824  1.00  0.00     0.164 HD
BRANCH  21  25
HETATM   25  C   UNL     1      44.070 -10.985   6.888  1.00  0.00     0.077 A 
HETATM   26  C   UNL     1      43.706  -9.833   7.599  1.00  0.00     0.152 A 
HETATM   27 CL   UNL     1      42.193  -9.023   7.433  1.00  0.00    -0.060 Cl
HETATM   28  N   UNL     1      44.570  -9.102   8.350  1.00  0.00    -0.247 NA
HETATM   29  C   UNL     1      45.851  -9.515   8.394  1.00  0.00     0.118 A 
HETATM   30  C   UNL     1      46.325 -10.608   7.693  1.00  0.00     0.022 A 
HETATM   31  C   UNL     1      45.424 -11.342   6.925  1.00  0.00     0.034 A 
ENDBRANCH  21  25
ENDBRANCH  18  19
ENDBRANCH   1  18
TORSDOF 7
ENDMDL
MODEL 5
REMARK VINA RESULT:      -7.5      3.361      3.776
REMARK  7 active torsions:
REMARK  status: ('A' for Active; 'I' for Inactive)
REMARK    1  A    between atoms: C_6  and  N_7 
REMARK       I    between atoms: N_7  and  C_8 
REMARK       I    between atoms: C_8  and  N_9 
REMARK    2  A    between atoms: N_9  and  C_10 
REMARK    3  A    between atoms: C_10  and  C_11 
REMARK    4  A    between atoms: C_11  and  O_12 
REMARK    5  A    between atoms: C_11  and  C_13 
REMARK    6  A    between atoms: C_13  and  N_14 
REMARK       I    between atoms: N_14  and  C_15 
REMARK       I    between atoms: C_15  and  N_16 
REMARK    7  A    between atoms: N_16  and  C_17 
ROOT
HETATM    1  C   UNL     1      40.230 -11.016   6.345  1.00  0.00     0.153 C 
ENDROOT
BRANCH   1   2
HETATM    2  C   UNL     1      41.482 -11.736   5.811  1.00  0.00     0.157 C 
BRANCH   2   3
HETATM    3  N   UNL     1      41.242 -13.148   5.558  1.00  0.00    -0.340 N 
HETATM    4  C   UNL     1      42.164 -13.928   4.899  1.00  0.00     0.320 C 
HETATM    5  N   UNL     1      41.835 -15.262   4.987  1.00  0.00    -0.306 N 
HETATM    6  O   UNL     1      43.154 -13.455   4.358  1.00  0.00    -0.247 OA
HETATM    7  H   UNL     1      41.290 -15.491   5.804  1.00  0.00     0.171 HD
HETATM    8  H   UNL     1      40.670 -13.594   6.260  1.00  0.00     0.164 HD
BRANCH   5   9
HETATM    9  C   UNL     1      42.560 -16.328   4.403  1.00  0.00     0.077 A 
HETATM   10  C   UNL     1      43.678 -16.987   4.927  1.00  0.00     0.152 A 
HETATM   11  N   UNL     1      44.311 -18.017   4.305  1.00  0.00    -0.247 NA
HETATM   12 CL   UNL     1      44.584 -16.441   6.288  1.00  0.00    -0.060 Cl
HETATM   13  C   UNL     1      43.827 -18.408   3.110  1.00  0.00     0.118 A 
HETATM   14  C   UNL     1      42.757 -17.797   2.483  1.00  0.00     0.022 A 
HETATM   15  C   UNL     1      42.126 -16.741   3.135  1.00  0.00     0.034 A 
ENDBRANCH   5   9
ENDBRANCH   2   3
ENDBRANCH   1   2
BRANCH   1  16
HETATM   16  O   UNL     1      39.471 -11.959   7.120  1.00  0.00    -0.392 OA
HETATM   17  H   UNL     1      38.867 -12.436   6.510  1.00  0.00     0.210 HD
ENDBRANCH   1  16
BRANCH   1  18
HETATM   18  C   UNL     1      40.578  -9.744   7.142  1.00  0.00     0.157 C 
BRANCH  18  19
HETATM   19  N   UNL     1      41.363 -10.030   8.339  1.00  0.00    -0.340 N 
HETATM   20  C   UNL     1      41.172  -9.324   9.505  1.00  0.00     0.320 C 
HETATM   21  N   UNL     1      41.940  -9.838  10.522  1.00  0.00    -0.306 N 
HETATM   22  O   UNL     1      40.370  -8.404   9.579  1.00  0.00    -0.247 OA
HETATM   23  H   UNL     1      42.107 -10.828  10.419  1.00  0.00     0.171 HD
HETATM   24  H   UNL     1      42.264 -10.470   8.214  1.00  0.00     0.164 HD
BRANCH  21  25
HETATM   25  C   UNL     1      41.987  -9.327  11.842  1.00  0.00     0.077 A 
HETATM   26  C   UNL     1      41.120  -9.627  12.902  1.00  0.00     0.152 A 
HETATM   27 CL   UNL     1      39.631 -10.479  12.730  1.00  0.00    -0.060 Cl
HETATM   28  N   UNL     1      41.245  -9.112  14.152  1.00  0.00    -0.247 NA
HETATM   29  C   UNL     1      42.260  -8.253  14.368  1.00  0.00     0.118 A 
HETATM   30  C   UNL     1      43.142  -7.852  13.382  1.00  0.00     0.022 A 
HETATM   31  C   UNL     1      42.995  -8.390  12.105  1.00  0.00     0.034 A 
ENDBRANCH  21  25
ENDBRANCH  18  19
ENDBRANCH   1  18
TORSDOF 7
ENDMDL
MODEL 6
REMARK VINA RESULT:      -7.5      3.556      6.061
REMARK  7 active torsions:
REMARK  status: ('A' for Active; 'I' for Inactive)
REMARK    1  A    between atoms: C_6  and  N_7 
REMARK       I    between atoms: N_7  and  C_8 
REMARK       I    between atoms: C_8  and  N_9 
REMARK    2  A    between atoms: N_9  and  C_10 
REMARK    3  A    between atoms: C_10  and  C_11 
REMARK    4  A    between atoms: C_11  and  O_12 
REMARK    5  A    between atoms: C_11  and  C_13 
REMARK    6  A    between atoms: C_13  and  N_14 
REMARK       I    between atoms: N_14  and  C_15 
REMARK       I    between atoms: C_15  and  N_16 
REMARK    7  A    between atoms: N_16  and  C_17 
ROOT
HETATM    1  C   UNL     1      43.291 -12.672   6.656  1.00  0.00     0.153 C 
ENDROOT
BRANCH   1   2
HETATM    2  C   UNL     1      42.582 -14.038   6.605  1.00  0.00     0.157 C 
BRANCH   2   3
HETATM    3  N   UNL     1      43.484 -15.116   6.232  1.00  0.00    -0.340 N 
HETATM    4  C   UNL     1      43.032 -16.241   5.582  1.00  0.00     0.320 C 
HETATM    5  N   UNL     1      44.084 -17.002   5.122  1.00  0.00    -0.306 N 
HETATM    6  O   UNL     1      41.841 -16.470   5.423  1.00  0.00    -0.247 OA
HETATM    7  H   UNL     1      44.920 -16.469   4.942  1.00  0.00     0.171 HD
HETATM    8  H   UNL     1      44.424 -14.806   6.029  1.00  0.00     0.164 HD
BRANCH   5   9
HETATM    9  C   UNL     1      43.968 -18.231   4.430  1.00  0.00     0.077 A 
HETATM   10  C   UNL     1      43.705 -18.422   3.068  1.00  0.00     0.152 A 
HETATM   11  N   UNL     1      43.624 -19.644   2.477  1.00  0.00    -0.247 NA
HETATM   12 CL   UNL     1      43.186 -17.182   1.990  1.00  0.00    -0.060 Cl
HETATM   13  C   UNL     1      43.799 -20.723   3.263  1.00  0.00     0.118 A 
HETATM   14  C   UNL     1      44.019 -20.649   4.626  1.00  0.00     0.022 A 
HETATM   15  C   UNL     1      44.094 -19.388   5.213  1.00  0.00     0.034 A 
ENDBRANCH   5   9
ENDBRANCH   2   3
ENDBRANCH   1   2
BRANCH   1  16
HETATM   16  O   UNL     1      44.709 -12.908   6.679  1.00  0.00    -0.392 OA
HETATM   17  H   UNL     1      44.865 -13.776   7.112  1.00  0.00     0.210 HD
ENDBRANCH   1  16
BRANCH   1  18
HETATM   18  C   UNL     1      42.868 -11.747   5.498  1.00  0.00     0.157 C 
BRANCH  18  19
HETATM   19  N   UNL     1      42.984 -12.392   4.193  1.00  0.00    -0.340 N 
HETATM   20  C   UNL     1      41.892 -12.544   3.372  1.00  0.00     0.320 C 
HETATM   21  N   UNL     1      42.259 -13.075   2.159  1.00  0.00    -0.306 N 
HETATM   22  O   UNL     1      40.773 -12.186   3.712  1.00  0.00    -0.247 OA
HETATM   23  H   UNL     1      43.200 -12.824   1.895  1.00  0.00     0.171 HD
HETATM   24  H   UNL     1      43.753 -13.033   4.056  1.00  0.00     0.164 HD
BRANCH  21  25
HETATM   25  C   UNL     1      41.368 -13.372   1.098  1.00  0.00     0.077 A 
HETATM   26  C   UNL     1      40.953 -12.513   0.071  1.00  0.00     0.152 A 
HETATM   27 CL   UNL     1      41.231 -10.812   0.051  1.00  0.00    -0.060 Cl
HETATM   28  N   UNL     1      40.109 -12.880  -0.929  1.00  0.00    -0.247 NA
HETATM   29  C   UNL     1      39.644 -14.143  -0.911  1.00  0.00     0.118 A 
HETATM   30  C   UNL     1      39.951 -15.056   0.081  1.00  0.00     0.022 A 
HETATM   31  C   UNL     1      40.815 -14.659   1.100  1.00  0.00     0.034 A 
ENDBRANCH  21  25
ENDBRANCH  18  19
ENDBRANCH   1  18
TORSDOF 7
ENDMDL
MODEL 7
REMARK VINA RESULT:      -7.5      3.745      9.433
REMARK  7 active torsions:
REMARK  status: ('A' for Active; 'I' for Inactive)
REMARK    1  A    between atoms: C_6  and  N_7 
REMARK       I    between atoms: N_7  and  C_8 
REMARK       I    between atoms: C_8  and  N_9 
REMARK    2  A    between atoms: N_9  and  C_10 
REMARK    3  A    between atoms: C_10  and  C_11 
REMARK    4  A    between atoms: C_11  and  O_12 
REMARK    5  A    between atoms: C_11  and  C_13 
REMARK    6  A    between atoms: C_13  and  N_14 
REMARK       I    between atoms: N_14  and  C_15 
REMARK       I    between atoms: C_15  and  N_16 
REMARK    7  A    between atoms: N_16  and  C_17 
ROOT
HETATM    1  C   UNL     1      43.556 -11.487   6.718  1.00  0.00     0.153 C 
ENDROOT
BRANCH   1   2
HETATM    2  C   UNL     1      43.261 -10.256   7.594  1.00  0.00     0.157 C 
BRANCH   2   3
HETATM    3  N   UNL     1      43.075 -10.606   8.994  1.00  0.00    -0.340 N 
HETATM    4  C   UNL     1      42.872  -9.644   9.956  1.00  0.00     0.320 C 
HETATM    5  N   UNL     1      42.486 -10.212  11.149  1.00  0.00    -0.306 N 
HETATM    6  O   UNL     1      42.988  -8.449   9.720  1.00  0.00    -0.247 OA
HETATM    7  H   UNL     1      42.020 -11.099  11.043  1.00  0.00     0.171 HD
HETATM    8  H   UNL     1      42.636 -11.505   9.133  1.00  0.00     0.164 HD
BRANCH   5   9
HETATM    9  C   UNL     1      42.217  -9.507  12.347  1.00  0.00     0.077 A 
HETATM   10  C   UNL     1      41.123  -9.671  13.205  1.00  0.00     0.152 A 
HETATM   11  N   UNL     1      40.945  -8.959  14.350  1.00  0.00    -0.247 NA
HETATM   12 CL   UNL     1      39.715 -10.590  12.828  1.00  0.00    -0.060 Cl
HETATM   13  C   UNL     1      41.880  -8.039  14.655  1.00  0.00     0.118 A 
HETATM   14  C   UNL     1      42.973  -7.765  13.856  1.00  0.00     0.022 A 
HETATM   15  C   UNL     1      43.135  -8.502  12.685  1.00  0.00     0.034 A 
ENDBRANCH   5   9
ENDBRANCH   2   3
ENDBRANCH   1   2
BRANCH   1  16
HETATM   16  O   UNL     1      44.227 -12.463   7.533  1.00  0.00    -0.392 OA
HETATM   17  H   UNL     1      43.609 -13.214   7.676  1.00  0.00     0.210 HD
ENDBRANCH   1  16
BRANCH   1  18
HETATM   18  C   UNL     1      42.287 -12.052   6.050  1.00  0.00     0.157 C 
BRANCH  18  19
HETATM   19  N   UNL     1      42.231 -13.511   6.096  1.00  0.00    -0.340 N 
HETATM   20  C   UNL     1      42.647 -14.275   5.030  1.00  0.00     0.320 C 
HETATM   21  N   UNL     1      42.606 -15.613   5.340  1.00  0.00    -0.306 N 
HETATM   22  O   UNL     1      43.041 -13.771   3.988  1.00  0.00    -0.247 OA
HETATM   23  H   UNL     1      42.757 -15.788   6.323  1.00  0.00     0.171 HD
HETATM   24  H   UNL     1      41.569 -13.933   6.731  1.00  0.00     0.164 HD
BRANCH  21  25
HETATM   25  C   UNL     1      42.954 -16.663   4.455  1.00  0.00     0.077 A 
HETATM   26  C   UNL     1      42.381 -16.948   3.207  1.00  0.00     0.152 A 
HETATM   27 CL   UNL     1      40.928 -16.233   2.616  1.00  0.00    -0.060 Cl
HETATM   28  N   UNL     1      42.787 -17.964   2.402  1.00  0.00    -0.247 NA
HETATM   29  C   UNL     1      43.791 -18.742   2.848  1.00  0.00     0.118 A 
HETATM   30  C   UNL     1      44.393 -18.579   4.082  1.00  0.00     0.022 A 
HETATM   31  C   UNL     1      43.960 -17.533   4.895  1.00  0.00     0.034 A 
ENDBRANCH  21  25
ENDBRANCH  18  19
ENDBRANCH   1  18
TORSDOF 7
ENDMDL
MODEL 8
REMARK VINA RESULT:      -7.4      4.338      7.319
REMARK  7 active torsions:
REMARK  status: ('A' for Active; 'I' for Inactive)
REMARK    1  A    between atoms: C_6  and  N_7 
REMARK       I    between atoms: N_7  and  C_8 
REMARK       I    between atoms: C_8  and  N_9 
REMARK    2  A    between atoms: N_9  and  C_10 
REMARK    3  A    between atoms: C_10  and  C_11 
REMARK    4  A    between atoms: C_11  and  O_12 
REMARK    5  A    between atoms: C_11  and  C_13 
REMARK    6  A    between atoms: C_13  and  N_14 
REMARK       I    between atoms: N_14  and  C_15 
REMARK       I    between atoms: C_15  and  N_16 
REMARK    7  A    between atoms: N_16  and  C_17 
ROOT
HETATM    1  C   UNL     1      41.042 -11.279   4.517  1.00  0.00     0.153 C 
ENDROOT
BRANCH   1   2
HETATM    2  C   UNL     1      41.318 -10.741   3.101  1.00  0.00     0.157 C 
BRANCH   2   3
HETATM    3  N   UNL     1      41.517 -11.808   2.133  1.00  0.00    -0.340 N 
HETATM    4  C   UNL     1      40.620 -12.032   1.115  1.00  0.00     0.320 C 
HETATM    5  N   UNL     1      41.129 -12.921   0.195  1.00  0.00    -0.306 N 
HETATM    6  O   UNL     1      39.540 -11.459   1.055  1.00  0.00    -0.247 OA
HETATM    7  H   UNL     1      42.136 -12.930   0.155  1.00  0.00     0.171 HD
HETATM    8  H   UNL     1      42.488 -12.017   1.954  1.00  0.00     0.164 HD
BRANCH   5   9
HETATM    9  C   UNL     1      40.456 -13.384  -0.962  1.00  0.00     0.077 A 
HETATM   10  C   UNL     1      40.464 -12.810  -2.239  1.00  0.00     0.152 A 
HETATM   11  N   UNL     1      39.798 -13.328  -3.305  1.00  0.00    -0.247 NA
HETATM   12 CL   UNL     1      41.083 -11.243  -2.602  1.00  0.00    -0.060 Cl
HETATM   13  C   UNL     1      39.087 -14.453  -3.102  1.00  0.00     0.118 A 
HETATM   14  C   UNL     1      38.975 -15.075  -1.872  1.00  0.00     0.022 A 
HETATM   15  C   UNL     1      39.661 -14.526  -0.792  1.00  0.00     0.034 A 
ENDBRANCH   5   9
ENDBRANCH   2   3
ENDBRANCH   1   2
BRANCH   1  16
HETATM   16  O   UNL     1      39.944 -12.204   4.435  1.00  0.00    -0.392 OA
HETATM   17  H   UNL     1      39.113 -11.701   4.579  1.00  0.00     0.210 HD
ENDBRANCH   1  16
BRANCH   1  18
HETATM   18  C   UNL     1      42.292 -11.907   5.162  1.00  0.00     0.157 C 
BRANCH  18  19
HETATM   19  N   UNL     1      42.163 -13.350   5.347  1.00  0.00    -0.340 N 
HETATM   20  C   UNL     1      42.687 -14.237   4.435  1.00  0.00     0.320 C 
HETATM   21  N   UNL     1      42.542 -15.532   4.870  1.00  0.00    -0.306 N 
HETATM   22  O   UNL     1      43.245 -13.860   3.414  1.00  0.00    -0.247 OA
HETATM   23  H   UNL     1      42.548 -15.606   5.877  1.00  0.00     0.171 HD
HETATM   24  H   UNL     1      41.401 -13.682   5.921  1.00  0.00     0.164 HD
BRANCH  21  25
HETATM   25  C   UNL     1      42.960 -16.681   4.155  1.00  0.00     0.077 A 
HETATM   26  C   UNL     1      42.495 -17.123   2.909  1.00  0.00     0.152 A 
HETATM   27 CL   UNL     1      41.101 -16.496   2.112  1.00  0.00    -0.060 Cl
HETATM   28  N   UNL     1      42.964 -18.228   2.273  1.00  0.00    -0.247 NA
HETATM   29  C   UNL     1      43.924 -18.938   2.896  1.00  0.00     0.118 A 
HETATM   30  C   UNL     1      44.418 -18.619   4.147  1.00  0.00     0.022 A 
HETATM   31  C   UNL     1      43.922 -17.483   4.784  1.00  0.00     0.034 A 
ENDBRANCH  21  25
ENDBRANCH  18  19
ENDBRANCH   1  18
TORSDOF 7
ENDMDL
MODEL 9
REMARK VINA RESULT:      -7.4      1.640      2.218
REMARK  7 active torsions:
REMARK  status: ('A' for Active; 'I' for Inactive)
REMARK    1  A    between atoms: C_6  and  N_7 
REMARK       I    between atoms: N_7  and  C_8 
REMARK       I    between atoms: C_8  and  N_9 
REMARK    2  A    between atoms: N_9  and  C_10 
REMARK    3  A    between atoms: C_10  and  C_11 
REMARK    4  A    between atoms: C_11  and  O_12 
REMARK    5  A    between atoms: C_11  and  C_13 
REMARK    6  A    between atoms: C_13  and  N_14 
REMARK       I    between atoms: N_14  and  C_15 
REMARK       I    between atoms: C_15  and  N_16 
REMARK    7  A    between atoms: N_16  and  C_17 
ROOT
HETATM    1  C   UNL     1      40.625 -12.821   5.239  1.00  0.00     0.153 C 
ENDROOT
BRANCH   1   2
HETATM    2  C   UNL     1      40.261 -13.820   4.126  1.00  0.00     0.157 C 
BRANCH   2   3
HETATM    3  N   UNL     1      41.421 -14.549   3.637  1.00  0.00    -0.340 N 
HETATM    4  C   UNL     1      41.625 -15.872   3.955  1.00  0.00     0.320 C 
HETATM    5  N   UNL     1      42.640 -16.411   3.196  1.00  0.00    -0.306 N 
HETATM    6  O   UNL     1      40.941 -16.460   4.781  1.00  0.00    -0.247 OA
HETATM    7  H   UNL     1      42.766 -15.955   2.306  1.00  0.00     0.171 HD
HETATM    8  H   UNL     1      41.753 -14.229   2.739  1.00  0.00     0.164 HD
BRANCH   5   9
HETATM    9  C   UNL     1      43.117 -17.741   3.287  1.00  0.00     0.077 A 
HETATM   10  C   UNL     1      43.808 -18.328   4.354  1.00  0.00     0.152 A 
HETATM   11  N   UNL     1      44.222 -19.623   4.367  1.00  0.00    -0.247 NA
HETATM   12 CL   UNL     1      44.471 -17.458   5.685  1.00  0.00    -0.060 Cl
HETATM   13  C   UNL     1      43.952 -20.368   3.277  1.00  0.00     0.118 A 
HETATM   14  C   UNL     1      43.317 -19.876   2.153  1.00  0.00     0.022 A 
HETATM   15  C   UNL     1      42.906 -18.546   2.158  1.00  0.00     0.034 A 
ENDBRANCH   5   9
ENDBRANCH   2   3
ENDBRANCH   1   2
BRANCH   1  16
HETATM   16  O   UNL     1      39.913 -13.201   6.428  1.00  0.00    -0.392 OA
HETATM   17  H   UNL     1      39.068 -13.622   6.154  1.00  0.00     0.210 HD
ENDBRANCH   1  16
BRANCH   1  18
HETATM   18  C   UNL     1      42.146 -12.727   5.471  1.00  0.00     0.157 C 
BRANCH  18  19
HETATM   19  N   UNL     1      42.482 -12.085   6.739  1.00  0.00    -0.340 N 
HETATM   20  C   UNL     1      42.562 -10.716   6.848  1.00  0.00     0.320 C 
HETATM   21  N   UNL     1      42.781 -10.339   8.151  1.00  0.00    -0.306 N 
HETATM   22  O   UNL     1      42.397  -9.981   5.885  1.00  0.00    -0.247 OA
HETATM   23  H   UNL     1      42.387 -10.990   8.814  1.00  0.00     0.171 HD
HETATM   24  H   UNL     1      42.999 -12.629   7.415  1.00  0.00     0.164 HD
BRANCH  21  25
HETATM   25  C   UNL     1      42.930  -9.002   8.596  1.00  0.00     0.077 A 
HETATM   26  C   UNL     1      44.097  -8.225   8.577  1.00  0.00     0.152 A 
HETATM   27 CL   UNL     1      45.674  -8.844   8.260  1.00  0.00    -0.060 Cl
HETATM   28  N   UNL     1      44.155  -6.936   9.002  1.00  0.00    -0.247 NA
HETATM   29  C   UNL     1      43.020  -6.391   9.478  1.00  0.00     0.118 A 
HETATM   30  C   UNL     1      41.828  -7.083   9.586  1.00  0.00     0.022 A 
HETATM   31  C   UNL     1      41.789  -8.406   9.148  1.00  0.00     0.034 A 
ENDBRANCH  21  25
ENDBRANCH  18  19
ENDBRANCH   1  18
TORSDOF 7
ENDMDL
MODEL 10
REMARK VINA RESULT:      -7.4      3.549      4.305
REMARK  7 active torsions:
REMARK  status: ('A' for Active; 'I' for Inactive)
REMARK    1  A    between atoms: C_6  and  N_7 
REMARK       I    between atoms: N_7  and  C_8 
REMARK       I    between atoms: C_8  and  N_9 
REMARK    2  A    between atoms: N_9  and  C_10 
REMARK    3  A    between atoms: C_10  and  C_11 
REMARK    4  A    between atoms: C_11  and  O_12 
REMARK    5  A    between atoms: C_11  and  C_13 
REMARK    6  A    between atoms: C_13  and  N_14 
REMARK       I    between atoms: N_14  and  C_15 
REMARK       I    between atoms: C_15  and  N_16 
REMARK    7  A    between atoms: N_16  and  C_17 
ROOT
HETATM    1  C   UNL     1      43.198 -11.460   6.389  1.00  0.00     0.153 C 
ENDROOT
BRANCH   1   2
HETATM    2  C   UNL     1      41.919 -11.884   5.644  1.00  0.00     0.157 C 
BRANCH   2   3
HETATM    3  N   UNL     1      41.737 -13.327   5.635  1.00  0.00    -0.340 N 
HETATM    4  C   UNL     1      42.385 -14.128   4.723  1.00  0.00     0.320 C 
HETATM    5  N   UNL     1      42.252 -15.459   5.053  1.00  0.00    -0.306 N 
HETATM    6  O   UNL     1      43.019 -13.670   3.783  1.00  0.00    -0.247 OA
HETATM    7  H   UNL     1      42.110 -15.619   6.039  1.00  0.00     0.171 HD
HETATM    8  H   UNL     1      41.545 -13.717   6.546  1.00  0.00     0.164 HD
BRANCH   5   9
HETATM    9  C   UNL     1      42.779 -16.546   4.316  1.00  0.00     0.077 A 
HETATM   10  C   UNL     1      42.405 -16.968   3.035  1.00  0.00     0.152 A 
HETATM   11  N   UNL     1      42.974 -18.020   2.387  1.00  0.00    -0.247 NA
HETATM   12 CL   UNL     1      41.010 -16.409   2.190  1.00  0.00    -0.060 Cl
HETATM   13  C   UNL     1      43.946 -18.690   3.035  1.00  0.00     0.118 A 
HETATM   14  C   UNL     1      44.360 -18.385   4.318  1.00  0.00     0.022 A 
HETATM   15  C   UNL     1      43.762 -17.308   4.965  1.00  0.00     0.034 A 
ENDBRANCH   5   9
ENDBRANCH   2   3
ENDBRANCH   1   2
BRANCH   1  16
HETATM   16  O   UNL     1      44.244 -11.291   5.417  1.00  0.00    -0.392 OA
HETATM   17  H   UNL     1      45.022 -11.812   5.716  1.00  0.00     0.210 HD
ENDBRANCH   1  16
BRANCH   1  18
HETATM   18  C   UNL     1      42.987 -10.200   7.250  1.00  0.00     0.157 C 
BRANCH  18  19
HETATM   19  N   UNL     1      43.123 -10.468   8.679  1.00  0.00    -0.340 N 
HETATM   20  C   UNL     1      42.559  -9.636   9.619  1.00  0.00     0.320 C 
HETATM   21  N   UNL     1      42.721 -10.144  10.885  1.00  0.00    -0.306 N 
HETATM   22  O   UNL     1      41.957  -8.619   9.303  1.00  0.00    -0.247 OA
HETATM   23  H   UNL     1      42.760 -11.153  10.896  1.00  0.00     0.171 HD
HETATM   24  H   UNL     1      43.909 -11.028   8.977  1.00  0.00     0.164 HD
BRANCH  21  25
HETATM   25  C   UNL     1      42.272  -9.520  12.075  1.00  0.00     0.077 A 
HETATM   26  C   UNL     1      41.026  -9.675  12.698  1.00  0.00     0.152 A 
HETATM   27 CL   UNL     1      39.667 -10.455  11.978  1.00  0.00    -0.060 Cl
HETATM   28  N   UNL     1      40.675  -9.057  13.856  1.00  0.00    -0.247 NA
HETATM   29  C   UNL     1      41.586  -8.241  14.420  1.00  0.00     0.118 A 
HETATM   30  C   UNL     1      42.825  -7.980  13.864  1.00  0.00     0.022 A 
HETATM   31  C   UNL     1      43.163  -8.621  12.674  1.00  0.00     0.034 A 
ENDBRANCH  21  25
ENDBRANCH  18  19
ENDBRANCH   1  18
TORSDOF 7
ENDMDL
