MODEL 1
REMARK VINA RESULT:      -8.8      0.000      0.000
REMARK  2 active torsions:
REMARK  status: ('A' for Active; 'I' for Inactive)
REMARK    1  A    between atoms: C_5  and  C_7 
REMARK    2  A    between atoms: C_5  and  O_6 
ROOT
HETATM    1  C   UNL     1      44.095 -11.943   7.520  1.00  0.00     0.050 C 
HETATM    2  C   UNL     1      43.611 -12.251   6.138  1.00  0.00    -0.035 A 
HETATM    3  C   UNL     1      42.656 -13.214   5.851  1.00  0.00     0.051 A 
HETATM    4  C   UNL     1      42.220 -13.475   4.544  1.00  0.00     0.018 A 
HETATM    5  C   UNL     1      41.131 -14.529   4.572  1.00  0.00     0.199 A 
HETATM    6  C   UNL     1      41.089 -14.892   6.096  1.00  0.00     0.266 A 
HETATM    7  O   UNL     1      40.379 -15.703   6.671  1.00  0.00    -0.269 OA
HETATM    8  N   UNL     1      41.989 -14.044   6.744  1.00  0.00    -0.323 N 
HETATM    9  C   UNL     1      42.733 -12.760   3.473  1.00  0.00     0.013 A 
HETATM   10  C   UNL     1      43.702 -11.791   3.731  1.00  0.00     0.001 A 
HETATM   11  C   UNL     1      44.134 -11.540   5.046  1.00  0.00     0.009 A 
HETATM   12  H   UNL     1      42.123 -14.075   7.743  1.00  0.00     0.169 HD
ENDROOT
BRANCH   5  13
HETATM   13  C   UNL     1      41.570 -15.672   3.685  1.00  0.00     0.025 A 
HETATM   14  C   UNL     1      42.603 -16.652   3.953  1.00  0.00     0.003 A 
HETATM   15  C   UNL     1      42.651 -17.527   2.868  1.00  0.00     0.043 A 
HETATM   16  C   UNL     1      43.505 -16.883   5.016  1.00  0.00     0.014 A 
HETATM   17  C   UNL     1      43.537 -18.609   2.791  1.00  0.00     0.030 A 
HETATM   18  N   UNL     1      41.698 -17.114   1.973  1.00  0.00    -0.359 N 
HETATM   19  C   UNL     1      44.412 -18.811   3.859  1.00  0.00     0.002 A 
HETATM   20  C   UNL     1      44.399 -17.960   4.958  1.00  0.00     0.001 A 
HETATM   21  H   UNL     1      41.505 -17.579   1.096  1.00  0.00     0.166 HD
HETATM   22  C   UNL     1      41.044 -16.003   2.435  1.00  0.00     0.016 A 
HETATM   23  C   UNL     1      39.955 -15.379   1.634  1.00  0.00     0.069 C 
ENDBRANCH   5  13
BRANCH   5  24
HETATM   24  O   UNL     1      39.904 -13.923   4.169  1.00  0.00    -0.371 OA
HETATM   25  H   UNL     1      39.978 -12.980   4.386  1.00  0.00     0.212 HD
ENDBRANCH   5  24
TORSDOF 2
ENDMDL
MODEL 2
REMARK VINA RESULT:      -8.7      1.681      2.476
REMARK  2 active torsions:
REMARK  status: ('A' for Active; 'I' for Inactive)
REMARK    1  A    between atoms: C_5  and  C_7 
REMARK    2  A    between atoms: C_5  and  O_6 
ROOT
HETATM    1  C   UNL     1      41.931 -10.252   6.335  1.00  0.00     0.050 C 
HETATM    2  C   UNL     1      42.271 -11.364   5.393  1.00  0.00    -0.035 A 
HETATM    3  C   UNL     1      41.743 -12.642   5.485  1.00  0.00     0.051 A 
HETATM    4  C   UNL     1      42.078 -13.662   4.582  1.00  0.00     0.018 A 
HETATM    5  C   UNL     1      41.289 -14.913   4.911  1.00  0.00     0.199 A 
HETATM    6  C   UNL     1      40.524 -14.467   6.204  1.00  0.00     0.266 A 
HETATM    7  O   UNL     1      39.742 -15.107   6.891  1.00  0.00    -0.269 OA
HETATM    8  N   UNL     1      40.837 -13.124   6.423  1.00  0.00    -0.323 N 
HETATM    9  C   UNL     1      42.961 -13.420   3.541  1.00  0.00     0.013 A 
HETATM   10  C   UNL     1      43.515 -12.145   3.429  1.00  0.00     0.001 A 
HETATM   11  C   UNL     1      43.174 -11.131   4.343  1.00  0.00     0.009 A 
HETATM   12  H   UNL     1      40.444 -12.605   7.193  1.00  0.00     0.169 HD
ENDROOT
BRANCH   5  13
HETATM   13  C   UNL     1      42.274 -16.036   5.143  1.00  0.00     0.025 A 
HETATM   14  C   UNL     1      42.704 -17.044   4.196  1.00  0.00     0.003 A 
HETATM   15  C   UNL     1      43.635 -17.861   4.837  1.00  0.00     0.043 A 
HETATM   16  C   UNL     1      42.395 -17.342   2.849  1.00  0.00     0.014 A 
HETATM   17  C   UNL     1      44.267 -18.944   4.213  1.00  0.00     0.030 A 
HETATM   18  N   UNL     1      43.776 -17.388   6.116  1.00  0.00    -0.359 N 
HETATM   19  C   UNL     1      43.941 -19.209   2.882  1.00  0.00     0.002 A 
HETATM   20  C   UNL     1      43.017 -18.420   2.207  1.00  0.00     0.001 A 
HETATM   21  H   UNL     1      44.401 -17.787   6.802  1.00  0.00     0.166 HD
HETATM   22  C   UNL     1      42.968 -16.301   6.325  1.00  0.00     0.016 A 
HETATM   23  C   UNL     1      42.959 -15.609   7.643  1.00  0.00     0.069 C 
ENDBRANCH   5  13
BRANCH   5  24
HETATM   24  O   UNL     1      40.369 -15.161   3.849  1.00  0.00    -0.371 OA
HETATM   25  H   UNL     1      40.834 -14.942   3.025  1.00  0.00     0.212 HD
ENDBRANCH   5  24
TORSDOF 2
ENDMDL
MODEL 3
REMARK VINA RESULT:      -7.8      1.777      5.555
REMARK  2 active torsions:
REMARK  status: ('A' for Active; 'I' for Inactive)
REMARK    1  A    between atoms: C_5  and  C_7 
REMARK    2  A    between atoms: C_5  and  O_6 
ROOT
HETATM    1  C   UNL     1      43.483 -19.412   2.347  1.00  0.00     0.050 C 
HETATM    2  C   UNL     1      43.437 -18.301   3.349  1.00  0.00    -0.035 A 
HETATM    3  C   UNL     1      42.516 -17.266   3.312  1.00  0.00     0.051 A 
HETATM    4  C   UNL     1      42.496 -16.242   4.270  1.00  0.00     0.018 A 
HETATM    5  C   UNL     1      41.338 -15.306   3.991  1.00  0.00     0.199 A 
HETATM    6  C   UNL     1      40.762 -15.911   2.665  1.00  0.00     0.266 A 
HETATM    7  O   UNL     1      39.812 -15.529   1.998  1.00  0.00    -0.269 OA
HETATM    8  N   UNL     1      41.501 -17.062   2.385  1.00  0.00    -0.323 N 
HETATM    9  C   UNL     1      43.410 -16.233   5.313  1.00  0.00     0.013 A 
HETATM   10  C   UNL     1      44.354 -17.258   5.370  1.00  0.00     0.001 A 
HETATM   11  C   UNL     1      44.367 -18.278   4.401  1.00  0.00     0.009 A 
HETATM   12  H   UNL     1      41.301 -17.639   1.583  1.00  0.00     0.169 HD
ENDROOT
BRANCH   5  13
HETATM   13  C   UNL     1      41.897 -13.910   3.832  1.00  0.00     0.025 A 
HETATM   14  C   UNL     1      41.566 -12.732   4.608  1.00  0.00     0.003 A 
HETATM   15  C   UNL     1      42.337 -11.675   4.125  1.00  0.00     0.043 A 
HETATM   16  C   UNL     1      40.686 -12.460   5.680  1.00  0.00     0.014 A 
HETATM   17  C   UNL     1      42.278 -10.378   4.650  1.00  0.00     0.030 A 
HETATM   18  N   UNL     1      43.105 -12.168   3.103  1.00  0.00    -0.359 N 
HETATM   19  C   UNL     1      41.401 -10.144   5.710  1.00  0.00     0.002 A 
HETATM   20  C   UNL     1      40.614 -11.169   6.219  1.00  0.00     0.001 A 
HETATM   21  H   UNL     1      43.771 -11.617   2.578  1.00  0.00     0.166 HD
HETATM   22  C   UNL     1      42.855 -13.500   2.904  1.00  0.00     0.016 A 
HETATM   23  C   UNL     1      43.583 -14.256   1.848  1.00  0.00     0.069 C 
ENDBRANCH   5  13
BRANCH   5  24
HETATM   24  O   UNL     1      40.389 -15.431   5.049  1.00  0.00    -0.371 OA
HETATM   25  H   UNL     1      40.116 -16.363   5.066  1.00  0.00     0.212 HD
ENDBRANCH   5  24
TORSDOF 2
ENDMDL
MODEL 4
REMARK VINA RESULT:      -7.8      2.444      5.496
REMARK  2 active torsions:
REMARK  status: ('A' for Active; 'I' for Inactive)
REMARK    1  A    between atoms: C_5  and  C_7 
REMARK    2  A    between atoms: C_5  and  O_6 
ROOT
HETATM    1  C   UNL     1      43.956 -19.563   5.301  1.00  0.00     0.050 C 
HETATM    2  C   UNL     1      43.687 -18.183   4.787  1.00  0.00    -0.035 A 
HETATM    3  C   UNL     1      43.476 -17.083   5.602  1.00  0.00     0.051 A 
HETATM    4  C   UNL     1      43.231 -15.801   5.088  1.00  0.00     0.018 A 
HETATM    5  C   UNL     1      43.109 -14.810   6.228  1.00  0.00     0.199 A 
HETATM    6  C   UNL     1      43.230 -15.753   7.474  1.00  0.00     0.266 A 
HETATM    7  O   UNL     1      43.191 -15.464   8.660  1.00  0.00    -0.269 OA
HETATM    8  N   UNL     1      43.474 -17.041   6.991  1.00  0.00    -0.323 N 
HETATM    9  C   UNL     1      43.198 -15.585   3.719  1.00  0.00     0.013 A 
HETATM   10  C   UNL     1      43.398 -16.676   2.874  1.00  0.00     0.001 A 
HETATM   11  C   UNL     1      43.639 -17.957   3.401  1.00  0.00     0.009 A 
HETATM   12  H   UNL     1      43.610 -17.823   7.612  1.00  0.00     0.169 HD
ENDROOT
BRANCH   5  13
HETATM   13  C   UNL     1      41.765 -14.128   6.108  1.00  0.00     0.025 A 
HETATM   14  C   UNL     1      41.506 -12.731   5.826  1.00  0.00     0.003 A 
HETATM   15  C   UNL     1      40.123 -12.554   5.789  1.00  0.00     0.043 A 
HETATM   16  C   UNL     1      42.314 -11.595   5.594  1.00  0.00     0.014 A 
HETATM   17  C   UNL     1      39.512 -11.320   5.534  1.00  0.00     0.030 A 
HETATM   18  N   UNL     1      39.552 -13.776   6.037  1.00  0.00    -0.359 N 
HETATM   19  C   UNL     1      40.338 -10.219   5.306  1.00  0.00     0.002 A 
HETATM   20  C   UNL     1      41.721 -10.352   5.336  1.00  0.00     0.001 A 
HETATM   21  H   UNL     1      38.555 -13.942   6.057  1.00  0.00     0.166 HD
HETATM   22  C   UNL     1      40.513 -14.731   6.237  1.00  0.00     0.016 A 
HETATM   23  C   UNL     1      40.129 -16.143   6.514  1.00  0.00     0.069 C 
ENDBRANCH   5  13
BRANCH   5  24
HETATM   24  O   UNL     1      44.219 -13.915   6.171  1.00  0.00    -0.371 OA
HETATM   25  H   UNL     1      43.849 -13.020   6.112  1.00  0.00     0.212 HD
ENDBRANCH   5  24
TORSDOF 2
ENDMDL
MODEL 5
REMARK VINA RESULT:      -7.7     15.018     16.699
REMARK  2 active torsions:
REMARK  status: ('A' for Active; 'I' for Inactive)
REMARK    1  A    between atoms: C_5  and  C_7 
REMARK    2  A    between atoms: C_5  and  O_6 
ROOT
HETATM    1  C   UNL     1      51.138 -30.815   2.916  1.00  0.00     0.050 C 
HETATM    2  C   UNL     1      50.556 -30.575   1.558  1.00  0.00    -0.035 A 
HETATM    3  C   UNL     1      49.395 -29.853   1.332  1.00  0.00     0.051 A 
HETATM    4  C   UNL     1      48.879 -29.642   0.046  1.00  0.00     0.018 A 
HETATM    5  C   UNL     1      47.645 -28.766   0.130  1.00  0.00     0.199 A 
HETATM    6  C   UNL     1      47.491 -28.594   1.681  1.00  0.00     0.266 A 
HETATM    7  O   UNL     1      46.642 -27.973   2.302  1.00  0.00    -0.269 OA
HETATM    8  N   UNL     1      48.579 -29.237   2.274  1.00  0.00    -0.323 N 
HETATM    9  C   UNL     1      49.528 -30.152  -1.068  1.00  0.00     0.013 A 
HETATM   10  C   UNL     1      50.694 -30.890  -0.870  1.00  0.00     0.001 A 
HETATM   11  C   UNL     1      51.201 -31.099   0.426  1.00  0.00     0.009 A 
HETATM   12  H   UNL     1      48.711 -29.245   3.273  1.00  0.00     0.169 HD
ENDROOT
BRANCH   5  13
HETATM   13  C   UNL     1      46.500 -29.512  -0.516  1.00  0.00     0.025 A 
HETATM   14  C   UNL     1      45.823 -29.190  -1.756  1.00  0.00     0.003 A 
HETATM   15  C   UNL     1      44.846 -30.162  -1.972  1.00  0.00     0.043 A 
HETATM   16  C   UNL     1      45.947 -28.165  -2.721  1.00  0.00     0.014 A 
HETATM   17  C   UNL     1      44.000 -30.166  -3.088  1.00  0.00     0.030 A 
HETATM   18  N   UNL     1      44.911 -31.041  -0.923  1.00  0.00    -0.359 N 
HETATM   19  C   UNL     1      44.150 -29.142  -4.023  1.00  0.00     0.002 A 
HETATM   20  C   UNL     1      45.110 -28.153  -3.844  1.00  0.00     0.001 A 
HETATM   21  H   UNL     1      44.321 -31.856  -0.829  1.00  0.00     0.166 HD
HETATM   22  C   UNL     1      45.887 -30.671  -0.036  1.00  0.00     0.016 A 
HETATM   23  C   UNL     1      46.150 -31.485   1.183  1.00  0.00     0.069 C 
ENDBRANCH   5  13
BRANCH   5  24
HETATM   24  O   UNL     1      47.938 -27.512  -0.484  1.00  0.00    -0.371 OA
HETATM   25  H   UNL     1      47.129 -27.234  -0.943  1.00  0.00     0.212 HD
ENDBRANCH   5  24
TORSDOF 2
ENDMDL
MODEL 6
REMARK VINA RESULT:      -7.6      2.121      3.227
REMARK  2 active torsions:
REMARK  status: ('A' for Active; 'I' for Inactive)
REMARK    1  A    between atoms: C_5  and  C_7 
REMARK    2  A    between atoms: C_5  and  O_6 
ROOT
HETATM    1  C   UNL     1      39.967 -10.442   2.821  1.00  0.00     0.050 C 
HETATM    2  C   UNL     1      41.146 -11.356   2.944  1.00  0.00    -0.035 A 
HETATM    3  C   UNL     1      41.084 -12.726   2.750  1.00  0.00     0.051 A 
HETATM    4  C   UNL     1      42.210 -13.554   2.868  1.00  0.00     0.018 A 
HETATM    5  C   UNL     1      41.828 -14.983   2.534  1.00  0.00     0.199 A 
HETATM    6  C   UNL     1      40.284 -14.845   2.301  1.00  0.00     0.266 A 
HETATM    7  O   UNL     1      39.474 -15.711   2.007  1.00  0.00    -0.269 OA
HETATM    8  N   UNL     1      39.971 -13.490   2.419  1.00  0.00    -0.323 N 
HETATM    9  C   UNL     1      43.450 -13.019   3.181  1.00  0.00     0.013 A 
HETATM   10  C   UNL     1      43.540 -11.644   3.390  1.00  0.00     0.001 A 
HETATM   11  C   UNL     1      42.404 -10.823   3.272  1.00  0.00     0.009 A 
HETATM   12  H   UNL     1      39.032 -13.149   2.289  1.00  0.00     0.169 HD
ENDROOT
BRANCH   5  13
HETATM   13  C   UNL     1      42.191 -15.849   3.719  1.00  0.00     0.025 A 
HETATM   14  C   UNL     1      42.968 -17.072   3.714  1.00  0.00     0.003 A 
HETATM   15  C   UNL     1      43.067 -17.518   5.032  1.00  0.00     0.043 A 
HETATM   16  C   UNL     1      43.602 -17.846   2.716  1.00  0.00     0.014 A 
HETATM   17  C   UNL     1      43.759 -18.678   5.401  1.00  0.00     0.030 A 
HETATM   18  N   UNL     1      42.387 -16.621   5.815  1.00  0.00    -0.359 N 
HETATM   19  C   UNL     1      44.376 -19.417   4.392  1.00  0.00     0.002 A 
HETATM   20  C   UNL     1      44.299 -19.009   3.065  1.00  0.00     0.001 A 
HETATM   21  H   UNL     1      42.307 -16.693   6.820  1.00  0.00     0.166 HD
HETATM   22  C   UNL     1      41.849 -15.618   5.052  1.00  0.00     0.016 A 
HETATM   23  C   UNL     1      41.072 -14.519   5.688  1.00  0.00     0.069 C 
ENDBRANCH   5  13
BRANCH   5  24
HETATM   24  O   UNL     1      42.484 -15.355   1.323  1.00  0.00    -0.371 OA
HETATM   25  H   UNL     1      42.301 -16.299   1.189  1.00  0.00     0.212 HD
ENDBRANCH   5  24
TORSDOF 2
ENDMDL
MODEL 7
REMARK VINA RESULT:      -7.3      2.627      3.481
REMARK  2 active torsions:
REMARK  status: ('A' for Active; 'I' for Inactive)
REMARK    1  A    between atoms: C_5  and  C_7 
REMARK    2  A    between atoms: C_5  and  O_6 
ROOT
HETATM    1  C   UNL     1      40.880  -8.844   7.079  1.00  0.00     0.050 C 
HETATM    2  C   UNL     1      40.655 -10.232   6.568  1.00  0.00    -0.035 A 
HETATM    3  C   UNL     1      41.665 -11.164   6.392  1.00  0.00     0.051 A 
HETATM    4  C   UNL     1      41.420 -12.460   5.916  1.00  0.00     0.018 A 
HETATM    5  C   UNL     1      42.713 -13.250   5.899  1.00  0.00     0.199 A 
HETATM    6  C   UNL     1      43.747 -12.163   6.353  1.00  0.00     0.266 A 
HETATM    7  O   UNL     1      44.954 -12.270   6.505  1.00  0.00    -0.269 OA
HETATM    8  N   UNL     1      43.023 -11.005   6.644  1.00  0.00    -0.323 N 
HETATM    9  C   UNL     1      40.131 -12.864   5.604  1.00  0.00     0.013 A 
HETATM   10  C   UNL     1      39.095 -11.945   5.762  1.00  0.00     0.001 A 
HETATM   11  C   UNL     1      39.354 -10.646   6.238  1.00  0.00     0.009 A 
HETATM   12  H   UNL     1      43.473 -10.167   6.979  1.00  0.00     0.169 HD
ENDROOT
BRANCH   5  13
HETATM   13  C   UNL     1      42.933 -13.749   4.490  1.00  0.00     0.025 A 
HETATM   14  C   UNL     1      43.025 -15.125   4.044  1.00  0.00     0.003 A 
HETATM   15  C   UNL     1      43.212 -15.112   2.662  1.00  0.00     0.043 A 
HETATM   16  C   UNL     1      42.965 -16.385   4.682  1.00  0.00     0.014 A 
HETATM   17  C   UNL     1      43.337 -16.276   1.892  1.00  0.00     0.030 A 
HETATM   18  N   UNL     1      43.237 -13.800   2.268  1.00  0.00    -0.359 N 
HETATM   19  C   UNL     1      43.270 -17.503   2.552  1.00  0.00     0.002 A 
HETATM   20  C   UNL     1      43.087 -17.560   3.929  1.00  0.00     0.001 A 
HETATM   21  H   UNL     1      43.347 -13.497   1.310  1.00  0.00     0.166 HD
HETATM   22  C   UNL     1      43.079 -12.966   3.344  1.00  0.00     0.016 A 
HETATM   23  C   UNL     1      43.062 -11.489   3.158  1.00  0.00     0.069 C 
ENDBRANCH   5  13
BRANCH   5  24
HETATM   24  O   UNL     1      42.621 -14.288   6.873  1.00  0.00    -0.371 OA
HETATM   25  H   UNL     1      43.532 -14.538   7.098  1.00  0.00     0.212 HD
ENDBRANCH   5  24
TORSDOF 2
ENDMDL
MODEL 8
REMARK VINA RESULT:      -7.3      2.260      5.968
REMARK  2 active torsions:
REMARK  status: ('A' for Active; 'I' for Inactive)
REMARK    1  A    between atoms: C_5  and  C_7 
REMARK    2  A    between atoms: C_5  and  O_6 
ROOT
HETATM    1  C   UNL     1      43.215 -16.507   3.013  1.00  0.00     0.050 C 
HETATM    2  C   UNL     1      42.354 -15.710   3.943  1.00  0.00    -0.035 A 
HETATM    3  C   UNL     1      42.256 -14.328   3.911  1.00  0.00     0.051 A 
HETATM    4  C   UNL     1      41.436 -13.611   4.793  1.00  0.00     0.018 A 
HETATM    5  C   UNL     1      41.498 -12.133   4.460  1.00  0.00     0.199 A 
HETATM    6  C   UNL     1      42.560 -12.119   3.308  1.00  0.00     0.266 A 
HETATM    7  O   UNL     1      42.992 -11.167   2.676  1.00  0.00    -0.269 OA
HETATM    8  N   UNL     1      42.903 -13.448   3.051  1.00  0.00    -0.323 N 
HETATM    9  C   UNL     1      40.673 -14.273   5.744  1.00  0.00     0.013 A 
HETATM   10  C   UNL     1      40.759 -15.663   5.805  1.00  0.00     0.001 A 
HETATM   11  C   UNL     1      41.588 -16.371   4.917  1.00  0.00     0.009 A 
HETATM   12  H   UNL     1      43.561 -13.696   2.329  1.00  0.00     0.169 HD
ENDROOT
BRANCH   5  13
HETATM   13  C   UNL     1      41.939 -11.396   5.704  1.00  0.00     0.025 A 
HETATM   14  C   UNL     1      43.285 -11.265   6.224  1.00  0.00     0.003 A 
HETATM   15  C   UNL     1      43.221 -10.485   7.378  1.00  0.00     0.043 A 
HETATM   16  C   UNL     1      44.557 -11.734   5.824  1.00  0.00     0.014 A 
HETATM   17  C   UNL     1      44.346 -10.149   8.142  1.00  0.00     0.030 A 
HETATM   18  N   UNL     1      41.906 -10.148   7.567  1.00  0.00    -0.359 N 
HETATM   19  C   UNL     1      45.587 -10.626   7.718  1.00  0.00     0.002 A 
HETATM   20  C   UNL     1      45.693 -11.409   6.575  1.00  0.00     0.001 A 
HETATM   21  H   UNL     1      41.572  -9.571   8.327  1.00  0.00     0.166 HD
HETATM   22  C   UNL     1      41.119 -10.686   6.583  1.00  0.00     0.016 A 
HETATM   23  C   UNL     1      39.650 -10.445   6.575  1.00  0.00     0.069 C 
ENDBRANCH   5  13
BRANCH   5  24
HETATM   24  O   UNL     1      40.222 -11.726   3.968  1.00  0.00    -0.371 OA
HETATM   25  H   UNL     1      39.615 -11.749   4.725  1.00  0.00     0.212 HD
ENDBRANCH   5  24
TORSDOF 2
ENDMDL
MODEL 9
REMARK VINA RESULT:      -7.3      2.570      3.890
REMARK  2 active torsions:
REMARK  status: ('A' for Active; 'I' for Inactive)
REMARK    1  A    between atoms: C_5  and  C_7 
REMARK    2  A    between atoms: C_5  and  O_6 
ROOT
HETATM    1  C   UNL     1      41.164  -9.466   4.825  1.00  0.00     0.050 C 
HETATM    2  C   UNL     1      40.955 -10.881   5.265  1.00  0.00    -0.035 A 
HETATM    3  C   UNL     1      41.982 -11.728   5.651  1.00  0.00     0.051 A 
HETATM    4  C   UNL     1      41.752 -13.049   6.064  1.00  0.00     0.018 A 
HETATM    5  C   UNL     1      43.062 -13.687   6.480  1.00  0.00     0.199 A 
HETATM    6  C   UNL     1      44.083 -12.546   6.147  1.00  0.00     0.266 A 
HETATM    7  O   UNL     1      45.297 -12.539   6.289  1.00  0.00    -0.269 OA
HETATM    8  N   UNL     1      43.342 -11.448   5.706  1.00  0.00    -0.323 N 
HETATM    9  C   UNL     1      40.465 -13.561   6.107  1.00  0.00     0.013 A 
HETATM   10  C   UNL     1      39.413 -12.733   5.715  1.00  0.00     0.001 A 
HETATM   11  C   UNL     1      39.655 -11.411   5.300  1.00  0.00     0.009 A 
HETATM   12  H   UNL     1      43.782 -10.578   5.450  1.00  0.00     0.169 HD
ENDROOT
BRANCH   5  13
HETATM   13  C   UNL     1      43.254 -14.937   5.652  1.00  0.00     0.025 A 
HETATM   14  C   UNL     1      43.182 -15.061   4.211  1.00  0.00     0.003 A 
HETATM   15  C   UNL     1      43.443 -16.392   3.885  1.00  0.00     0.043 A 
HETATM   16  C   UNL     1      42.923 -14.169   3.145  1.00  0.00     0.014 A 
HETATM   17  C   UNL     1      43.462 -16.873   2.569  1.00  0.00     0.030 A 
HETATM   18  N   UNL     1      43.664 -17.061   5.061  1.00  0.00    -0.359 N 
HETATM   19  C   UNL     1      43.205 -15.965   1.541  1.00  0.00     0.002 A 
HETATM   20  C   UNL     1      42.938 -14.631   1.823  1.00  0.00     0.001 A 
HETATM   21  H   UNL     1      43.890 -18.044   5.120  1.00  0.00     0.166 HD
HETATM   22  C   UNL     1      43.550 -16.214   6.132  1.00  0.00     0.016 A 
HETATM   23  C   UNL     1      43.759 -16.716   7.518  1.00  0.00     0.069 C 
ENDBRANCH   5  13
BRANCH   5  24
HETATM   24  O   UNL     1      43.022 -13.926   7.886  1.00  0.00    -0.371 OA
HETATM   25  H   UNL     1      43.423 -13.150   8.310  1.00  0.00     0.212 HD
ENDBRANCH   5  24
TORSDOF 2
ENDMDL
MODEL 10
REMARK VINA RESULT:      -7.2      3.007      5.516
REMARK  2 active torsions:
REMARK  status: ('A' for Active; 'I' for Inactive)
REMARK    1  A    between atoms: C_5  and  C_7 
REMARK    2  A    between atoms: C_5  and  O_6 
ROOT
HETATM    1  C   UNL     1      41.931 -16.813   5.780  1.00  0.00     0.050 C 
HETATM    2  C   UNL     1      42.325 -16.361   4.409  1.00  0.00    -0.035 A 
HETATM    3  C   UNL     1      41.798 -15.243   3.783  1.00  0.00     0.051 A 
HETATM    4  C   UNL     1      42.192 -14.844   2.498  1.00  0.00     0.018 A 
HETATM    5  C   UNL     1      41.485 -13.556   2.125  1.00  0.00     0.199 A 
HETATM    6  C   UNL     1      40.554 -13.342   3.367  1.00  0.00     0.266 A 
HETATM    7  O   UNL     1      39.757 -12.442   3.581  1.00  0.00    -0.269 OA
HETATM    8  N   UNL     1      40.845 -14.360   4.278  1.00  0.00    -0.323 N 
HETATM    9  C   UNL     1      43.149 -15.563   1.798  1.00  0.00     0.013 A 
HETATM   10  C   UNL     1      43.691 -16.698   2.400  1.00  0.00     0.001 A 
HETATM   11  C   UNL     1      43.284 -17.091   3.688  1.00  0.00     0.009 A 
HETATM   12  H   UNL     1      40.383 -14.422   5.171  1.00  0.00     0.169 HD
ENDROOT
BRANCH   5  13
HETATM   13  C   UNL     1      40.734 -13.796   0.835  1.00  0.00     0.025 A 
HETATM   14  C   UNL     1      40.661 -12.925  -0.320  1.00  0.00     0.003 A 
HETATM   15  C   UNL     1      39.875 -13.559  -1.282  1.00  0.00     0.043 A 
HETATM   16  C   UNL     1      41.190 -11.655  -0.645  1.00  0.00     0.014 A 
HETATM   17  C   UNL     1      39.595 -13.002  -2.536  1.00  0.00     0.030 A 
HETATM   18  N   UNL     1      39.479 -14.760  -0.754  1.00  0.00    -0.359 N 
HETATM   19  C   UNL     1      40.135 -11.748  -2.826  1.00  0.00     0.002 A 
HETATM   20  C   UNL     1      40.922 -11.082  -1.895  1.00  0.00     0.001 A 
HETATM   21  H   UNL     1      38.907 -15.434  -1.244  1.00  0.00     0.166 HD
HETATM   22  C   UNL     1      39.974 -14.922   0.513  1.00  0.00     0.016 A 
HETATM   23  C   UNL     1      39.683 -16.161   1.286  1.00  0.00     0.069 C 
ENDBRANCH   5  13
BRANCH   5  24
HETATM   24  O   UNL     1      42.456 -12.514   2.043  1.00  0.00    -0.371 OA
HETATM   25  H   UNL     1      42.087 -11.756   2.524  1.00  0.00     0.212 HD
ENDBRANCH   5  24
TORSDOF 2
ENDMDL
