MODEL 1
REMARK VINA RESULT:      -8.4      0.000      0.000
REMARK  5 active torsions:
REMARK  status: ('A' for Active; 'I' for Inactive)
REMARK    1  A    between atoms: C_5  and  C_6 
REMARK       I    between atoms: C_6  and  N_7 
REMARK    2  A    between atoms: N_7  and  C_8 
REMARK    3  A    between atoms: C_8  and  C_9 
REMARK    4  A    between atoms: C_11  and  N_12 
REMARK    5  A    between atoms: N_12  and  C_13 
ROOT
HETATM    1  C   UNL     1      43.224 -14.535   1.925  1.00  0.00     0.161 C 
ENDROOT
BRANCH   1   2
HETATM    2  N   UNL     1      43.326 -15.971   2.029  1.00  0.00    -0.353 N 
HETATM    3  C   UNL     1      43.225 -16.626   3.238  1.00  0.00     0.255 C 
HETATM    4  O   UNL     1      42.966 -16.033   4.281  1.00  0.00    -0.268 OA
HETATM    5  H   UNL     1      43.579 -16.501   1.202  1.00  0.00     0.163 HD
BRANCH   3   6
HETATM    6  C   UNL     1      43.429 -18.102   3.247  1.00  0.00     0.071 A 
HETATM    7  C   UNL     1      43.828 -18.810   4.385  1.00  0.00     0.138 A 
HETATM    8  C   UNL     1      44.001 -20.199   4.356  1.00  0.00    -0.022 A 
HETATM    9  F   UNL     1      44.061 -18.161   5.540  1.00  0.00    -0.204 F 
HETATM   10  C   UNL     1      44.458 -20.942   5.577  1.00  0.00     0.051 C 
HETATM   11  C   UNL     1      43.797 -20.883   3.151  1.00  0.00     0.010 A 
HETATM   12  C   UNL     1      43.402 -20.190   2.006  1.00  0.00     0.002 A 
HETATM   13  C   UNL     1      43.215 -18.807   2.054  1.00  0.00     0.020 A 
ENDBRANCH   3   6
ENDBRANCH   1   2
BRANCH   1  14
HETATM   14  C   UNL     1      41.814 -14.114   1.584  1.00  0.00    -0.036 A 
HETATM   15  C   UNL     1      41.112 -14.766   0.561  1.00  0.00     0.057 A 
HETATM   16  C   UNL     1      39.832 -14.344   0.198  1.00  0.00     0.101 A 
HETATM   17  N   UNL     1      39.314 -13.281   0.828  1.00  0.00    -0.353 N 
HETATM   18  H   UNL     1      38.407 -12.955   0.509  1.00  0.00     0.166 HD
HETATM   19  C   UNL     1      39.945 -12.626   1.812  1.00  0.00     0.090 A 
HETATM   20  C   UNL     1      41.211 -13.027   2.216  1.00  0.00     0.026 A 
BRANCH  16  21
HETATM   21  N   UNL     1      39.157 -14.932  -0.879  1.00  0.00    -0.372 N 
HETATM   22  H   UNL     1      38.268 -15.348  -0.590  1.00  0.00     0.161 HD
BRANCH  21  23
HETATM   23  C   UNL     1      39.173 -14.351  -2.219  1.00  0.00     0.083 A 
HETATM   24  C   UNL     1      38.289 -14.876  -3.315  1.00  0.00     0.027 A 
HETATM   25  C   UNL     1      37.994 -13.546  -2.686  1.00  0.00     0.027 A 
ENDBRANCH  21  23
ENDBRANCH  16  21
ENDBRANCH   1  14
TORSDOF 5
ENDMDL
MODEL 2
REMARK VINA RESULT:      -8.3      1.588      2.224
REMARK  5 active torsions:
REMARK  status: ('A' for Active; 'I' for Inactive)
REMARK    1  A    between atoms: C_5  and  C_6 
REMARK       I    between atoms: C_6  and  N_7 
REMARK    2  A    between atoms: N_7  and  C_8 
REMARK    3  A    between atoms: C_8  and  C_9 
REMARK    4  A    between atoms: C_11  and  N_12 
REMARK    5  A    between atoms: N_12  and  C_13 
ROOT
HETATM    1  C   UNL     1      41.749 -14.753   4.645  1.00  0.00     0.161 C 
ENDROOT
BRANCH   1   2
HETATM    2  N   UNL     1      42.057 -16.149   4.451  1.00  0.00    -0.353 N 
HETATM    3  C   UNL     1      43.262 -16.695   4.841  1.00  0.00     0.255 C 
HETATM    4  O   UNL     1      44.108 -16.041   5.444  1.00  0.00    -0.268 OA
HETATM    5  H   UNL     1      41.407 -16.721   3.922  1.00  0.00     0.163 HD
BRANCH   3   6
HETATM    6  C   UNL     1      43.513 -18.128   4.518  1.00  0.00     0.071 A 
HETATM    7  C   UNL     1      43.520 -18.625   3.210  1.00  0.00     0.138 A 
HETATM    8  C   UNL     1      43.768 -19.977   2.947  1.00  0.00    -0.022 A 
HETATM    9  F   UNL     1      43.280 -17.804   2.172  1.00  0.00    -0.204 F 
HETATM   10  C   UNL     1      43.744 -20.502   1.541  1.00  0.00     0.051 C 
HETATM   11  C   UNL     1      43.984 -20.850   4.021  1.00  0.00     0.010 A 
HETATM   12  C   UNL     1      43.976 -20.369   5.331  1.00  0.00     0.002 A 
HETATM   13  C   UNL     1      43.746 -19.015   5.579  1.00  0.00     0.020 A 
ENDBRANCH   3   6
ENDBRANCH   1   2
BRANCH   1  14
HETATM   14  C   UNL     1      40.768 -14.265   3.605  1.00  0.00    -0.036 A 
HETATM   15  C   UNL     1      40.730 -14.861   2.337  1.00  0.00     0.057 A 
HETATM   16  C   UNL     1      39.870 -14.376   1.351  1.00  0.00     0.101 A 
HETATM   17  N   UNL     1      39.114 -13.308   1.640  1.00  0.00    -0.353 N 
HETATM   18  H   UNL     1      38.539 -12.936   0.891  1.00  0.00     0.166 HD
HETATM   19  C   UNL     1      39.115 -12.704   2.836  1.00  0.00     0.090 A 
HETATM   20  C   UNL     1      39.941 -13.169   3.850  1.00  0.00     0.026 A 
BRANCH  16  21
HETATM   21  N   UNL     1      39.885 -14.908   0.056  1.00  0.00    -0.372 N 
HETATM   22  H   UNL     1      39.708 -15.915   0.055  1.00  0.00     0.161 HD
BRANCH  21  23
HETATM   23  C   UNL     1      39.355 -14.176  -1.093  1.00  0.00     0.083 A 
HETATM   24  C   UNL     1      40.133 -14.049  -2.372  1.00  0.00     0.027 A 
HETATM   25  C   UNL     1      38.925 -14.936  -2.315  1.00  0.00     0.027 A 
ENDBRANCH  21  23
ENDBRANCH  16  21
ENDBRANCH   1  14
TORSDOF 5
ENDMDL
MODEL 3
REMARK VINA RESULT:      -8.3      1.993      2.731
REMARK  5 active torsions:
REMARK  status: ('A' for Active; 'I' for Inactive)
REMARK    1  A    between atoms: C_5  and  C_6 
REMARK       I    between atoms: C_6  and  N_7 
REMARK    2  A    between atoms: N_7  and  C_8 
REMARK    3  A    between atoms: C_8  and  C_9 
REMARK    4  A    between atoms: C_11  and  N_12 
REMARK    5  A    between atoms: N_12  and  C_13 
ROOT
HETATM    1  C   UNL     1      42.196 -15.044   5.524  1.00  0.00     0.161 C 
ENDROOT
BRANCH   1   2
HETATM    2  N   UNL     1      42.387 -16.427   5.157  1.00  0.00    -0.353 N 
HETATM    3  C   UNL     1      43.612 -17.051   5.263  1.00  0.00     0.255 C 
HETATM    4  O   UNL     1      44.589 -16.488   5.749  1.00  0.00    -0.268 OA
HETATM    5  H   UNL     1      41.620 -16.922   4.713  1.00  0.00     0.163 HD
BRANCH   3   6
HETATM    6  C   UNL     1      43.721 -18.455   4.778  1.00  0.00     0.071 A 
HETATM    7  C   UNL     1      43.677 -18.800   3.423  1.00  0.00     0.138 A 
HETATM    8  C   UNL     1      43.792 -20.131   3.006  1.00  0.00    -0.022 A 
HETATM    9  F   UNL     1      43.516 -17.847   2.487  1.00  0.00    -0.204 F 
HETATM   10  C   UNL     1      43.714 -20.489   1.550  1.00  0.00     0.051 C 
HETATM   11  C   UNL     1      43.923 -21.136   3.972  1.00  0.00     0.010 A 
HETATM   12  C   UNL     1      43.965 -20.809   5.327  1.00  0.00     0.002 A 
HETATM   13  C   UNL     1      43.868 -19.475   5.730  1.00  0.00     0.020 A 
ENDBRANCH   3   6
ENDBRANCH   1   2
BRANCH   1  14
HETATM   14  C   UNL     1      41.098 -14.412   4.701  1.00  0.00    -0.036 A 
HETATM   15  C   UNL     1      40.764 -14.941   3.447  1.00  0.00     0.057 A 
HETATM   16  C   UNL     1      39.794 -14.326   2.654  1.00  0.00     0.101 A 
HETATM   17  N   UNL     1      39.224 -13.202   3.108  1.00  0.00    -0.353 N 
HETATM   18  H   UNL     1      38.564 -12.739   2.491  1.00  0.00     0.166 HD
HETATM   19  C   UNL     1      39.510 -12.658   4.299  1.00  0.00     0.090 A 
HETATM   20  C   UNL     1      40.454 -13.251   5.127  1.00  0.00     0.026 A 
BRANCH  16  21
HETATM   21  N   UNL     1      39.513 -14.796   1.364  1.00  0.00    -0.372 N 
HETATM   22  H   UNL     1      38.537 -15.085   1.269  1.00  0.00     0.161 HD
BRANCH  21  23
HETATM   23  C   UNL     1      40.113 -14.202   0.171  1.00  0.00     0.083 A 
HETATM   24  C   UNL     1      39.498 -14.379  -1.189  1.00  0.00     0.027 A 
HETATM   25  C   UNL     1      39.424 -13.048  -0.500  1.00  0.00     0.027 A 
ENDBRANCH  21  23
ENDBRANCH  16  21
ENDBRANCH   1  14
TORSDOF 5
ENDMDL
MODEL 4
REMARK VINA RESULT:      -8.2      4.557      6.796
REMARK  5 active torsions:
REMARK  status: ('A' for Active; 'I' for Inactive)
REMARK    1  A    between atoms: C_5  and  C_6 
REMARK       I    between atoms: C_6  and  N_7 
REMARK    2  A    between atoms: N_7  and  C_8 
REMARK    3  A    between atoms: C_8  and  C_9 
REMARK    4  A    between atoms: C_11  and  N_12 
REMARK    5  A    between atoms: N_12  and  C_13 
ROOT
HETATM    1  C   UNL     1      42.841 -14.832   7.125  1.00  0.00     0.161 C 
ENDROOT
BRANCH   1   2
HETATM    2  N   UNL     1      42.749 -15.797   6.056  1.00  0.00    -0.353 N 
HETATM    3  C   UNL     1      43.840 -16.522   5.627  1.00  0.00     0.255 C 
HETATM    4  O   UNL     1      44.932 -16.445   6.183  1.00  0.00    -0.268 OA
HETATM    5  H   UNL     1      41.878 -15.867   5.539  1.00  0.00     0.163 HD
BRANCH   3   6
HETATM    6  C   UNL     1      43.657 -17.430   4.460  1.00  0.00     0.071 A 
HETATM    7  C   UNL     1      43.875 -18.810   4.524  1.00  0.00     0.138 A 
HETATM    8  C   UNL     1      43.683 -19.630   3.406  1.00  0.00    -0.022 A 
HETATM    9  F   UNL     1      44.282 -19.378   5.673  1.00  0.00    -0.204 F 
HETATM   10  C   UNL     1      43.948 -21.105   3.482  1.00  0.00     0.051 C 
HETATM   11  C   UNL     1      43.294 -19.046   2.194  1.00  0.00     0.010 A 
HETATM   12  C   UNL     1      43.076 -17.671   2.114  1.00  0.00     0.002 A 
HETATM   13  C   UNL     1      43.253 -16.866   3.240  1.00  0.00     0.020 A 
ENDBRANCH   3   6
ENDBRANCH   1   2
BRANCH   1  14
HETATM   14  C   UNL     1      43.090 -13.444   6.584  1.00  0.00    -0.036 A 
HETATM   15  C   UNL     1      44.368 -12.875   6.668  1.00  0.00     0.057 A 
HETATM   16  C   UNL     1      44.593 -11.570   6.226  1.00  0.00     0.101 A 
HETATM   17  N   UNL     1      43.550 -10.871   5.758  1.00  0.00    -0.353 N 
HETATM   18  H   UNL     1      43.723  -9.906   5.497  1.00  0.00     0.166 HD
HETATM   19  C   UNL     1      42.311 -11.372   5.658  1.00  0.00     0.090 A 
HETATM   20  C   UNL     1      42.050 -12.672   6.068  1.00  0.00     0.026 A 
BRANCH  16  21
HETATM   21  N   UNL     1      45.844 -10.961   6.384  1.00  0.00    -0.372 N 
HETATM   22  H   UNL     1      46.064 -10.335   5.606  1.00  0.00     0.161 HD
BRANCH  21  23
HETATM   23  C   UNL     1      46.347 -10.541   7.690  1.00  0.00     0.083 A 
HETATM   24  C   UNL     1      46.181  -9.130   8.180  1.00  0.00     0.027 A 
HETATM   25  C   UNL     1      45.371 -10.237   8.790  1.00  0.00     0.027 A 
ENDBRANCH  21  23
ENDBRANCH  16  21
ENDBRANCH   1  14
TORSDOF 5
ENDMDL
MODEL 5
REMARK VINA RESULT:      -7.7      5.652      8.000
REMARK  5 active torsions:
REMARK  status: ('A' for Active; 'I' for Inactive)
REMARK    1  A    between atoms: C_5  and  C_6 
REMARK       I    between atoms: C_6  and  N_7 
REMARK    2  A    between atoms: N_7  and  C_8 
REMARK    3  A    between atoms: C_8  and  C_9 
REMARK    4  A    between atoms: C_11  and  N_12 
REMARK    5  A    between atoms: N_12  and  C_13 
ROOT
HETATM    1  C   UNL     1      43.301 -11.307   4.572  1.00  0.00     0.161 C 
ENDROOT
BRANCH   1   2
HETATM    2  N   UNL     1      43.469 -12.618   3.993  1.00  0.00    -0.353 N 
HETATM    3  C   UNL     1      42.593 -13.651   4.251  1.00  0.00     0.255 C 
HETATM    4  O   UNL     1      41.579 -13.491   4.924  1.00  0.00    -0.268 OA
HETATM    5  H   UNL     1      44.313 -12.810   3.463  1.00  0.00     0.163 HD
BRANCH   3   6
HETATM    6  C   UNL     1      42.904 -14.988   3.671  1.00  0.00     0.071 A 
HETATM    7  C   UNL     1      43.290 -16.085   4.448  1.00  0.00     0.138 A 
HETATM    8  C   UNL     1      43.567 -17.328   3.867  1.00  0.00    -0.022 A 
HETATM    9  F   UNL     1      43.408 -15.962   5.782  1.00  0.00    -0.204 F 
HETATM   10  C   UNL     1      44.007 -18.489   4.710  1.00  0.00     0.051 C 
HETATM   11  C   UNL     1      43.482 -17.460   2.475  1.00  0.00     0.010 A 
HETATM   12  C   UNL     1      43.102 -16.374   1.687  1.00  0.00     0.002 A 
HETATM   13  C   UNL     1      42.812 -15.144   2.280  1.00  0.00     0.020 A 
ENDBRANCH   3   6
ENDBRANCH   1   2
BRANCH   1  14
HETATM   14  C   UNL     1      44.023 -11.202   5.895  1.00  0.00    -0.036 A 
HETATM   15  C   UNL     1      43.301 -10.987   7.077  1.00  0.00     0.057 A 
HETATM   16  C   UNL     1      43.965 -10.828   8.294  1.00  0.00     0.101 A 
HETATM   17  N   UNL     1      45.305 -10.848   8.292  1.00  0.00    -0.353 N 
HETATM   18  H   UNL     1      45.768 -10.671   9.178  1.00  0.00     0.166 HD
HETATM   19  C   UNL     1      46.039 -11.048   7.189  1.00  0.00     0.090 A 
HETATM   20  C   UNL     1      45.416 -11.232   5.962  1.00  0.00     0.026 A 
BRANCH  16  21
HETATM   21  N   UNL     1      43.260 -10.529   9.466  1.00  0.00    -0.372 N 
HETATM   22  H   UNL     1      42.368 -11.027   9.513  1.00  0.00     0.161 HD
BRANCH  21  23
HETATM   23  C   UNL     1      43.931 -10.321  10.748  1.00  0.00     0.083 A 
HETATM   24  C   UNL     1      43.840  -9.012  11.480  1.00  0.00     0.027 A 
HETATM   25  C   UNL     1      43.109 -10.215  12.000  1.00  0.00     0.027 A 
ENDBRANCH  21  23
ENDBRANCH  16  21
ENDBRANCH   1  14
TORSDOF 5
ENDMDL
MODEL 6
REMARK VINA RESULT:      -7.6      3.885      6.136
REMARK  5 active torsions:
REMARK  status: ('A' for Active; 'I' for Inactive)
REMARK    1  A    between atoms: C_5  and  C_6 
REMARK       I    between atoms: C_6  and  N_7 
REMARK    2  A    between atoms: N_7  and  C_8 
REMARK    3  A    between atoms: C_8  and  C_9 
REMARK    4  A    between atoms: C_11  and  N_12 
REMARK    5  A    between atoms: N_12  and  C_13 
ROOT
HETATM    1  C   UNL     1      40.915 -13.849   3.402  1.00  0.00     0.161 C 
ENDROOT
BRANCH   1   2
HETATM    2  N   UNL     1      41.555 -15.100   3.734  1.00  0.00    -0.353 N 
HETATM    3  C   UNL     1      42.754 -15.482   3.171  1.00  0.00     0.255 C 
HETATM    4  O   UNL     1      43.383 -14.745   2.416  1.00  0.00    -0.268 OA
HETATM    5  H   UNL     1      41.055 -15.759   4.322  1.00  0.00     0.163 HD
BRANCH   3   6
HETATM    6  C   UNL     1      43.286 -16.830   3.517  1.00  0.00     0.071 A 
HETATM    7  C   UNL     1      43.262 -17.910   2.629  1.00  0.00     0.138 A 
HETATM    8  C   UNL     1      43.780 -19.160   2.989  1.00  0.00    -0.022 A 
HETATM    9  F   UNL     1      42.730 -17.767   1.402  1.00  0.00    -0.204 F 
HETATM   10  C   UNL     1      43.721 -20.318   2.036  1.00  0.00     0.051 C 
HETATM   11  C   UNL     1      44.304 -19.333   4.276  1.00  0.00     0.010 A 
HETATM   12  C   UNL     1      44.331 -18.265   5.174  1.00  0.00     0.002 A 
HETATM   13  C   UNL     1      43.829 -17.019   4.797  1.00  0.00     0.020 A 
ENDBRANCH   3   6
ENDBRANCH   1   2
BRANCH   1  14
HETATM   14  C   UNL     1      40.957 -12.892   4.571  1.00  0.00    -0.036 A 
HETATM   15  C   UNL     1      42.133 -12.746   5.319  1.00  0.00     0.057 A 
HETATM   16  C   UNL     1      42.162 -11.910   6.437  1.00  0.00     0.101 A 
HETATM   17  N   UNL     1      41.029 -11.288   6.792  1.00  0.00    -0.353 N 
HETATM   18  H   UNL     1      41.057 -10.732   7.641  1.00  0.00     0.166 HD
HETATM   19  C   UNL     1      39.881 -11.397   6.109  1.00  0.00     0.090 A 
HETATM   20  C   UNL     1      39.817 -12.201   4.979  1.00  0.00     0.026 A 
BRANCH  16  21
HETATM   21  N   UNL     1      43.304 -11.822   7.242  1.00  0.00    -0.372 N 
HETATM   22  H   UNL     1      43.650 -12.744   7.516  1.00  0.00     0.161 HD
BRANCH  21  23
HETATM   23  C   UNL     1      44.331 -10.804   7.027  1.00  0.00     0.083 A 
HETATM   24  C   UNL     1      45.342 -10.471   8.088  1.00  0.00     0.027 A 
HETATM   25  C   UNL     1      45.763 -11.227   6.861  1.00  0.00     0.027 A 
ENDBRANCH  21  23
ENDBRANCH  16  21
ENDBRANCH   1  14
TORSDOF 5
ENDMDL
MODEL 7
REMARK VINA RESULT:      -7.5      1.948      2.668
REMARK  5 active torsions:
REMARK  status: ('A' for Active; 'I' for Inactive)
REMARK    1  A    between atoms: C_5  and  C_6 
REMARK       I    between atoms: C_6  and  N_7 
REMARK    2  A    between atoms: N_7  and  C_8 
REMARK    3  A    between atoms: C_8  and  C_9 
REMARK    4  A    between atoms: C_11  and  N_12 
REMARK    5  A    between atoms: N_12  and  C_13 
ROOT
HETATM    1  C   UNL     1      41.025 -12.841   3.123  1.00  0.00     0.161 C 
ENDROOT
BRANCH   1   2
HETATM    2  N   UNL     1      41.933 -13.949   3.301  1.00  0.00    -0.353 N 
HETATM    3  C   UNL     1      41.491 -15.214   3.626  1.00  0.00     0.255 C 
HETATM    4  O   UNL     1      40.297 -15.486   3.706  1.00  0.00    -0.268 OA
HETATM    5  H   UNL     1      42.931 -13.766   3.284  1.00  0.00     0.163 HD
BRANCH   3   6
HETATM    6  C   UNL     1      42.517 -16.267   3.870  1.00  0.00     0.071 A 
HETATM    7  C   UNL     1      42.656 -17.399   3.061  1.00  0.00     0.138 A 
HETATM    8  C   UNL     1      43.639 -18.363   3.319  1.00  0.00    -0.022 A 
HETATM    9  F   UNL     1      41.834 -17.588   2.013  1.00  0.00    -0.204 F 
HETATM   10  C   UNL     1      43.757 -19.587   2.459  1.00  0.00     0.051 C 
HETATM   11  C   UNL     1      44.477 -18.197   4.428  1.00  0.00     0.010 A 
HETATM   12  C   UNL     1      44.348 -17.074   5.246  1.00  0.00     0.002 A 
HETATM   13  C   UNL     1      43.376 -16.112   4.968  1.00  0.00     0.020 A 
ENDBRANCH   3   6
ENDBRANCH   1   2
BRANCH   1  14
HETATM   14  C   UNL     1      40.988 -12.398   1.679  1.00  0.00    -0.036 A 
HETATM   15  C   UNL     1      40.721 -13.326   0.664  1.00  0.00     0.057 A 
HETATM   16  C   UNL     1      40.745 -12.937  -0.677  1.00  0.00     0.101 A 
HETATM   17  N   UNL     1      41.066 -11.667  -0.962  1.00  0.00    -0.353 N 
HETATM   18  H   UNL     1      41.135 -11.421  -1.944  1.00  0.00     0.166 HD
HETATM   19  C   UNL     1      41.329 -10.744  -0.026  1.00  0.00     0.090 A 
HETATM   20  C   UNL     1      41.295 -11.086   1.318  1.00  0.00     0.026 A 
BRANCH  16  21
HETATM   21  N   UNL     1      40.565 -13.873  -1.703  1.00  0.00    -0.372 N 
HETATM   22  H   UNL     1      40.725 -14.829  -1.379  1.00  0.00     0.161 HD
BRANCH  21  23
HETATM   23  C   UNL     1      39.529 -13.720  -2.723  1.00  0.00     0.083 A 
HETATM   24  C   UNL     1      38.519 -14.801  -2.986  1.00  0.00     0.027 A 
HETATM   25  C   UNL     1      38.100 -13.534  -2.299  1.00  0.00     0.027 A 
ENDBRANCH  21  23
ENDBRANCH  16  21
ENDBRANCH   1  14
TORSDOF 5
ENDMDL
MODEL 8
REMARK VINA RESULT:      -7.4      3.046      5.190
REMARK  5 active torsions:
REMARK  status: ('A' for Active; 'I' for Inactive)
REMARK    1  A    between atoms: C_5  and  C_6 
REMARK       I    between atoms: C_6  and  N_7 
REMARK    2  A    between atoms: N_7  and  C_8 
REMARK    3  A    between atoms: C_8  and  C_9 
REMARK    4  A    between atoms: C_11  and  N_12 
REMARK    5  A    between atoms: N_12  and  C_13 
ROOT
HETATM    1  C   UNL     1      41.552 -13.411   0.850  1.00  0.00     0.161 C 
ENDROOT
BRANCH   1   2
HETATM    2  N   UNL     1      42.314 -14.437   1.520  1.00  0.00    -0.353 N 
HETATM    3  C   UNL     1      41.730 -15.595   1.990  1.00  0.00     0.255 C 
HETATM    4  O   UNL     1      40.546 -15.851   1.795  1.00  0.00    -0.268 OA
HETATM    5  H   UNL     1      43.288 -14.253   1.739  1.00  0.00     0.163 HD
BRANCH   3   6
HETATM    6  C   UNL     1      42.590 -16.551   2.742  1.00  0.00     0.071 A 
HETATM    7  C   UNL     1      43.159 -16.251   3.984  1.00  0.00     0.138 A 
HETATM    8  C   UNL     1      43.955 -17.181   4.664  1.00  0.00    -0.022 A 
HETATM    9  F   UNL     1      42.953 -15.049   4.551  1.00  0.00    -0.204 F 
HETATM   10  C   UNL     1      44.582 -16.835   5.983  1.00  0.00     0.051 C 
HETATM   11  C   UNL     1      44.208 -18.422   4.068  1.00  0.00     0.010 A 
HETATM   12  C   UNL     1      43.651 -18.734   2.828  1.00  0.00     0.002 A 
HETATM   13  C   UNL     1      42.844 -17.806   2.168  1.00  0.00     0.020 A 
ENDBRANCH   3   6
ENDBRANCH   1   2
BRANCH   1  14
HETATM   14  C   UNL     1      41.649 -12.096   1.587  1.00  0.00    -0.036 A 
HETATM   15  C   UNL     1      42.368 -12.012   2.787  1.00  0.00     0.057 A 
HETATM   16  C   UNL     1      42.411 -10.816   3.505  1.00  0.00     0.101 A 
HETATM   17  N   UNL     1      41.718  -9.770   3.035  1.00  0.00    -0.353 N 
HETATM   18  H   UNL     1      41.715  -8.928   3.603  1.00  0.00     0.166 HD
HETATM   19  C   UNL     1      41.017  -9.801   1.894  1.00  0.00     0.090 A 
HETATM   20  C   UNL     1      40.966 -10.965   1.140  1.00  0.00     0.026 A 
BRANCH  16  21
HETATM   21  N   UNL     1      43.054 -10.744   4.747  1.00  0.00    -0.372 N 
HETATM   22  H   UNL     1      42.397 -10.553   5.506  1.00  0.00     0.161 HD
BRANCH  21  23
HETATM   23  C   UNL     1      44.179 -11.610   5.093  1.00  0.00     0.083 A 
HETATM   24  C   UNL     1      45.086 -11.298   6.251  1.00  0.00     0.027 A 
HETATM   25  C   UNL     1      44.113 -12.437   6.345  1.00  0.00     0.027 A 
ENDBRANCH  21  23
ENDBRANCH  16  21
ENDBRANCH   1  14
TORSDOF 5
ENDMDL
MODEL 9
REMARK VINA RESULT:      -7.3      2.558      3.625
REMARK  5 active torsions:
REMARK  status: ('A' for Active; 'I' for Inactive)
REMARK    1  A    between atoms: C_5  and  C_6 
REMARK       I    between atoms: C_6  and  N_7 
REMARK    2  A    between atoms: N_7  and  C_8 
REMARK    3  A    between atoms: C_8  and  C_9 
REMARK    4  A    between atoms: C_11  and  N_12 
REMARK    5  A    between atoms: N_12  and  C_13 
ROOT
HETATM    1  C   UNL     1      40.410 -13.851   2.545  1.00  0.00     0.161 C 
ENDROOT
BRANCH   1   2
HETATM    2  N   UNL     1      41.088 -15.053   2.968  1.00  0.00    -0.353 N 
HETATM    3  C   UNL     1      42.445 -15.082   3.213  1.00  0.00     0.255 C 
HETATM    4  O   UNL     1      43.137 -14.070   3.158  1.00  0.00    -0.268 OA
HETATM    5  H   UNL     1      40.566 -15.923   2.989  1.00  0.00     0.163 HD
BRANCH   3   6
HETATM    6  C   UNL     1      43.060 -16.393   3.563  1.00  0.00     0.071 A 
HETATM    7  C   UNL     1      43.027 -17.503   2.712  1.00  0.00     0.138 A 
HETATM    8  C   UNL     1      43.625 -18.716   3.074  1.00  0.00    -0.022 A 
HETATM    9  F   UNL     1      42.410 -17.424   1.520  1.00  0.00    -0.204 F 
HETATM   10  C   UNL     1      43.557 -19.907   2.163  1.00  0.00     0.051 C 
HETATM   11  C   UNL     1      44.239 -18.823   4.328  1.00  0.00     0.010 A 
HETATM   12  C   UNL     1      44.276 -17.726   5.189  1.00  0.00     0.002 A 
HETATM   13  C   UNL     1      43.693 -16.516   4.809  1.00  0.00     0.020 A 
ENDBRANCH   3   6
ENDBRANCH   1   2
BRANCH   1  14
HETATM   14  C   UNL     1      40.472 -13.695   1.043  1.00  0.00    -0.036 A 
HETATM   15  C   UNL     1      40.940 -12.501   0.478  1.00  0.00     0.057 A 
HETATM   16  C   UNL     1      40.943 -12.325  -0.907  1.00  0.00     0.101 A 
HETATM   17  N   UNL     1      40.453 -13.311  -1.671  1.00  0.00    -0.353 N 
HETATM   18  H   UNL     1      40.410 -13.139  -2.670  1.00  0.00     0.166 HD
HETATM   19  C   UNL     1      39.995 -14.470  -1.177  1.00  0.00     0.090 A 
HETATM   20  C   UNL     1      39.994 -14.692   0.193  1.00  0.00     0.026 A 
BRANCH  16  21
HETATM   21  N   UNL     1      41.327 -11.106  -1.478  1.00  0.00    -0.372 N 
HETATM   22  H   UNL     1      40.793 -10.897  -2.324  1.00  0.00     0.161 HD
BRANCH  21  23
HETATM   23  C   UNL     1      41.699  -9.949  -0.667  1.00  0.00     0.083 A 
HETATM   24  C   UNL     1      42.365  -8.745  -1.273  1.00  0.00     0.027 A 
HETATM   25  C   UNL     1      40.935  -8.665  -0.824  1.00  0.00     0.027 A 
ENDBRANCH  21  23
ENDBRANCH  16  21
ENDBRANCH   1  14
TORSDOF 5
ENDMDL
MODEL 10
REMARK VINA RESULT:      -7.2      3.104      7.092
REMARK  5 active torsions:
REMARK  status: ('A' for Active; 'I' for Inactive)
REMARK    1  A    between atoms: C_5  and  C_6 
REMARK       I    between atoms: C_6  and  N_7 
REMARK    2  A    between atoms: N_7  and  C_8 
REMARK    3  A    between atoms: C_8  and  C_9 
REMARK    4  A    between atoms: C_11  and  N_12 
REMARK    5  A    between atoms: N_12  and  C_13 
ROOT
HETATM    1  C   UNL     1      42.995 -13.656   5.228  1.00  0.00     0.161 C 
ENDROOT
BRANCH   1   2
HETATM    2  N   UNL     1      42.548 -13.771   3.860  1.00  0.00    -0.353 N 
HETATM    3  C   UNL     1      41.235 -13.560   3.498  1.00  0.00     0.255 C 
HETATM    4  O   UNL     1      40.389 -13.187   4.305  1.00  0.00    -0.268 OA
HETATM    5  H   UNL     1      43.201 -14.116   3.164  1.00  0.00     0.163 HD
BRANCH   3   6
HETATM    6  C   UNL     1      40.862 -13.788   2.073  1.00  0.00     0.071 A 
HETATM    7  C   UNL     1      41.065 -12.835   1.070  1.00  0.00     0.138 A 
HETATM    8  C   UNL     1      40.709 -13.091  -0.260  1.00  0.00    -0.022 A 
HETATM    9  F   UNL     1      41.608 -11.642   1.369  1.00  0.00    -0.204 F 
HETATM   10  C   UNL     1      40.907 -12.048  -1.321  1.00  0.00     0.051 C 
HETATM   11  C   UNL     1      40.110 -14.316  -0.579  1.00  0.00     0.010 A 
HETATM   12  C   UNL     1      39.897 -15.274   0.412  1.00  0.00     0.002 A 
HETATM   13  C   UNL     1      40.274 -15.015   1.731  1.00  0.00     0.020 A 
ENDBRANCH   3   6
ENDBRANCH   1   2
BRANCH   1  14
HETATM   14  C   UNL     1      43.268 -15.016   5.826  1.00  0.00    -0.036 A 
HETATM   15  C   UNL     1      43.469 -16.124   4.992  1.00  0.00     0.057 A 
HETATM   16  C   UNL     1      43.661 -17.395   5.536  1.00  0.00     0.101 A 
HETATM   17  N   UNL     1      43.609 -17.528   6.869  1.00  0.00    -0.353 N 
HETATM   18  H   UNL     1      43.693 -18.469   7.240  1.00  0.00     0.166 HD
HETATM   19  C   UNL     1      43.419 -16.499   7.706  1.00  0.00     0.090 A 
HETATM   20  C   UNL     1      43.245 -15.216   7.206  1.00  0.00     0.026 A 
BRANCH  16  21
HETATM   21  N   UNL     1      43.778 -18.522   4.713  1.00  0.00    -0.372 N 
HETATM   22  H   UNL     1      43.161 -19.279   5.014  1.00  0.00     0.161 HD
BRANCH  21  23
HETATM   23  C   UNL     1      43.984 -18.414   3.270  1.00  0.00     0.083 A 
HETATM   24  C   UNL     1      43.569 -19.513   2.332  1.00  0.00     0.027 A 
HETATM   25  C   UNL     1      42.796 -18.228   2.370  1.00  0.00     0.027 A 
ENDBRANCH  21  23
ENDBRANCH  16  21
ENDBRANCH   1  14
TORSDOF 5
ENDMDL
