MODEL 1
REMARK VINA RESULT:      -8.7      0.000      0.000
REMARK  7 active torsions:
REMARK  status: ('A' for Active; 'I' for Inactive)
REMARK    1  A    between atoms: O_2  and  C_3 
REMARK    2  A    between atoms: C_3  and  C_4 
REMARK    3  A    between atoms: C_5  and  N_6 
REMARK       I    between atoms: N_6  and  C_7 
REMARK    4  A    between atoms: C_7  and  C_8 
REMARK    5  A    between atoms: C_8  and  N_9 
REMARK    6  A    between atoms: C_11  and  C_12 
REMARK    7  A    between atoms: C_20  and  O_21 
ROOT
HETATM    1  N   UNL     1      39.200 -12.525   1.506  1.00  0.00    -0.054 N 
HETATM    2  H   UNL     1      38.593 -13.184   1.012  1.00  0.00     0.281 HD
HETATM    3  C   UNL     1      40.636 -12.822   1.074  1.00  0.00     0.228 C 
HETATM    4  C   UNL     1      40.789 -12.660  -0.475  1.00  0.00     0.055 C 
HETATM    5  C   UNL     1      40.276 -11.277  -0.949  1.00  0.00     0.065 C 
HETATM    6  C   UNL     1      38.879 -10.971  -0.396  1.00  0.00     0.066 C 
HETATM    7  C   UNL     1      38.806 -11.125   1.108  1.00  0.00     0.239 C 
HETATM    8  C   UNL     1      40.165 -13.766  -1.342  1.00  0.00     0.010 C 
HETATM    9  C   UNL     1      40.494 -13.598  -2.832  1.00  0.00     0.001 C 
HETATM   10  C   UNL     1      41.022 -12.216  -3.202  1.00  0.00     0.003 C 
HETATM   11  C   UNL     1      40.239 -11.122  -2.488  1.00  0.00     0.038 C 
ENDROOT
BRANCH   1  12
HETATM   12  C   UNL     1      38.906 -12.740   3.016  1.00  0.00     0.338 C 
BRANCH  12  13
HETATM   13  C   UNL     1      39.502 -11.720   3.998  1.00  0.00     0.248 C 
HETATM   14  N   UNL     1      40.778 -11.856   4.465  1.00  0.00    -0.319 N 
HETATM   15  H   UNL     1      41.219 -10.968   4.720  1.00  0.00     0.169 HD
HETATM   16  O   UNL     1      38.890 -10.678   4.253  1.00  0.00    -0.271 OA
BRANCH  14  17
HETATM   17  C   UNL     1      41.474 -12.974   4.904  1.00  0.00     0.094 A 
HETATM   18  C   UNL     1      42.830 -13.037   5.211  1.00  0.00     0.080 A 
HETATM   19  C   UNL     1      43.167 -14.337   5.768  1.00  0.00    -0.026 A 
HETATM   20  C   UNL     1      42.047 -15.136   5.898  1.00  0.00    -0.008 A 
HETATM   21  C   UNL     1      44.516 -14.806   6.254  1.00  0.00     0.041 C 
HETATM   22  S   UNL     1      40.647 -14.395   5.313  1.00  0.00    -0.075 SA
HETATM   23  C   UNL     1      42.022 -16.513   6.489  1.00  0.00     0.047 C 
HETATM   24  C   UNL     1      43.273 -16.742   7.347  1.00  0.00     0.005 C 
HETATM   25  C   UNL     1      44.538 -16.304   6.600  1.00  0.00     0.005 C 
BRANCH  18  26
HETATM   26  C   UNL     1      43.727 -11.894   4.985  1.00  0.00     0.296 C 
HETATM   27  O   UNL     1      44.015 -11.503   3.859  1.00  0.00    -0.259 OA
BRANCH  26  28
HETATM   28  O   UNL     1      44.196 -11.333   6.132  1.00  0.00    -0.322 OA
HETATM   29  C   UNL     1      45.619 -11.256   6.224  1.00  0.00     0.213 C 
ENDBRANCH  26  28
ENDBRANCH  18  26
ENDBRANCH  14  17
ENDBRANCH  12  13
ENDBRANCH   1  12
BRANCH   3  30
HETATM   30  C   UNL     1      41.197 -14.155   1.560  1.00  0.00    -0.027 A 
HETATM   31  C   UNL     1      40.403 -15.301   1.750  1.00  0.00     0.012 A 
HETATM   32  C   UNL     1      40.978 -16.504   2.168  1.00  0.00     0.043 A 
HETATM   33  C   UNL     1      42.347 -16.573   2.396  1.00  0.00     0.116 A 
HETATM   34  F   UNL     1      42.892 -17.730   2.790  1.00  0.00    -0.206 F 
HETATM   35  C   UNL     1      43.154 -15.461   2.216  1.00  0.00     0.043 A 
HETATM   36  C   UNL     1      42.583 -14.256   1.798  1.00  0.00     0.012 A 
ENDBRANCH   3  30
BRANCH   5  37
HETATM   37  O   UNL     1      41.152 -10.289  -0.401  1.00  0.00    -0.389 OA
HETATM   38  H   UNL     1      41.129 -10.346   0.575  1.00  0.00     0.210 HD
ENDBRANCH   5  37
TORSDOF 7
ENDMDL
MODEL 2
REMARK VINA RESULT:      -8.4      3.207      6.175
REMARK  7 active torsions:
REMARK  status: ('A' for Active; 'I' for Inactive)
REMARK    1  A    between atoms: O_2  and  C_3 
REMARK    2  A    between atoms: C_3  and  C_4 
REMARK    3  A    between atoms: C_5  and  N_6 
REMARK       I    between atoms: N_6  and  C_7 
REMARK    4  A    between atoms: C_7  and  C_8 
REMARK    5  A    between atoms: C_8  and  N_9 
REMARK    6  A    between atoms: C_11  and  C_12 
REMARK    7  A    between atoms: C_20  and  O_21 
ROOT
HETATM    1  N   UNL     1      42.084 -13.662   5.144  1.00  0.00    -0.054 N 
HETATM    2  H   UNL     1      43.026 -13.630   4.744  1.00  0.00     0.281 HD
HETATM    3  C   UNL     1      41.400 -14.913   4.590  1.00  0.00     0.228 C 
HETATM    4  C   UNL     1      42.208 -16.197   4.974  1.00  0.00     0.055 C 
HETATM    5  C   UNL     1      42.470 -16.262   6.500  1.00  0.00     0.065 C 
HETATM    6  C   UNL     1      43.047 -14.945   7.031  1.00  0.00     0.066 C 
HETATM    7  C   UNL     1      42.208 -13.747   6.644  1.00  0.00     0.239 C 
HETATM    8  C   UNL     1      43.526 -16.427   4.215  1.00  0.00     0.010 C 
HETATM    9  C   UNL     1      44.168 -17.780   4.551  1.00  0.00     0.001 C 
HETATM   10  C   UNL     1      43.610 -18.438   5.810  1.00  0.00     0.003 C 
HETATM   11  C   UNL     1      43.412 -17.416   6.920  1.00  0.00     0.038 C 
ENDROOT
BRANCH   1  12
HETATM   12  C   UNL     1      41.418 -12.315   4.750  1.00  0.00     0.338 C 
BRANCH  12  13
HETATM   13  C   UNL     1      42.353 -11.139   4.430  1.00  0.00     0.248 C 
HETATM   14  N   UNL     1      43.181 -10.619   5.384  1.00  0.00    -0.319 N 
HETATM   15  H   UNL     1      44.029 -10.190   5.004  1.00  0.00     0.169 HD
HETATM   16  O   UNL     1      42.484 -10.754   3.264  1.00  0.00    -0.271 OA
BRANCH  14  17
HETATM   17  C   UNL     1      42.959 -10.329   6.723  1.00  0.00     0.094 A 
HETATM   18  C   UNL     1      43.848 -10.536   7.774  1.00  0.00     0.080 A 
HETATM   19  C   UNL     1      43.317  -9.983   9.009  1.00  0.00    -0.026 A 
HETATM   20  C   UNL     1      42.106  -9.350   8.798  1.00  0.00    -0.008 A 
HETATM   21  C   UNL     1      43.974  -9.970  10.367  1.00  0.00     0.041 C 
HETATM   22  S   UNL     1      41.579  -9.469   7.199  1.00  0.00    -0.075 SA
HETATM   23  C   UNL     1      41.310  -8.622   9.839  1.00  0.00     0.047 C 
HETATM   24  C   UNL     1      42.205  -8.262  11.032  1.00  0.00     0.005 C 
HETATM   25  C   UNL     1      43.036  -9.470  11.478  1.00  0.00     0.005 C 
BRANCH  18  26
HETATM   26  C   UNL     1      45.135 -11.218   7.572  1.00  0.00     0.296 C 
HETATM   27  O   UNL     1      45.243 -12.211   6.861  1.00  0.00    -0.259 OA
BRANCH  26  28
HETATM   28  O   UNL     1      46.168 -10.645   8.248  1.00  0.00    -0.322 OA
HETATM   29  C   UNL     1      46.514  -9.330   7.811  1.00  0.00     0.213 C 
ENDBRANCH  26  28
ENDBRANCH  18  26
ENDBRANCH  14  17
ENDBRANCH  12  13
ENDBRANCH   1  12
BRANCH   3  30
HETATM   30  C   UNL     1      41.082 -14.871   3.099  1.00  0.00    -0.027 A 
HETATM   31  C   UNL     1      40.112 -15.692   2.496  1.00  0.00     0.012 A 
HETATM   32  C   UNL     1      39.841 -15.588   1.129  1.00  0.00     0.043 A 
HETATM   33  C   UNL     1      40.533 -14.663   0.356  1.00  0.00     0.116 A 
HETATM   34  F   UNL     1      40.264 -14.564  -0.951  1.00  0.00    -0.206 F 
HETATM   35  C   UNL     1      41.493 -13.840   0.923  1.00  0.00     0.043 A 
HETATM   36  C   UNL     1      41.766 -13.941   2.289  1.00  0.00     0.012 A 
ENDBRANCH   3  30
BRANCH   5  37
HETATM   37  O   UNL     1      41.204 -16.435   7.140  1.00  0.00    -0.389 OA
HETATM   38  H   UNL     1      40.516 -15.973   6.621  1.00  0.00     0.210 HD
ENDBRANCH   5  37
TORSDOF 7
ENDMDL
MODEL 3
REMARK VINA RESULT:      -8.3      3.092      4.632
REMARK  7 active torsions:
REMARK  status: ('A' for Active; 'I' for Inactive)
REMARK    1  A    between atoms: O_2  and  C_3 
REMARK    2  A    between atoms: C_3  and  C_4 
REMARK    3  A    between atoms: C_5  and  N_6 
REMARK       I    between atoms: N_6  and  C_7 
REMARK    4  A    between atoms: C_7  and  C_8 
REMARK    5  A    between atoms: C_8  and  N_9 
REMARK    6  A    between atoms: C_11  and  C_12 
REMARK    7  A    between atoms: C_20  and  O_21 
ROOT
HETATM    1  N   UNL     1      40.423 -13.721   1.472  1.00  0.00    -0.054 N 
HETATM    2  H   UNL     1      41.389 -13.440   1.283  1.00  0.00     0.281 HD
HETATM    3  C   UNL     1      39.530 -12.526   1.135  1.00  0.00     0.228 C 
HETATM    4  C   UNL     1      39.702 -12.117  -0.366  1.00  0.00     0.055 C 
HETATM    5  C   UNL     1      39.492 -13.330  -1.307  1.00  0.00     0.065 C 
HETATM    6  C   UNL     1      40.319 -14.542  -0.862  1.00  0.00     0.066 C 
HETATM    7  C   UNL     1      40.090 -14.898   0.591  1.00  0.00     0.239 C 
HETATM    8  C   UNL     1      41.014 -11.403  -0.732  1.00  0.00     0.010 C 
HETATM    9  C   UNL     1      41.026 -10.910  -2.186  1.00  0.00     0.001 C 
HETATM   10  C   UNL     1      39.950 -11.539  -3.066  1.00  0.00     0.003 C 
HETATM   11  C   UNL     1      39.819 -13.030  -2.789  1.00  0.00     0.038 C 
ENDROOT
BRANCH   1  12
HETATM   12  C   UNL     1      40.403 -14.162   2.961  1.00  0.00     0.338 C 
BRANCH  12  13
HETATM   13  C   UNL     1      41.570 -13.697   3.846  1.00  0.00     0.248 C 
HETATM   14  N   UNL     1      42.794 -14.300   3.769  1.00  0.00    -0.319 N 
HETATM   15  H   UNL     1      43.572 -13.686   4.025  1.00  0.00     0.169 HD
HETATM   16  O   UNL     1      41.462 -12.670   4.521  1.00  0.00    -0.271 OA
BRANCH  14  17
HETATM   17  C   UNL     1      43.145 -15.639   3.675  1.00  0.00     0.094 A 
HETATM   18  C   UNL     1      43.368 -16.513   4.736  1.00  0.00     0.080 A 
HETATM   19  C   UNL     1      43.581 -17.866   4.248  1.00  0.00    -0.026 A 
HETATM   20  C   UNL     1      43.447 -17.932   2.873  1.00  0.00    -0.008 A 
HETATM   21  C   UNL     1      43.828 -19.109   5.065  1.00  0.00     0.041 C 
HETATM   22  S   UNL     1      43.147 -16.425   2.174  1.00  0.00    -0.075 SA
HETATM   23  C   UNL     1      43.544 -19.180   2.048  1.00  0.00     0.047 C 
HETATM   24  C   UNL     1      43.343 -20.416   2.933  1.00  0.00     0.005 C 
HETATM   25  C   UNL     1      44.198 -20.327   4.202  1.00  0.00     0.005 C 
BRANCH  18  26
HETATM   26  C   UNL     1      43.357 -16.050   6.132  1.00  0.00     0.296 C 
HETATM   27  O   UNL     1      44.199 -15.272   6.568  1.00  0.00    -0.259 OA
BRANCH  26  28
HETATM   28  O   UNL     1      42.341 -16.571   6.872  1.00  0.00    -0.322 OA
HETATM   29  C   UNL     1      41.077 -15.932   6.687  1.00  0.00     0.213 C 
ENDBRANCH  26  28
ENDBRANCH  18  26
ENDBRANCH  14  17
ENDBRANCH  12  13
ENDBRANCH   1  12
BRANCH   3  30
HETATM   30  C   UNL     1      39.673 -11.327   2.067  1.00  0.00    -0.027 A 
HETATM   31  C   UNL     1      40.821 -10.516   2.107  1.00  0.00     0.012 A 
HETATM   32  C   UNL     1      40.882  -9.411   2.960  1.00  0.00     0.043 A 
HETATM   33  C   UNL     1      39.799  -9.106   3.775  1.00  0.00     0.116 A 
HETATM   34  F   UNL     1      39.862  -8.042   4.585  1.00  0.00    -0.206 F 
HETATM   35  C   UNL     1      38.654  -9.887   3.756  1.00  0.00     0.043 A 
HETATM   36  C   UNL     1      38.589 -10.993   2.904  1.00  0.00     0.012 A 
ENDBRANCH   3  30
BRANCH   5  37
HETATM   37  O   UNL     1      38.120 -13.717  -1.200  1.00  0.00    -0.389 OA
HETATM   38  H   UNL     1      37.682 -13.588  -2.064  1.00  0.00     0.210 HD
ENDBRANCH   5  37
TORSDOF 7
ENDMDL
MODEL 4
REMARK VINA RESULT:      -8.2      4.888      7.591
REMARK  7 active torsions:
REMARK  status: ('A' for Active; 'I' for Inactive)
REMARK    1  A    between atoms: O_2  and  C_3 
REMARK    2  A    between atoms: C_3  and  C_4 
REMARK    3  A    between atoms: C_5  and  N_6 
REMARK       I    between atoms: N_6  and  C_7 
REMARK    4  A    between atoms: C_7  and  C_8 
REMARK    5  A    between atoms: C_8  and  N_9 
REMARK    6  A    between atoms: C_11  and  C_12 
REMARK    7  A    between atoms: C_20  and  O_21 
ROOT
HETATM    1  N   UNL     1      41.136 -12.207   6.493  1.00  0.00    -0.054 N 
HETATM    2  H   UNL     1      41.079 -12.473   7.480  1.00  0.00     0.281 HD
HETATM    3  C   UNL     1      42.518 -12.627   5.990  1.00  0.00     0.228 C 
HETATM    4  C   UNL     1      42.718 -14.170   6.159  1.00  0.00     0.055 C 
HETATM    5  C   UNL     1      41.557 -14.963   5.508  1.00  0.00     0.065 C 
HETATM    6  C   UNL     1      40.190 -14.431   5.951  1.00  0.00     0.066 C 
HETATM    7  C   UNL     1      40.053 -12.938   5.741  1.00  0.00     0.239 C 
HETATM    8  C   UNL     1      42.946 -14.676   7.593  1.00  0.00     0.010 C 
HETATM    9  C   UNL     1      43.280 -16.174   7.640  1.00  0.00     0.001 C 
HETATM   10  C   UNL     1      42.950 -16.926   6.355  1.00  0.00     0.003 C 
HETATM   11  C   UNL     1      41.607 -16.484   5.791  1.00  0.00     0.038 C 
ENDROOT
BRANCH   1  12
HETATM   12  C   UNL     1      40.856 -10.680   6.457  1.00  0.00     0.338 C 
BRANCH  12  13
HETATM   13  C   UNL     1      39.535 -10.195   7.075  1.00  0.00     0.248 C 
HETATM   14  N   UNL     1      39.528  -9.284   8.093  1.00  0.00    -0.319 N 
HETATM   15  H   UNL     1      38.678  -8.714   8.128  1.00  0.00     0.169 HD
HETATM   16  O   UNL     1      38.460 -10.502   6.552  1.00  0.00    -0.271 OA
BRANCH  14  17
HETATM   17  C   UNL     1      40.320  -9.179   9.227  1.00  0.00     0.094 A 
HETATM   18  C   UNL     1      41.440  -8.365   9.382  1.00  0.00     0.080 A 
HETATM   19  C   UNL     1      41.926  -8.421  10.751  1.00  0.00    -0.026 A 
HETATM   20  C   UNL     1      41.116  -9.215  11.542  1.00  0.00    -0.008 A 
HETATM   21  C   UNL     1      43.094  -7.671  11.342  1.00  0.00     0.041 C 
HETATM   22  S   UNL     1      39.857  -9.930  10.673  1.00  0.00    -0.075 SA
HETATM   23  C   UNL     1      41.290  -9.445  13.013  1.00  0.00     0.047 C 
HETATM   24  C   UNL     1      42.171  -8.346  13.619  1.00  0.00     0.005 C 
HETATM   25  C   UNL     1      43.430  -8.124  12.773  1.00  0.00     0.005 C 
BRANCH  18  26
HETATM   26  C   UNL     1      41.983  -7.579   8.264  1.00  0.00     0.296 C 
HETATM   27  O   UNL     1      43.154  -7.669   7.911  1.00  0.00    -0.259 OA
BRANCH  26  28
HETATM   28  O   UNL     1      41.070  -6.755   7.682  1.00  0.00    -0.322 OA
HETATM   29  C   UNL     1      40.788  -5.560   8.413  1.00  0.00     0.213 C 
ENDBRANCH  26  28
ENDBRANCH  18  26
ENDBRANCH  14  17
ENDBRANCH  12  13
ENDBRANCH   1  12
BRANCH   3  30
HETATM   30  C   UNL     1      43.686 -11.839   6.572  1.00  0.00    -0.027 A 
HETATM   31  C   UNL     1      43.661 -11.256   7.852  1.00  0.00     0.012 A 
HETATM   32  C   UNL     1      44.775 -10.571   8.345  1.00  0.00     0.043 A 
HETATM   33  C   UNL     1      45.921 -10.466   7.567  1.00  0.00     0.116 A 
HETATM   34  F   UNL     1      46.986  -9.814   8.048  1.00  0.00    -0.206 F 
HETATM   35  C   UNL     1      45.976 -11.032   6.303  1.00  0.00     0.043 A 
HETATM   36  C   UNL     1      44.864 -11.717   5.807  1.00  0.00     0.012 A 
ENDBRANCH   3  30
BRANCH   5  37
HETATM   37  O   UNL     1      41.636 -14.747   4.096  1.00  0.00    -0.389 OA
HETATM   38  H   UNL     1      40.808 -14.327   3.790  1.00  0.00     0.210 HD
ENDBRANCH   5  37
TORSDOF 7
ENDMDL
MODEL 5
REMARK VINA RESULT:      -8.2      4.012      6.013
REMARK  7 active torsions:
REMARK  status: ('A' for Active; 'I' for Inactive)
REMARK    1  A    between atoms: O_2  and  C_3 
REMARK    2  A    between atoms: C_3  and  C_4 
REMARK    3  A    between atoms: C_5  and  N_6 
REMARK       I    between atoms: N_6  and  C_7 
REMARK    4  A    between atoms: C_7  and  C_8 
REMARK    5  A    between atoms: C_8  and  N_9 
REMARK    6  A    between atoms: C_11  and  C_12 
REMARK    7  A    between atoms: C_20  and  O_21 
ROOT
HETATM    1  N   UNL     1      40.192 -11.524   4.391  1.00  0.00    -0.054 N 
HETATM    2  H   UNL     1      39.844 -12.105   5.159  1.00  0.00     0.281 HD
HETATM    3  C   UNL     1      41.542 -12.101   3.965  1.00  0.00     0.228 C 
HETATM    4  C   UNL     1      41.385 -13.589   3.505  1.00  0.00     0.055 C 
HETATM    5  C   UNL     1      40.284 -13.730   2.424  1.00  0.00     0.065 C 
HETATM    6  C   UNL     1      38.984 -13.036   2.845  1.00  0.00     0.066 C 
HETATM    7  C   UNL     1      39.203 -11.596   3.255  1.00  0.00     0.239 C 
HETATM    8  C   UNL     1      41.150 -14.625   4.617  1.00  0.00     0.010 C 
HETATM    9  C   UNL     1      41.157 -16.065   4.087  1.00  0.00     0.001 C 
HETATM   10  C   UNL     1      41.009 -16.172   2.572  1.00  0.00     0.003 C 
HETATM   11  C   UNL     1      39.960 -15.198   2.055  1.00  0.00     0.038 C 
ENDROOT
BRANCH   1  12
HETATM   12  C   UNL     1      40.239 -10.077   4.952  1.00  0.00     0.338 C 
BRANCH  12  13
HETATM   13  C   UNL     1      39.216  -9.714   6.039  1.00  0.00     0.248 C 
HETATM   14  N   UNL     1      39.554  -8.886   7.073  1.00  0.00    -0.319 N 
HETATM   15  H   UNL     1      38.760  -8.367   7.459  1.00  0.00     0.169 HD
HETATM   16  O   UNL     1      38.032 -10.037   5.907  1.00  0.00    -0.271 OA
BRANCH  14  17
HETATM   17  C   UNL     1      40.697  -8.826   7.856  1.00  0.00     0.094 A 
HETATM   18  C   UNL     1      40.818  -9.247   9.178  1.00  0.00     0.080 A 
HETATM   19  C   UNL     1      42.200  -9.153   9.619  1.00  0.00    -0.026 A 
HETATM   20  C   UNL     1      43.028  -8.731   8.596  1.00  0.00    -0.008 A 
HETATM   21  C   UNL     1      42.762  -9.534  10.966  1.00  0.00     0.041 C 
HETATM   22  S   UNL     1      42.185  -8.388   7.174  1.00  0.00    -0.075 SA
HETATM   23  C   UNL     1      44.517  -8.581   8.685  1.00  0.00     0.047 C 
HETATM   24  C   UNL     1      45.059  -9.385   9.874  1.00  0.00     0.005 C 
HETATM   25  C   UNL     1      44.233  -9.119  11.138  1.00  0.00     0.005 C 
BRANCH  18  26
HETATM   26  C   UNL     1      39.657  -9.720   9.947  1.00  0.00     0.296 C 
HETATM   27  O   UNL     1      38.826 -10.485   9.469  1.00  0.00    -0.259 OA
BRANCH  26  28
HETATM   28  O   UNL     1      39.602  -9.225  11.213  1.00  0.00    -0.322 OA
HETATM   29  C   UNL     1      39.506 -10.214  12.240  1.00  0.00     0.213 C 
ENDBRANCH  26  28
ENDBRANCH  18  26
ENDBRANCH  14  17
ENDBRANCH  12  13
ENDBRANCH   1  12
BRANCH   3  30
HETATM   30  C   UNL     1      42.666 -11.941   4.983  1.00  0.00    -0.027 A 
HETATM   31  C   UNL     1      42.507 -12.211   6.354  1.00  0.00     0.012 A 
HETATM   32  C   UNL     1      43.583 -12.076   7.236  1.00  0.00     0.043 A 
HETATM   33  C   UNL     1      44.823 -11.674   6.757  1.00  0.00     0.116 A 
HETATM   34  F   UNL     1      45.850 -11.552   7.606  1.00  0.00    -0.206 F 
HETATM   35  C   UNL     1      45.010 -11.401   5.411  1.00  0.00     0.043 A 
HETATM   36  C   UNL     1      43.937 -11.535   4.526  1.00  0.00     0.012 A 
ENDBRANCH   3  30
BRANCH   5  37
HETATM   37  O   UNL     1      40.747 -13.046   1.257  1.00  0.00    -0.389 OA
HETATM   38  H   UNL     1      41.719 -13.134   1.197  1.00  0.00     0.210 HD
ENDBRANCH   5  37
TORSDOF 7
ENDMDL
MODEL 6
REMARK VINA RESULT:      -8.2      3.379      7.267
REMARK  7 active torsions:
REMARK  status: ('A' for Active; 'I' for Inactive)
REMARK    1  A    between atoms: O_2  and  C_3 
REMARK    2  A    between atoms: C_3  and  C_4 
REMARK    3  A    between atoms: C_5  and  N_6 
REMARK       I    between atoms: N_6  and  C_7 
REMARK    4  A    between atoms: C_7  and  C_8 
REMARK    5  A    between atoms: C_8  and  N_9 
REMARK    6  A    between atoms: C_11  and  C_12 
REMARK    7  A    between atoms: C_20  and  O_21 
ROOT
HETATM    1  N   UNL     1      42.388 -11.918   5.607  1.00  0.00    -0.054 N 
HETATM    2  H   UNL     1      41.849 -12.126   6.452  1.00  0.00     0.281 HD
HETATM    3  C   UNL     1      42.715 -10.425   5.635  1.00  0.00     0.228 C 
HETATM    4  C   UNL     1      43.538 -10.066   6.917  1.00  0.00     0.055 C 
HETATM    5  C   UNL     1      44.785 -10.974   7.058  1.00  0.00     0.065 C 
HETATM    6  C   UNL     1      44.426 -12.457   6.908  1.00  0.00     0.066 C 
HETATM    7  C   UNL     1      43.652 -12.739   5.638  1.00  0.00     0.239 C 
HETATM    8  C   UNL     1      42.760 -10.049   8.244  1.00  0.00     0.010 C 
HETATM    9  C   UNL     1      43.612  -9.544   9.416  1.00  0.00     0.001 C 
HETATM   10  C   UNL     1      45.112  -9.528   9.135  1.00  0.00     0.003 C 
HETATM   11  C   UNL     1      45.543 -10.786   8.394  1.00  0.00     0.038 C 
ENDROOT
BRANCH   1  12
HETATM   12  C   UNL     1      41.496 -12.378   4.422  1.00  0.00     0.338 C 
BRANCH  12  13
HETATM   13  C   UNL     1      40.218 -13.157   4.767  1.00  0.00     0.248 C 
HETATM   14  N   UNL     1      40.283 -14.422   5.280  1.00  0.00    -0.319 N 
HETATM   15  H   UNL     1      39.482 -14.669   5.867  1.00  0.00     0.169 HD
HETATM   16  O   UNL     1      39.122 -12.591   4.735  1.00  0.00    -0.271 OA
BRANCH  14  17
HETATM   17  C   UNL     1      41.081 -15.504   4.939  1.00  0.00     0.094 A 
HETATM   18  C   UNL     1      41.323 -15.982   3.653  1.00  0.00     0.080 A 
HETATM   19  C   UNL     1      42.316 -17.042   3.680  1.00  0.00    -0.026 A 
HETATM   20  C   UNL     1      42.797 -17.250   4.960  1.00  0.00    -0.008 A 
HETATM   21  C   UNL     1      42.879 -17.804   2.506  1.00  0.00     0.041 C 
HETATM   22  S   UNL     1      42.043 -16.266   6.107  1.00  0.00    -0.075 SA
HETATM   23  C   UNL     1      43.871 -18.224   5.340  1.00  0.00     0.047 C 
HETATM   24  C   UNL     1      44.688 -18.619   4.104  1.00  0.00     0.005 C 
HETATM   25  C   UNL     1      43.769 -18.983   2.932  1.00  0.00     0.005 C 
BRANCH  18  26
HETATM   26  C   UNL     1      40.633 -15.423   2.480  1.00  0.00     0.296 C 
HETATM   27  O   UNL     1      39.438 -15.611   2.275  1.00  0.00    -0.259 OA
BRANCH  26  28
HETATM   28  O   UNL     1      41.444 -14.697   1.664  1.00  0.00    -0.322 OA
HETATM   29  C   UNL     1      40.780 -13.688   0.902  1.00  0.00     0.213 C 
ENDBRANCH  26  28
ENDBRANCH  18  26
ENDBRANCH  14  17
ENDBRANCH  12  13
ENDBRANCH   1  12
BRANCH   3  30
HETATM   30  C   UNL     1      41.520  -9.496   5.452  1.00  0.00    -0.027 A 
HETATM   31  C   UNL     1      41.483  -8.470   4.489  1.00  0.00     0.012 A 
HETATM   32  C   UNL     1      40.347  -7.669   4.347  1.00  0.00     0.043 A 
HETATM   33  C   UNL     1      39.242  -7.886   5.160  1.00  0.00     0.116 A 
HETATM   34  F   UNL     1      38.155  -7.119   5.014  1.00  0.00    -0.206 F 
HETATM   35  C   UNL     1      39.250  -8.889   6.116  1.00  0.00     0.043 A 
HETATM   36  C   UNL     1      40.383  -9.693   6.262  1.00  0.00     0.012 A 
ENDBRANCH   3  30
BRANCH   5  37
HETATM   37  O   UNL     1      45.663 -10.660   5.975  1.00  0.00    -0.389 OA
HETATM   38  H   UNL     1      45.574  -9.712   5.754  1.00  0.00     0.210 HD
ENDBRANCH   5  37
TORSDOF 7
ENDMDL
MODEL 7
REMARK VINA RESULT:      -8.0      3.295      6.479
REMARK  7 active torsions:
REMARK  status: ('A' for Active; 'I' for Inactive)
REMARK    1  A    between atoms: O_2  and  C_3 
REMARK    2  A    between atoms: C_3  and  C_4 
REMARK    3  A    between atoms: C_5  and  N_6 
REMARK       I    between atoms: N_6  and  C_7 
REMARK    4  A    between atoms: C_7  and  C_8 
REMARK    5  A    between atoms: C_8  and  N_9 
REMARK    6  A    between atoms: C_11  and  C_12 
REMARK    7  A    between atoms: C_20  and  O_21 
ROOT
HETATM    1  N   UNL     1      42.697 -13.879   5.234  1.00  0.00    -0.054 N 
HETATM    2  H   UNL     1      43.586 -13.981   4.738  1.00  0.00     0.281 HD
HETATM    3  C   UNL     1      41.791 -15.022   4.778  1.00  0.00     0.228 C 
HETATM    4  C   UNL     1      42.447 -16.407   5.101  1.00  0.00     0.055 C 
HETATM    5  C   UNL     1      42.857 -16.500   6.592  1.00  0.00     0.065 C 
HETATM    6  C   UNL     1      43.665 -15.276   7.036  1.00  0.00     0.066 C 
HETATM    7  C   UNL     1      42.965 -13.973   6.715  1.00  0.00     0.239 C 
HETATM    8  C   UNL     1      43.632 -16.823   4.214  1.00  0.00     0.010 C 
HETATM    9  C   UNL     1      44.110 -18.251   4.508  1.00  0.00     0.001 C 
HETATM   10  C   UNL     1      43.602 -18.819   5.830  1.00  0.00     0.003 C 
HETATM   11  C   UNL     1      43.667 -17.774   6.935  1.00  0.00     0.038 C 
ENDROOT
BRANCH   1  12
HETATM   12  C   UNL     1      42.188 -12.453   4.886  1.00  0.00     0.338 C 
BRANCH  12  13
HETATM   13  C   UNL     1      43.248 -11.400   4.525  1.00  0.00     0.248 C 
HETATM   14  N   UNL     1      44.088 -10.894   5.476  1.00  0.00    -0.319 N 
HETATM   15  H   UNL     1      44.987 -10.578   5.104  1.00  0.00     0.169 HD
HETATM   16  O   UNL     1      43.459 -11.116   3.343  1.00  0.00    -0.271 OA
BRANCH  14  17
HETATM   17  C   UNL     1      43.847 -10.486   6.780  1.00  0.00     0.094 A 
HETATM   18  C   UNL     1      42.725  -9.801   7.240  1.00  0.00     0.080 A 
HETATM   19  C   UNL     1      42.765  -9.668   8.687  1.00  0.00    -0.026 A 
HETATM   20  C   UNL     1      43.869 -10.306   9.221  1.00  0.00    -0.008 A 
HETATM   21  C   UNL     1      41.735  -9.020   9.578  1.00  0.00     0.041 C 
HETATM   22  S   UNL     1      44.866 -10.982   8.039  1.00  0.00    -0.075 SA
HETATM   23  C   UNL     1      44.189 -10.417  10.682  1.00  0.00     0.047 C 
HETATM   24  C   UNL     1      42.931 -10.156  11.520  1.00  0.00     0.005 C 
HETATM   25  C   UNL     1      42.203  -8.896  11.038  1.00  0.00     0.005 C 
BRANCH  18  26
HETATM   26  C   UNL     1      41.682  -9.324   6.320  1.00  0.00     0.296 C 
HETATM   27  O   UNL     1      41.895  -8.446   5.490  1.00  0.00    -0.259 OA
BRANCH  26  28
HETATM   28  O   UNL     1      40.482  -9.942   6.487  1.00  0.00    -0.322 OA
HETATM   29  C   UNL     1      39.344  -9.142   6.158  1.00  0.00     0.213 C 
ENDBRANCH  26  28
ENDBRANCH  18  26
ENDBRANCH  14  17
ENDBRANCH  12  13
ENDBRANCH   1  12
BRANCH   3  30
HETATM   30  C   UNL     1      41.326 -14.943   3.328  1.00  0.00    -0.027 A 
HETATM   31  C   UNL     1      41.949 -14.131   2.363  1.00  0.00     0.012 A 
HETATM   32  C   UNL     1      41.498 -14.122   1.041  1.00  0.00     0.043 A 
HETATM   33  C   UNL     1      40.425 -14.924   0.672  1.00  0.00     0.116 A 
HETATM   34  F   UNL     1      40.002 -14.916  -0.598  1.00  0.00    -0.206 F 
HETATM   35  C   UNL     1      39.792 -15.735   1.600  1.00  0.00     0.043 A 
HETATM   36  C   UNL     1      40.241 -15.747   2.923  1.00  0.00     0.012 A 
ENDBRANCH   3  30
BRANCH   5  37
HETATM   37  O   UNL     1      41.653 -16.490   7.364  1.00  0.00    -0.389 OA
HETATM   38  H   UNL     1      41.844 -16.126   8.251  1.00  0.00     0.210 HD
ENDBRANCH   5  37
TORSDOF 7
ENDMDL
MODEL 8
REMARK VINA RESULT:      -8.0      3.875      6.114
REMARK  7 active torsions:
REMARK  status: ('A' for Active; 'I' for Inactive)
REMARK    1  A    between atoms: O_2  and  C_3 
REMARK    2  A    between atoms: C_3  and  C_4 
REMARK    3  A    between atoms: C_5  and  N_6 
REMARK       I    between atoms: N_6  and  C_7 
REMARK    4  A    between atoms: C_7  and  C_8 
REMARK    5  A    between atoms: C_8  and  N_9 
REMARK    6  A    between atoms: C_11  and  C_12 
REMARK    7  A    between atoms: C_20  and  O_21 
ROOT
HETATM    1  N   UNL     1      41.895 -12.974   5.049  1.00  0.00    -0.054 N 
HETATM    2  H   UNL     1      42.727 -12.637   4.558  1.00  0.00     0.281 HD
HETATM    3  C   UNL     1      41.000 -13.651   4.010  1.00  0.00     0.228 C 
HETATM    4  C   UNL     1      41.755 -14.838   3.323  1.00  0.00     0.055 C 
HETATM    5  C   UNL     1      42.333 -15.820   4.373  1.00  0.00     0.065 C 
HETATM    6  C   UNL     1      43.125 -15.084   5.460  1.00  0.00     0.066 C 
HETATM    7  C   UNL     1      42.332 -13.965   6.098  1.00  0.00     0.239 C 
HETATM    8  C   UNL     1      42.852 -14.456   2.316  1.00  0.00     0.010 C 
HETATM    9  C   UNL     1      43.429 -15.678   1.588  1.00  0.00     0.001 C 
HETATM   10  C   UNL     1      43.100 -17.012   2.252  1.00  0.00     0.003 C 
HETATM   11  C   UNL     1      43.237 -16.918   3.765  1.00  0.00     0.038 C 
ENDROOT
BRANCH   1  12
HETATM   12  C   UNL     1      41.282 -11.723   5.735  1.00  0.00     0.338 C 
BRANCH  12  13
HETATM   13  C   UNL     1      42.011 -10.386   5.534  1.00  0.00     0.248 C 
HETATM   14  N   UNL     1      42.770  -9.842   6.532  1.00  0.00    -0.319 N 
HETATM   15  H   UNL     1      43.530  -9.246   6.192  1.00  0.00     0.169 HD
HETATM   16  O   UNL     1      42.050  -9.866   4.415  1.00  0.00    -0.271 OA
BRANCH  14  17
HETATM   17  C   UNL     1      42.539  -9.732   7.895  1.00  0.00     0.094 A 
HETATM   18  C   UNL     1      43.391 -10.147   8.916  1.00  0.00     0.080 A 
HETATM   19  C   UNL     1      42.871  -9.741  10.211  1.00  0.00    -0.026 A 
HETATM   20  C   UNL     1      41.708  -9.005  10.080  1.00  0.00    -0.008 A 
HETATM   21  C   UNL     1      43.498  -9.968  11.565  1.00  0.00     0.041 C 
HETATM   22  S   UNL     1      41.209  -8.857   8.474  1.00  0.00    -0.075 SA
HETATM   23  C   UNL     1      40.940  -8.380  11.206  1.00  0.00     0.047 C 
HETATM   24  C   UNL     1      41.831  -8.256  12.448  1.00  0.00     0.005 C 
HETATM   25  C   UNL     1      42.572  -9.569  12.726  1.00  0.00     0.005 C 
BRANCH  18  26
HETATM   26  C   UNL     1      44.634 -10.879   8.633  1.00  0.00     0.296 C 
HETATM   27  O   UNL     1      45.700 -10.584   9.163  1.00  0.00    -0.259 OA
BRANCH  26  28
HETATM   28  O   UNL     1      44.480 -11.890   7.736  1.00  0.00    -0.322 OA
HETATM   29  C   UNL     1      45.382 -11.852   6.628  1.00  0.00     0.213 C 
ENDBRANCH  26  28
ENDBRANCH  18  26
ENDBRANCH  14  17
ENDBRANCH  12  13
ENDBRANCH   1  12
BRANCH   3  30
HETATM   30  C   UNL     1      40.372 -12.712   2.985  1.00  0.00    -0.027 A 
HETATM   31  C   UNL     1      41.127 -11.959   2.067  1.00  0.00     0.012 A 
HETATM   32  C   UNL     1      40.495 -11.138   1.129  1.00  0.00     0.043 A 
HETATM   33  C   UNL     1      39.108 -11.066   1.099  1.00  0.00     0.116 A 
HETATM   34  F   UNL     1      38.509 -10.283   0.193  1.00  0.00    -0.206 F 
HETATM   35  C   UNL     1      38.339 -11.797   1.990  1.00  0.00     0.043 A 
HETATM   36  C   UNL     1      38.967 -12.619   2.929  1.00  0.00     0.012 A 
ENDBRANCH   3  30
BRANCH   5  37
HETATM   37  O   UNL     1      41.224 -16.438   5.031  1.00  0.00    -0.389 OA
HETATM   38  H   UNL     1      41.221 -17.393   4.825  1.00  0.00     0.210 HD
ENDBRANCH   5  37
TORSDOF 7
ENDMDL
MODEL 9
REMARK VINA RESULT:      -7.9      3.482      6.625
REMARK  7 active torsions:
REMARK  status: ('A' for Active; 'I' for Inactive)
REMARK    1  A    between atoms: O_2  and  C_3 
REMARK    2  A    between atoms: C_3  and  C_4 
REMARK    3  A    between atoms: C_5  and  N_6 
REMARK       I    between atoms: N_6  and  C_7 
REMARK    4  A    between atoms: C_7  and  C_8 
REMARK    5  A    between atoms: C_8  and  N_9 
REMARK    6  A    between atoms: C_11  and  C_12 
REMARK    7  A    between atoms: C_20  and  O_21 
ROOT
HETATM    1  N   UNL     1      40.875 -13.974   4.004  1.00  0.00    -0.054 N 
HETATM    2  H   UNL     1      40.730 -14.605   4.797  1.00  0.00     0.281 HD
HETATM    3  C   UNL     1      42.381 -13.909   3.748  1.00  0.00     0.228 C 
HETATM    4  C   UNL     1      42.947 -15.334   3.431  1.00  0.00     0.055 C 
HETATM    5  C   UNL     1      42.154 -16.012   2.285  1.00  0.00     0.065 C 
HETATM    6  C   UNL     1      40.642 -15.950   2.529  1.00  0.00     0.066 C 
HETATM    7  C   UNL     1      40.157 -14.543   2.807  1.00  0.00     0.239 C 
HETATM    8  C   UNL     1      43.062 -16.302   4.620  1.00  0.00     0.010 C 
HETATM    9  C   UNL     1      43.762 -17.615   4.241  1.00  0.00     0.001 C 
HETATM   10  C   UNL     1      43.854 -17.861   2.739  1.00  0.00     0.003 C 
HETATM   11  C   UNL     1      42.552 -17.488   2.043  1.00  0.00     0.038 C 
ENDROOT
BRANCH   1  12
HETATM   12  C   UNL     1      40.216 -12.630   4.417  1.00  0.00     0.338 C 
BRANCH  12  13
HETATM   13  C   UNL     1      39.647 -12.536   5.841  1.00  0.00     0.248 C 
HETATM   14  N   UNL     1      39.275 -11.333   6.371  1.00  0.00    -0.319 N 
HETATM   15  H   UNL     1      38.539 -11.407   7.079  1.00  0.00     0.169 HD
HETATM   16  O   UNL     1      39.371 -13.565   6.464  1.00  0.00    -0.271 OA
BRANCH  14  17
HETATM   17  C   UNL     1      39.887 -10.089   6.327  1.00  0.00     0.094 A 
HETATM   18  C   UNL     1      39.380  -8.937   5.732  1.00  0.00     0.080 A 
HETATM   19  C   UNL     1      40.240  -7.798   6.007  1.00  0.00    -0.026 A 
HETATM   20  C   UNL     1      41.293  -8.150   6.831  1.00  0.00    -0.008 A 
HETATM   21  C   UNL     1      40.037  -6.368   5.573  1.00  0.00     0.041 C 
HETATM   22  S   UNL     1      41.302  -9.795   7.211  1.00  0.00    -0.075 SA
HETATM   23  C   UNL     1      42.335  -7.212   7.361  1.00  0.00     0.047 C 
HETATM   24  C   UNL     1      41.839  -5.763   7.270  1.00  0.00     0.005 C 
HETATM   25  C   UNL     1      41.248  -5.473   5.885  1.00  0.00     0.005 C 
BRANCH  18  26
HETATM   26  C   UNL     1      38.129  -8.956   4.958  1.00  0.00     0.296 C 
HETATM   27  O   UNL     1      37.153  -8.285   5.279  1.00  0.00    -0.259 OA
BRANCH  26  28
HETATM   28  O   UNL     1      38.167  -9.782   3.878  1.00  0.00    -0.322 OA
HETATM   29  C   UNL     1      38.805  -9.231   2.724  1.00  0.00     0.213 C 
ENDBRANCH  26  28
ENDBRANCH  18  26
ENDBRANCH  14  17
ENDBRANCH  12  13
ENDBRANCH   1  12
BRANCH   3  30
HETATM   30  C   UNL     1      43.193 -13.208   4.831  1.00  0.00    -0.027 A 
HETATM   31  C   UNL     1      43.955 -12.049   4.593  1.00  0.00     0.012 A 
HETATM   32  C   UNL     1      44.655 -11.431   5.632  1.00  0.00     0.043 A 
HETATM   33  C   UNL     1      44.598 -11.962   6.915  1.00  0.00     0.116 A 
HETATM   34  F   UNL     1      45.267 -11.361   7.907  1.00  0.00    -0.206 F 
HETATM   35  C   UNL     1      43.856 -13.102   7.179  1.00  0.00     0.043 A 
HETATM   36  C   UNL     1      43.154 -13.722   6.143  1.00  0.00     0.012 A 
ENDBRANCH   3  30
BRANCH   5  37
HETATM   37  O   UNL     1      42.402 -15.259   1.095  1.00  0.00    -0.389 OA
HETATM   38  H   UNL     1      41.555 -14.912   0.753  1.00  0.00     0.210 HD
ENDBRANCH   5  37
TORSDOF 7
ENDMDL
MODEL 10
REMARK VINA RESULT:      -7.9      4.057      7.008
REMARK  7 active torsions:
REMARK  status: ('A' for Active; 'I' for Inactive)
REMARK    1  A    between atoms: O_2  and  C_3 
REMARK    2  A    between atoms: C_3  and  C_4 
REMARK    3  A    between atoms: C_5  and  N_6 
REMARK       I    between atoms: N_6  and  C_7 
REMARK    4  A    between atoms: C_7  and  C_8 
REMARK    5  A    between atoms: C_8  and  N_9 
REMARK    6  A    between atoms: C_11  and  C_12 
REMARK    7  A    between atoms: C_20  and  O_21 
ROOT
HETATM    1  N   UNL     1      43.673 -14.300   6.059  1.00  0.00    -0.054 N 
HETATM    2  H   UNL     1      44.280 -13.959   5.308  1.00  0.00     0.281 HD
HETATM    3  C   UNL     1      42.345 -14.703   5.418  1.00  0.00     0.228 C 
HETATM    4  C   UNL     1      42.569 -15.816   4.341  1.00  0.00     0.055 C 
HETATM    5  C   UNL     1      43.360 -17.013   4.925  1.00  0.00     0.065 C 
HETATM    6  C   UNL     1      44.625 -16.552   5.659  1.00  0.00     0.066 C 
HETATM    7  C   UNL     1      44.335 -15.493   6.701  1.00  0.00     0.239 C 
HETATM    8  C   UNL     1      43.215 -15.366   3.020  1.00  0.00     0.010 C 
HETATM    9  C   UNL     1      43.257 -16.491   1.975  1.00  0.00     0.001 C 
HETATM   10  C   UNL     1      43.020 -17.883   2.550  1.00  0.00     0.003 C 
HETATM   11  C   UNL     1      43.764 -18.066   3.866  1.00  0.00     0.038 C 
ENDROOT
BRANCH   1  12
HETATM   12  C   UNL     1      43.587 -13.137   7.084  1.00  0.00     0.338 C 
BRANCH  12  13
HETATM   13  C   UNL     1      44.358 -11.851   6.751  1.00  0.00     0.248 C 
HETATM   14  N   UNL     1      44.099 -10.684   7.413  1.00  0.00    -0.319 N 
HETATM   15  H   UNL     1      44.902 -10.050   7.458  1.00  0.00     0.169 HD
HETATM   16  O   UNL     1      45.331 -11.893   5.993  1.00  0.00    -0.271 OA
BRANCH  14  17
HETATM   17  C   UNL     1      42.900 -10.097   7.789  1.00  0.00     0.094 A 
HETATM   18  C   UNL     1      42.553  -9.667   9.067  1.00  0.00     0.080 A 
HETATM   19  C   UNL     1      41.272  -8.980   9.044  1.00  0.00    -0.026 A 
HETATM   20  C   UNL     1      40.773  -8.885   7.759  1.00  0.00    -0.008 A 
HETATM   21  C   UNL     1      40.552  -8.340  10.206  1.00  0.00     0.041 C 
HETATM   22  S   UNL     1      41.758  -9.648   6.620  1.00  0.00    -0.075 SA
HETATM   23  C   UNL     1      39.505  -8.188   7.365  1.00  0.00     0.047 C 
HETATM   24  C   UNL     1      39.077  -7.208   8.464  1.00  0.00     0.005 C 
HETATM   25  C   UNL     1      39.132  -7.874   9.844  1.00  0.00     0.005 C 
BRANCH  18  26
HETATM   26  C   UNL     1      43.427  -9.905  10.225  1.00  0.00     0.296 C 
HETATM   27  O   UNL     1      43.698 -11.035  10.617  1.00  0.00    -0.259 OA
BRANCH  26  28
HETATM   28  O   UNL     1      43.888  -8.763  10.804  1.00  0.00    -0.322 OA
HETATM   29  C   UNL     1      43.543  -8.609  12.182  1.00  0.00     0.213 C 
ENDBRANCH  26  28
ENDBRANCH  18  26
ENDBRANCH  14  17
ENDBRANCH  12  13
ENDBRANCH   1  12
BRANCH   3  30
HETATM   30  C   UNL     1      41.512 -13.548   4.872  1.00  0.00    -0.027 A 
HETATM   31  C   UNL     1      41.980 -12.659   3.887  1.00  0.00     0.012 A 
HETATM   32  C   UNL     1      41.160 -11.637   3.402  1.00  0.00     0.043 A 
HETATM   33  C   UNL     1      39.868 -11.497   3.893  1.00  0.00     0.116 A 
HETATM   34  F   UNL     1      39.085 -10.520   3.419  1.00  0.00    -0.206 F 
HETATM   35  C   UNL     1      39.379 -12.358   4.863  1.00  0.00     0.043 A 
HETATM   36  C   UNL     1      40.196 -13.381   5.350  1.00  0.00     0.012 A 
ENDBRANCH   3  30
BRANCH   5  37
HETATM   37  O   UNL     1      42.527 -17.633   5.907  1.00  0.00    -0.389 OA
HETATM   38  H   UNL     1      41.989 -16.947   6.350  1.00  0.00     0.210 HD
ENDBRANCH   5  37
TORSDOF 7
ENDMDL
