MODEL 1
REMARK VINA RESULT:      -8.7      0.000      0.000
REMARK  8 active torsions:
REMARK  status: ('A' for Active; 'I' for Inactive)
REMARK    1  A    between atoms: C_4  and  C_5 
REMARK    2  A    between atoms: C_5  and  N_6 
REMARK       I    between atoms: N_6  and  C_7 
REMARK    3  A    between atoms: C_7  and  C_8 
REMARK    4  A    between atoms: C_11  and  C_12 
REMARK    5  A    between atoms: C_12  and  O_13 
REMARK    6  A    between atoms: O_13  and  C_14 
REMARK    7  A    between atoms: C_25  and  C_26 
REMARK    8  A    between atoms: C_26  and  O_27 
ROOT
HETATM    1  N   UNL     1      42.895 -12.514   4.357  1.00  0.00    -0.351 N 
HETATM    2  C   UNL     1      43.964 -11.709   4.667  1.00  0.00     0.251 C 
HETATM    3  O   UNL     1      44.850 -11.445   3.860  1.00  0.00    -0.268 OA
HETATM    4  H   UNL     1      42.242 -12.850   5.055  1.00  0.00     0.163 HD
ENDROOT
BRANCH   2   5
HETATM    5  C   UNL     1      44.041 -11.191   6.061  1.00  0.00     0.032 A 
HETATM    6  C   UNL     1      45.268 -11.283   6.730  1.00  0.00     0.017 A 
HETATM    7  C   UNL     1      45.392 -10.835   8.046  1.00  0.00     0.010 A 
HETATM    8  C   UNL     1      44.291 -10.285   8.716  1.00  0.00    -0.034 A 
HETATM    9  C   UNL     1      43.074 -10.155   8.029  1.00  0.00     0.010 A 
HETATM   10  C   UNL     1      42.947 -10.607   6.710  1.00  0.00     0.017 A 
BRANCH   8  11
HETATM   11  C   UNL     1      44.428  -9.818  10.146  1.00  0.00     0.214 C 
BRANCH  11  12
HETATM   12  O   UNL     1      43.384 -10.403  10.919  1.00  0.00    -0.347 OA
BRANCH  12  13
HETATM   13  C   UNL     1      42.933  -9.683  11.991  1.00  0.00     0.069 A 
HETATM   14  C   UNL     1      41.864 -10.024  12.823  1.00  0.00     0.037 A 
HETATM   15  C   UNL     1      41.510  -9.193  13.890  1.00  0.00     0.003 A 
HETATM   16  C   UNL     1      42.219  -8.018  14.131  1.00  0.00     0.000 A 
HETATM   17  C   UNL     1      43.284  -7.670  13.303  1.00  0.00     0.003 A 
HETATM   18  C   UNL     1      43.638  -8.502  12.238  1.00  0.00     0.037 A 
ENDBRANCH  12  13
ENDBRANCH  11  12
ENDBRANCH   8  11
ENDBRANCH   2   5
BRANCH   1  19
HETATM   19  C   UNL     1      42.805 -13.156   3.064  1.00  0.00     0.182 C 
BRANCH  19  20
HETATM   20  C   UNL     1      42.987 -14.657   3.147  1.00  0.00     0.052 A 
HETATM   21  N   UNL     1      42.953 -15.247   4.374  1.00  0.00    -0.256 NA
HETATM   22  C   UNL     1      43.123 -16.595   4.445  1.00  0.00     0.040 A 
HETATM   23  C   UNL     1      43.066 -17.171   5.831  1.00  0.00     0.071 C 
HETATM   24  C   UNL     1      43.340 -17.398   3.316  1.00  0.00    -0.006 A 
HETATM   25  C   UNL     1      43.367 -16.755   2.071  1.00  0.00     0.014 A 
HETATM   26  C   UNL     1      43.192 -15.380   1.981  1.00  0.00     0.029 A 
BRANCH  24  27
HETATM   27  C   UNL     1      43.494 -18.899   3.401  1.00  0.00     0.149 C 
HETATM   28  C   UNL     1      43.267 -19.560   2.046  1.00  0.00     0.044 C 
BRANCH  27  29
HETATM   29  O   UNL     1      44.808 -19.227   3.858  1.00  0.00    -0.391 OA
HETATM   30  H   UNL     1      44.978 -18.695   4.655  1.00  0.00     0.210 HD
ENDBRANCH  27  29
ENDBRANCH  24  27
ENDBRANCH  19  20
ENDBRANCH   1  19
TORSDOF 8
ENDMDL
MODEL 2
REMARK VINA RESULT:      -8.6      2.339     10.587
REMARK  8 active torsions:
REMARK  status: ('A' for Active; 'I' for Inactive)
REMARK    1  A    between atoms: C_4  and  C_5 
REMARK    2  A    between atoms: C_5  and  N_6 
REMARK       I    between atoms: N_6  and  C_7 
REMARK    3  A    between atoms: C_7  and  C_8 
REMARK    4  A    between atoms: C_11  and  C_12 
REMARK    5  A    between atoms: C_12  and  O_13 
REMARK    6  A    between atoms: O_13  and  C_14 
REMARK    7  A    between atoms: C_25  and  C_26 
REMARK    8  A    between atoms: C_26  and  O_27 
ROOT
HETATM    1  N   UNL     1      43.849 -11.086   8.193  1.00  0.00    -0.351 N 
HETATM    2  C   UNL     1      44.618 -11.686   7.226  1.00  0.00     0.251 C 
HETATM    3  O   UNL     1      45.777 -11.353   7.001  1.00  0.00    -0.268 OA
HETATM    4  H   UNL     1      42.854 -11.255   8.284  1.00  0.00     0.163 HD
ENDROOT
BRANCH   2   5
HETATM    5  C   UNL     1      43.970 -12.747   6.406  1.00  0.00     0.032 A 
HETATM    6  C   UNL     1      43.890 -14.037   6.945  1.00  0.00     0.017 A 
HETATM    7  C   UNL     1      43.314 -15.076   6.213  1.00  0.00     0.010 A 
HETATM    8  C   UNL     1      42.807 -14.843   4.928  1.00  0.00    -0.034 A 
HETATM    9  C   UNL     1      42.850 -13.541   4.407  1.00  0.00     0.010 A 
HETATM   10  C   UNL     1      43.430 -12.499   5.139  1.00  0.00     0.017 A 
BRANCH   8  11
HETATM   11  C   UNL     1      42.202 -15.976   4.134  1.00  0.00     0.214 C 
BRANCH  11  12
HETATM   12  O   UNL     1      43.203 -16.521   3.280  1.00  0.00    -0.347 OA
BRANCH  12  13
HETATM   13  C   UNL     1      43.436 -17.865   3.382  1.00  0.00     0.069 A 
HETATM   14  C   UNL     1      43.964 -18.529   4.491  1.00  0.00     0.037 A 
HETATM   15  C   UNL     1      44.148 -19.916   4.460  1.00  0.00     0.003 A 
HETATM   16  C   UNL     1      43.808 -20.644   3.322  1.00  0.00     0.000 A 
HETATM   17  C   UNL     1      43.284 -19.988   2.211  1.00  0.00     0.003 A 
HETATM   18  C   UNL     1      43.099 -18.603   2.244  1.00  0.00     0.037 A 
ENDBRANCH  12  13
ENDBRANCH  11  12
ENDBRANCH   8  11
ENDBRANCH   2   5
BRANCH   1  19
HETATM   19  C   UNL     1      44.359  -9.966   8.952  1.00  0.00     0.182 C 
BRANCH  19  20
HETATM   20  C   UNL     1      43.473  -9.608  10.126  1.00  0.00     0.052 A 
HETATM   21  N   UNL     1      42.132  -9.818  10.015  1.00  0.00    -0.256 NA
HETATM   22  C   UNL     1      41.339  -9.490  11.070  1.00  0.00     0.040 A 
HETATM   23  C   UNL     1      39.874  -9.758  10.872  1.00  0.00     0.071 C 
HETATM   24  C   UNL     1      41.838  -8.937  12.258  1.00  0.00    -0.006 A 
HETATM   25  C   UNL     1      43.223  -8.737  12.337  1.00  0.00     0.014 A 
HETATM   26  C   UNL     1      44.047  -9.070  11.269  1.00  0.00     0.029 A 
BRANCH  24  27
HETATM   27  C   UNL     1      40.953  -8.607  13.438  1.00  0.00     0.149 C 
HETATM   28  C   UNL     1      41.722  -8.692  14.752  1.00  0.00     0.044 C 
BRANCH  27  29
HETATM   29  O   UNL     1      40.429  -7.285  13.296  1.00  0.00    -0.391 OA
HETATM   30  H   UNL     1      40.357  -7.103  12.343  1.00  0.00     0.210 HD
ENDBRANCH  27  29
ENDBRANCH  24  27
ENDBRANCH  19  20
ENDBRANCH   1  19
TORSDOF 8
ENDMDL
MODEL 3
REMARK VINA RESULT:      -8.5      2.512     10.409
REMARK  8 active torsions:
REMARK  status: ('A' for Active; 'I' for Inactive)
REMARK    1  A    between atoms: C_4  and  C_5 
REMARK    2  A    between atoms: C_5  and  N_6 
REMARK       I    between atoms: N_6  and  C_7 
REMARK    3  A    between atoms: C_7  and  C_8 
REMARK    4  A    between atoms: C_11  and  C_12 
REMARK    5  A    between atoms: C_12  and  O_13 
REMARK    6  A    between atoms: O_13  and  C_14 
REMARK    7  A    between atoms: C_25  and  C_26 
REMARK    8  A    between atoms: C_26  and  O_27 
ROOT
HETATM    1  N   UNL     1      42.790 -10.769   7.174  1.00  0.00    -0.351 N 
HETATM    2  C   UNL     1      43.694 -11.803   7.182  1.00  0.00     0.251 C 
HETATM    3  O   UNL     1      44.718 -11.781   7.857  1.00  0.00    -0.268 OA
HETATM    4  H   UNL     1      42.022 -10.719   6.514  1.00  0.00     0.163 HD
ENDROOT
BRANCH   2   5
HETATM    5  C   UNL     1      43.410 -12.960   6.289  1.00  0.00     0.032 A 
HETATM    6  C   UNL     1      42.996 -12.693   4.978  1.00  0.00     0.017 A 
HETATM    7  C   UNL     1      42.694 -13.738   4.104  1.00  0.00     0.010 A 
HETATM    8  C   UNL     1      42.800 -15.069   4.526  1.00  0.00    -0.034 A 
HETATM    9  C   UNL     1      43.255 -15.336   5.826  1.00  0.00     0.010 A 
HETATM   10  C   UNL     1      43.556 -14.288   6.705  1.00  0.00     0.017 A 
BRANCH   8  11
HETATM   11  C   UNL     1      42.454 -16.195   3.580  1.00  0.00     0.214 C 
BRANCH  11  12
HETATM   12  O   UNL     1      43.659 -16.829   3.163  1.00  0.00    -0.347 OA
BRANCH  12  13
HETATM   13  C   UNL     1      43.696 -18.194   3.237  1.00  0.00     0.069 A 
HETATM   14  C   UNL     1      43.348 -19.086   2.220  1.00  0.00     0.037 A 
HETATM   15  C   UNL     1      43.437 -20.465   2.432  1.00  0.00     0.003 A 
HETATM   16  C   UNL     1      43.870 -20.960   3.660  1.00  0.00     0.000 A 
HETATM   17  C   UNL     1      44.216 -20.077   4.680  1.00  0.00     0.003 A 
HETATM   18  C   UNL     1      44.129 -18.700   4.466  1.00  0.00     0.037 A 
ENDBRANCH  12  13
ENDBRANCH  11  12
ENDBRANCH   8  11
ENDBRANCH   2   5
BRANCH   1  19
HETATM   19  C   UNL     1      43.048  -9.556   7.918  1.00  0.00     0.182 C 
BRANCH  19  20
HETATM   20  C   UNL     1      42.190  -9.444   9.160  1.00  0.00     0.052 A 
HETATM   21  N   UNL     1      42.739  -9.780  10.360  1.00  0.00    -0.256 NA
HETATM   22  C   UNL     1      41.963  -9.683  11.473  1.00  0.00     0.040 A 
HETATM   23  C   UNL     1      42.642 -10.066  12.758  1.00  0.00     0.071 C 
HETATM   24  C   UNL     1      40.625  -9.263  11.438  1.00  0.00    -0.006 A 
HETATM   25  C   UNL     1      40.096  -8.923  10.186  1.00  0.00     0.014 A 
HETATM   26  C   UNL     1      40.877  -9.014   9.039  1.00  0.00     0.029 A 
BRANCH  24  27
HETATM   27  C   UNL     1      39.781  -9.125  12.684  1.00  0.00     0.149 C 
HETATM   28  C   UNL     1      38.928  -7.862  12.642  1.00  0.00     0.044 C 
BRANCH  27  29
HETATM   29  O   UNL     1      38.919 -10.259  12.812  1.00  0.00    -0.391 OA
HETATM   30  H   UNL     1      38.007  -9.924  12.864  1.00  0.00     0.210 HD
ENDBRANCH  27  29
ENDBRANCH  24  27
ENDBRANCH  19  20
ENDBRANCH   1  19
TORSDOF 8
ENDMDL
MODEL 4
REMARK VINA RESULT:      -8.1      2.747     10.626
REMARK  8 active torsions:
REMARK  status: ('A' for Active; 'I' for Inactive)
REMARK    1  A    between atoms: C_4  and  C_5 
REMARK    2  A    between atoms: C_5  and  N_6 
REMARK       I    between atoms: N_6  and  C_7 
REMARK    3  A    between atoms: C_7  and  C_8 
REMARK    4  A    between atoms: C_11  and  C_12 
REMARK    5  A    between atoms: C_12  and  O_13 
REMARK    6  A    between atoms: O_13  and  C_14 
REMARK    7  A    between atoms: C_25  and  C_26 
REMARK    8  A    between atoms: C_26  and  O_27 
ROOT
HETATM    1  N   UNL     1      43.771  -9.535   8.057  1.00  0.00    -0.351 N 
HETATM    2  C   UNL     1      44.336 -10.776   7.891  1.00  0.00     0.251 C 
HETATM    3  O   UNL     1      45.409 -11.089   8.396  1.00  0.00    -0.268 OA
HETATM    4  H   UNL     1      42.964  -9.225   7.529  1.00  0.00     0.163 HD
ENDROOT
BRANCH   2   5
HETATM    5  C   UNL     1      43.608 -11.739   7.017  1.00  0.00     0.032 A 
HETATM    6  C   UNL     1      44.079 -13.057   6.957  1.00  0.00     0.017 A 
HETATM    7  C   UNL     1      43.451 -13.996   6.139  1.00  0.00     0.010 A 
HETATM    8  C   UNL     1      42.340 -13.634   5.366  1.00  0.00    -0.034 A 
HETATM    9  C   UNL     1      41.845 -12.325   5.460  1.00  0.00     0.010 A 
HETATM   10  C   UNL     1      42.476 -11.381   6.279  1.00  0.00     0.017 A 
BRANCH   8  11
HETATM   11  C   UNL     1      41.676 -14.652   4.468  1.00  0.00     0.214 C 
BRANCH  11  12
HETATM   12  O   UNL     1      41.862 -15.947   5.030  1.00  0.00    -0.347 OA
BRANCH  12  13
HETATM   13  C   UNL     1      42.522 -16.865   4.259  1.00  0.00     0.069 A 
HETATM   14  C   UNL     1      42.264 -17.153   2.917  1.00  0.00     0.037 A 
HETATM   15  C   UNL     1      43.021 -18.119   2.246  1.00  0.00     0.003 A 
HETATM   16  C   UNL     1      44.037 -18.801   2.912  1.00  0.00     0.000 A 
HETATM   17  C   UNL     1      44.298 -18.522   4.251  1.00  0.00     0.003 A 
HETATM   18  C   UNL     1      43.542 -17.556   4.920  1.00  0.00     0.037 A 
ENDBRANCH  12  13
ENDBRANCH  11  12
ENDBRANCH   8  11
ENDBRANCH   2   5
BRANCH   1  19
HETATM   19  C   UNL     1      44.468  -8.500   8.790  1.00  0.00     0.182 C 
BRANCH  19  20
HETATM   20  C   UNL     1      43.827  -8.204  10.129  1.00  0.00     0.052 A 
HETATM   21  N   UNL     1      43.074  -7.076  10.252  1.00  0.00    -0.256 NA
HETATM   22  C   UNL     1      42.504  -6.810  11.458  1.00  0.00     0.040 A 
HETATM   23  C   UNL     1      41.684  -5.553  11.511  1.00  0.00     0.071 C 
HETATM   24  C   UNL     1      42.667  -7.638  12.578  1.00  0.00    -0.006 A 
HETATM   25  C   UNL     1      43.447  -8.790  12.413  1.00  0.00     0.014 A 
HETATM   26  C   UNL     1      44.033  -9.078  11.186  1.00  0.00     0.029 A 
BRANCH  24  27
HETATM   27  C   UNL     1      42.002  -7.353  13.906  1.00  0.00     0.149 C 
HETATM   28  C   UNL     1      41.730  -8.638  14.680  1.00  0.00     0.044 C 
BRANCH  27  29
HETATM   29  O   UNL     1      42.842  -6.508  14.696  1.00  0.00    -0.391 OA
HETATM   30  H   UNL     1      43.699  -6.445  14.241  1.00  0.00     0.210 HD
ENDBRANCH  27  29
ENDBRANCH  24  27
ENDBRANCH  19  20
ENDBRANCH   1  19
TORSDOF 8
ENDMDL
MODEL 5
REMARK VINA RESULT:      -8.0      7.155     10.789
REMARK  8 active torsions:
REMARK  status: ('A' for Active; 'I' for Inactive)
REMARK    1  A    between atoms: C_4  and  C_5 
REMARK    2  A    between atoms: C_5  and  N_6 
REMARK       I    between atoms: N_6  and  C_7 
REMARK    3  A    between atoms: C_7  and  C_8 
REMARK    4  A    between atoms: C_11  and  C_12 
REMARK    5  A    between atoms: C_12  and  O_13 
REMARK    6  A    between atoms: O_13  and  C_14 
REMARK    7  A    between atoms: C_25  and  C_26 
REMARK    8  A    between atoms: C_26  and  O_27 
ROOT
HETATM    1  N   UNL     1      40.951 -12.993  -0.911  1.00  0.00    -0.351 N 
HETATM    2  C   UNL     1      40.330 -14.126  -0.447  1.00  0.00     0.251 C 
HETATM    3  O   UNL     1      39.317 -14.586  -0.964  1.00  0.00    -0.268 OA
HETATM    4  H   UNL     1      41.698 -12.531  -0.405  1.00  0.00     0.163 HD
ENDROOT
BRANCH   2   5
HETATM    5  C   UNL     1      40.913 -14.771   0.763  1.00  0.00     0.032 A 
HETATM    6  C   UNL     1      40.038 -15.166   1.783  1.00  0.00     0.017 A 
HETATM    7  C   UNL     1      40.530 -15.754   2.950  1.00  0.00     0.010 A 
HETATM    8  C   UNL     1      41.906 -15.958   3.115  1.00  0.00    -0.034 A 
HETATM    9  C   UNL     1      42.776 -15.600   2.075  1.00  0.00     0.010 A 
HETATM   10  C   UNL     1      42.284 -15.008   0.906  1.00  0.00     0.017 A 
BRANCH   8  11
HETATM   11  C   UNL     1      42.433 -16.578   4.388  1.00  0.00     0.214 C 
BRANCH  11  12
HETATM   12  O   UNL     1      43.724 -17.122   4.130  1.00  0.00    -0.347 OA
BRANCH  12  13
HETATM   13  C   UNL     1      43.791 -18.470   3.906  1.00  0.00     0.069 A 
HETATM   14  C   UNL     1      43.647 -19.109   2.672  1.00  0.00     0.037 A 
HETATM   15  C   UNL     1      43.742 -20.502   2.586  1.00  0.00     0.003 A 
HETATM   16  C   UNL     1      43.981 -21.262   3.729  1.00  0.00     0.000 A 
HETATM   17  C   UNL     1      44.123 -20.631   4.963  1.00  0.00     0.003 A 
HETATM   18  C   UNL     1      44.029 -19.240   5.048  1.00  0.00     0.037 A 
ENDBRANCH  12  13
ENDBRANCH  11  12
ENDBRANCH   8  11
ENDBRANCH   2   5
BRANCH   1  19
HETATM   19  C   UNL     1      40.384 -12.237  -2.006  1.00  0.00     0.182 C 
BRANCH  19  20
HETATM   20  C   UNL     1      40.921 -10.823  -2.075  1.00  0.00     0.052 A 
HETATM   21  N   UNL     1      40.761 -10.124  -3.233  1.00  0.00    -0.256 NA
HETATM   22  C   UNL     1      41.250  -8.856  -3.293  1.00  0.00     0.040 A 
HETATM   23  C   UNL     1      41.028  -8.150  -4.600  1.00  0.00     0.071 C 
HETATM   24  C   UNL     1      41.917  -8.243  -2.223  1.00  0.00    -0.006 A 
HETATM   25  C   UNL     1      42.061  -8.993  -1.048  1.00  0.00     0.014 A 
HETATM   26  C   UNL     1      41.565 -10.288  -0.969  1.00  0.00     0.029 A 
BRANCH  24  27
HETATM   27  C   UNL     1      42.427  -6.822  -2.287  1.00  0.00     0.149 C 
HETATM   28  C   UNL     1      41.584  -5.888  -1.426  1.00  0.00     0.044 C 
BRANCH  27  29
HETATM   29  O   UNL     1      43.781  -6.773  -1.830  1.00  0.00    -0.391 OA
HETATM   30  H   UNL     1      43.924  -7.552  -1.266  1.00  0.00     0.210 HD
ENDBRANCH  27  29
ENDBRANCH  24  27
ENDBRANCH  19  20
ENDBRANCH   1  19
TORSDOF 8
ENDMDL
MODEL 6
REMARK VINA RESULT:      -7.9      1.960     10.111
REMARK  8 active torsions:
REMARK  status: ('A' for Active; 'I' for Inactive)
REMARK    1  A    between atoms: C_4  and  C_5 
REMARK    2  A    between atoms: C_5  and  N_6 
REMARK       I    between atoms: N_6  and  C_7 
REMARK    3  A    between atoms: C_7  and  C_8 
REMARK    4  A    between atoms: C_11  and  C_12 
REMARK    5  A    between atoms: C_12  and  O_13 
REMARK    6  A    between atoms: O_13  and  C_14 
REMARK    7  A    between atoms: C_25  and  C_26 
REMARK    8  A    between atoms: C_26  and  O_27 
ROOT
HETATM    1  N   UNL     1      41.450 -10.957   5.889  1.00  0.00    -0.351 N 
HETATM    2  C   UNL     1      42.240 -11.239   4.801  1.00  0.00     0.251 C 
HETATM    3  O   UNL     1      42.988 -10.410   4.293  1.00  0.00    -0.268 OA
HETATM    4  H   UNL     1      40.729 -11.588   6.220  1.00  0.00     0.163 HD
ENDROOT
BRANCH   2   5
HETATM    5  C   UNL     1      42.122 -12.603   4.213  1.00  0.00     0.032 A 
HETATM    6  C   UNL     1      43.156 -13.052   3.383  1.00  0.00     0.017 A 
HETATM    7  C   UNL     1      43.088 -14.313   2.787  1.00  0.00     0.010 A 
HETATM    8  C   UNL     1      41.984 -15.145   3.011  1.00  0.00    -0.034 A 
HETATM    9  C   UNL     1      40.970 -14.709   3.876  1.00  0.00     0.010 A 
HETATM   10  C   UNL     1      41.035 -13.445   4.473  1.00  0.00     0.017 A 
BRANCH   8  11
HETATM   11  C   UNL     1      41.909 -16.500   2.347  1.00  0.00     0.214 C 
BRANCH  11  12
HETATM   12  O   UNL     1      43.229 -17.021   2.222  1.00  0.00    -0.347 OA
BRANCH  12  13
HETATM   13  C   UNL     1      43.504 -18.174   2.906  1.00  0.00     0.069 A 
HETATM   14  C   UNL     1      43.917 -18.265   4.237  1.00  0.00     0.037 A 
HETATM   15  C   UNL     1      44.162 -19.516   4.813  1.00  0.00     0.003 A 
HETATM   16  C   UNL     1      43.998 -20.679   4.064  1.00  0.00     0.000 A 
HETATM   17  C   UNL     1      43.590 -20.595   2.736  1.00  0.00     0.003 A 
HETATM   18  C   UNL     1      43.344 -19.346   2.161  1.00  0.00     0.037 A 
ENDBRANCH  12  13
ENDBRANCH  11  12
ENDBRANCH   8  11
ENDBRANCH   2   5
BRANCH   1  19
HETATM   19  C   UNL     1      41.412  -9.623   6.448  1.00  0.00     0.182 C 
BRANCH  19  20
HETATM   20  C   UNL     1      41.860  -9.586   7.893  1.00  0.00     0.052 A 
HETATM   21  N   UNL     1      43.165  -9.857   8.175  1.00  0.00    -0.256 NA
HETATM   22  C   UNL     1      43.562  -9.828   9.476  1.00  0.00     0.040 A 
HETATM   23  C   UNL     1      45.016 -10.131   9.704  1.00  0.00     0.071 C 
HETATM   24  C   UNL     1      42.689  -9.543  10.535  1.00  0.00    -0.006 A 
HETATM   25  C   UNL     1      41.355  -9.268  10.206  1.00  0.00     0.014 A 
HETATM   26  C   UNL     1      40.933  -9.290   8.882  1.00  0.00     0.029 A 
BRANCH  24  27
HETATM   27  C   UNL     1      43.146  -9.480  11.974  1.00  0.00     0.149 C 
HETATM   28  C   UNL     1      43.397  -8.042  12.417  1.00  0.00     0.044 C 
BRANCH  27  29
HETATM   29  O   UNL     1      42.152 -10.056  12.824  1.00  0.00    -0.391 OA
HETATM   30  H   UNL     1      42.468 -10.939  13.083  1.00  0.00     0.210 HD
ENDBRANCH  27  29
ENDBRANCH  24  27
ENDBRANCH  19  20
ENDBRANCH   1  19
TORSDOF 8
ENDMDL
MODEL 7
REMARK VINA RESULT:      -7.9      2.849     10.199
REMARK  8 active torsions:
REMARK  status: ('A' for Active; 'I' for Inactive)
REMARK    1  A    between atoms: C_4  and  C_5 
REMARK    2  A    between atoms: C_5  and  N_6 
REMARK       I    between atoms: N_6  and  C_7 
REMARK    3  A    between atoms: C_7  and  C_8 
REMARK    4  A    between atoms: C_11  and  C_12 
REMARK    5  A    between atoms: C_12  and  O_13 
REMARK    6  A    between atoms: O_13  and  C_14 
REMARK    7  A    between atoms: C_25  and  C_26 
REMARK    8  A    between atoms: C_26  and  O_27 
ROOT
HETATM    1  N   UNL     1      40.549 -10.669   6.062  1.00  0.00    -0.351 N 
HETATM    2  C   UNL     1      39.974 -11.913   5.964  1.00  0.00     0.251 C 
HETATM    3  O   UNL     1      38.853 -12.160   6.398  1.00  0.00    -0.268 OA
HETATM    4  H   UNL     1      41.522 -10.497   5.838  1.00  0.00     0.163 HD
ENDROOT
BRANCH   2   5
HETATM    5  C   UNL     1      40.791 -12.991   5.341  1.00  0.00     0.032 A 
HETATM    6  C   UNL     1      41.820 -12.614   4.468  1.00  0.00     0.017 A 
HETATM    7  C   UNL     1      42.604 -13.582   3.838  1.00  0.00     0.010 A 
HETATM    8  C   UNL     1      42.372 -14.944   4.070  1.00  0.00    -0.034 A 
HETATM    9  C   UNL     1      41.368 -15.317   4.976  1.00  0.00     0.010 A 
HETATM   10  C   UNL     1      40.580 -14.348   5.607  1.00  0.00     0.017 A 
BRANCH   8  11
HETATM   11  C   UNL     1      43.211 -15.986   3.370  1.00  0.00     0.214 C 
BRANCH  11  12
HETATM   12  O   UNL     1      43.843 -16.800   4.354  1.00  0.00    -0.347 OA
BRANCH  12  13
HETATM   13  C   UNL     1      43.847 -18.149   4.128  1.00  0.00     0.069 A 
HETATM   14  C   UNL     1      43.728 -18.778   2.886  1.00  0.00     0.037 A 
HETATM   15  C   UNL     1      43.751 -20.174   2.800  1.00  0.00     0.003 A 
HETATM   16  C   UNL     1      43.891 -20.947   3.950  1.00  0.00     0.000 A 
HETATM   17  C   UNL     1      44.007 -20.327   5.192  1.00  0.00     0.003 A 
HETATM   18  C   UNL     1      43.985 -18.932   5.277  1.00  0.00     0.037 A 
ENDBRANCH  12  13
ENDBRANCH  11  12
ENDBRANCH   8  11
ENDBRANCH   2   5
BRANCH   1  19
HETATM   19  C   UNL     1      39.874  -9.597   6.760  1.00  0.00     0.182 C 
BRANCH  19  20
HETATM   20  C   UNL     1      40.185  -9.582   8.242  1.00  0.00     0.052 A 
HETATM   21  N   UNL     1      41.463  -9.322   8.633  1.00  0.00    -0.256 NA
HETATM   22  C   UNL     1      41.739  -9.315   9.965  1.00  0.00     0.040 A 
HETATM   23  C   UNL     1      43.168  -9.014  10.317  1.00  0.00     0.071 C 
HETATM   24  C   UNL     1      40.772  -9.573  10.948  1.00  0.00    -0.006 A 
HETATM   25  C   UNL     1      39.468  -9.835  10.506  1.00  0.00     0.014 A 
HETATM   26  C   UNL     1      39.168  -9.842   9.149  1.00  0.00     0.029 A 
BRANCH  24  27
HETATM   27  C   UNL     1      41.081  -9.530  12.427  1.00  0.00     0.149 C 
HETATM   28  C   UNL     1      40.157  -8.564  13.161  1.00  0.00     0.044 C 
BRANCH  27  29
HETATM   29  O   UNL     1      40.927 -10.834  12.992  1.00  0.00    -0.391 OA
HETATM   30  H   UNL     1      41.644 -11.388  12.639  1.00  0.00     0.210 HD
ENDBRANCH  27  29
ENDBRANCH  24  27
ENDBRANCH  19  20
ENDBRANCH   1  19
TORSDOF 8
ENDMDL
MODEL 8
REMARK VINA RESULT:      -7.8      3.040     10.607
REMARK  8 active torsions:
REMARK  status: ('A' for Active; 'I' for Inactive)
REMARK    1  A    between atoms: C_4  and  C_5 
REMARK    2  A    between atoms: C_5  and  N_6 
REMARK       I    between atoms: N_6  and  C_7 
REMARK    3  A    between atoms: C_7  and  C_8 
REMARK    4  A    between atoms: C_11  and  C_12 
REMARK    5  A    between atoms: C_12  and  O_13 
REMARK    6  A    between atoms: O_13  and  C_14 
REMARK    7  A    between atoms: C_25  and  C_26 
REMARK    8  A    between atoms: C_26  and  O_27 
ROOT
HETATM    1  N   UNL     1      40.218  -9.921   7.815  1.00  0.00    -0.351 N 
HETATM    2  C   UNL     1      39.573 -10.902   7.101  1.00  0.00     0.251 C 
HETATM    3  O   UNL     1      38.365 -11.097   7.186  1.00  0.00    -0.268 OA
HETATM    4  H   UNL     1      41.228  -9.850   7.859  1.00  0.00     0.163 HD
ENDROOT
BRANCH   2   5
HETATM    5  C   UNL     1      40.414 -11.773   6.234  1.00  0.00     0.032 A 
HETATM    6  C   UNL     1      39.798 -12.856   5.595  1.00  0.00     0.017 A 
HETATM    7  C   UNL     1      40.542 -13.719   4.789  1.00  0.00     0.010 A 
HETATM    8  C   UNL     1      41.915 -13.514   4.608  1.00  0.00    -0.034 A 
HETATM    9  C   UNL     1      42.522 -12.404   5.215  1.00  0.00     0.010 A 
HETATM   10  C   UNL     1      41.778 -11.539   6.026  1.00  0.00     0.017 A 
BRANCH   8  11
HETATM   11  C   UNL     1      42.718 -14.463   3.749  1.00  0.00     0.214 C 
BRANCH  11  12
HETATM   12  O   UNL     1      41.969 -15.661   3.570  1.00  0.00    -0.347 OA
BRANCH  12  13
HETATM   13  C   UNL     1      42.678 -16.830   3.515  1.00  0.00     0.069 A 
HETATM   14  C   UNL     1      43.588 -17.289   4.470  1.00  0.00     0.037 A 
HETATM   15  C   UNL     1      44.244 -18.510   4.287  1.00  0.00     0.003 A 
HETATM   16  C   UNL     1      43.997 -19.276   3.150  1.00  0.00     0.000 A 
HETATM   17  C   UNL     1      43.094 -18.823   2.192  1.00  0.00     0.003 A 
HETATM   18  C   UNL     1      42.437 -17.604   2.377  1.00  0.00     0.037 A 
ENDBRANCH  12  13
ENDBRANCH  11  12
ENDBRANCH   8  11
ENDBRANCH   2   5
BRANCH   1  19
HETATM   19  C   UNL     1      39.497  -9.109   8.771  1.00  0.00     0.182 C 
BRANCH  19  20
HETATM   20  C   UNL     1      40.213  -9.004  10.100  1.00  0.00     0.052 A 
HETATM   21  N   UNL     1      41.452  -9.556  10.215  1.00  0.00    -0.256 NA
HETATM   22  C   UNL     1      42.090  -9.464  11.413  1.00  0.00     0.040 A 
HETATM   23  C   UNL     1      43.455 -10.090  11.457  1.00  0.00     0.071 C 
HETATM   24  C   UNL     1      41.525  -8.838  12.533  1.00  0.00    -0.006 A 
HETATM   25  C   UNL     1      40.249  -8.281  12.377  1.00  0.00     0.014 A 
HETATM   26  C   UNL     1      39.585  -8.363  11.159  1.00  0.00     0.029 A 
BRANCH  24  27
HETATM   27  C   UNL     1      42.254  -8.711  13.851  1.00  0.00     0.149 C 
HETATM   28  C   UNL     1      43.050  -7.412  13.925  1.00  0.00     0.044 C 
BRANCH  27  29
HETATM   29  O   UNL     1      41.315  -8.738  14.929  1.00  0.00    -0.391 OA
HETATM   30  H   UNL     1      41.758  -8.358  15.707  1.00  0.00     0.210 HD
ENDBRANCH  27  29
ENDBRANCH  24  27
ENDBRANCH  19  20
ENDBRANCH   1  19
TORSDOF 8
ENDMDL
MODEL 9
REMARK VINA RESULT:      -7.7      2.958     10.534
REMARK  8 active torsions:
REMARK  status: ('A' for Active; 'I' for Inactive)
REMARK    1  A    between atoms: C_4  and  C_5 
REMARK    2  A    between atoms: C_5  and  N_6 
REMARK       I    between atoms: N_6  and  C_7 
REMARK    3  A    between atoms: C_7  and  C_8 
REMARK    4  A    between atoms: C_11  and  C_12 
REMARK    5  A    between atoms: C_12  and  O_13 
REMARK    6  A    between atoms: O_13  and  C_14 
REMARK    7  A    between atoms: C_25  and  C_26 
REMARK    8  A    between atoms: C_26  and  O_27 
ROOT
HETATM    1  N   UNL     1      43.671 -10.899   9.422  1.00  0.00    -0.351 N 
HETATM    2  C   UNL     1      44.099 -10.748   8.126  1.00  0.00     0.251 C 
HETATM    3  O   UNL     1      44.851  -9.843   7.779  1.00  0.00    -0.268 OA
HETATM    4  H   UNL     1      42.942 -11.552   9.685  1.00  0.00     0.163 HD
ENDROOT
BRANCH   2   5
HETATM    5  C   UNL     1      43.573 -11.713   7.121  1.00  0.00     0.032 A 
HETATM    6  C   UNL     1      42.503 -11.305   6.315  1.00  0.00     0.017 A 
HETATM    7  C   UNL     1      41.955 -12.175   5.372  1.00  0.00     0.010 A 
HETATM    8  C   UNL     1      42.468 -13.470   5.218  1.00  0.00    -0.034 A 
HETATM    9  C   UNL     1      43.567 -13.862   5.998  1.00  0.00     0.010 A 
HETATM   10  C   UNL     1      44.116 -12.991   6.946  1.00  0.00     0.017 A 
BRANCH   8  11
HETATM   11  C   UNL     1      41.857 -14.413   4.209  1.00  0.00     0.214 C 
BRANCH  11  12
HETATM   12  O   UNL     1      41.743 -15.704   4.800  1.00  0.00    -0.347 OA
BRANCH  12  13
HETATM   13  C   UNL     1      42.512 -16.699   4.263  1.00  0.00     0.069 A 
HETATM   14  C   UNL     1      43.514 -17.415   4.923  1.00  0.00     0.037 A 
HETATM   15  C   UNL     1      44.224 -18.415   4.250  1.00  0.00     0.003 A 
HETATM   16  C   UNL     1      43.939 -18.702   2.917  1.00  0.00     0.000 A 
HETATM   17  C   UNL     1      42.944 -17.990   2.252  1.00  0.00     0.003 A 
HETATM   18  C   UNL     1      42.234 -16.993   2.926  1.00  0.00     0.037 A 
ENDBRANCH  12  13
ENDBRANCH  11  12
ENDBRANCH   8  11
ENDBRANCH   2   5
BRANCH   1  19
HETATM   19  C   UNL     1      44.037  -9.936  10.438  1.00  0.00     0.182 C 
BRANCH  19  20
HETATM   20  C   UNL     1      42.832  -9.352  11.144  1.00  0.00     0.052 A 
HETATM   21  N   UNL     1      42.852  -9.274  12.504  1.00  0.00    -0.256 NA
HETATM   22  C   UNL     1      41.765  -8.754  13.135  1.00  0.00     0.040 A 
HETATM   23  C   UNL     1      41.867  -8.696  14.633  1.00  0.00     0.071 C 
HETATM   24  C   UNL     1      40.626  -8.305  12.451  1.00  0.00    -0.006 A 
HETATM   25  C   UNL     1      40.643  -8.399  11.053  1.00  0.00     0.014 A 
HETATM   26  C   UNL     1      41.747  -8.925  10.392  1.00  0.00     0.029 A 
BRANCH  24  27
HETATM   27  C   UNL     1      39.437  -7.696  13.158  1.00  0.00     0.149 C 
HETATM   28  C   UNL     1      39.429  -6.177  13.028  1.00  0.00     0.044 C 
BRANCH  27  29
HETATM   29  O   UNL     1      38.227  -8.213  12.602  1.00  0.00    -0.391 OA
HETATM   30  H   UNL     1      38.474  -8.816  11.880  1.00  0.00     0.210 HD
ENDBRANCH  27  29
ENDBRANCH  24  27
ENDBRANCH  19  20
ENDBRANCH   1  19
TORSDOF 8
ENDMDL
MODEL 10
REMARK VINA RESULT:      -7.6      2.766     10.690
REMARK  8 active torsions:
REMARK  status: ('A' for Active; 'I' for Inactive)
REMARK    1  A    between atoms: C_4  and  C_5 
REMARK    2  A    between atoms: C_5  and  N_6 
REMARK       I    between atoms: N_6  and  C_7 
REMARK    3  A    between atoms: C_7  and  C_8 
REMARK    4  A    between atoms: C_11  and  C_12 
REMARK    5  A    between atoms: C_12  and  O_13 
REMARK    6  A    between atoms: O_13  and  C_14 
REMARK    7  A    between atoms: C_25  and  C_26 
REMARK    8  A    between atoms: C_26  and  O_27 
ROOT
HETATM    1  N   UNL     1      43.538 -10.782   9.492  1.00  0.00    -0.351 N 
HETATM    2  C   UNL     1      44.484 -10.898   8.502  1.00  0.00     0.251 C 
HETATM    3  O   UNL     1      45.688 -10.829   8.726  1.00  0.00    -0.268 OA
HETATM    4  H   UNL     1      42.548 -10.693   9.296  1.00  0.00     0.163 HD
ENDROOT
BRANCH   2   5
HETATM    5  C   UNL     1      43.988 -11.066   7.108  1.00  0.00     0.032 A 
HETATM    6  C   UNL     1      44.879 -11.566   6.149  1.00  0.00     0.017 A 
HETATM    7  C   UNL     1      44.475 -11.723   4.822  1.00  0.00     0.010 A 
HETATM    8  C   UNL     1      43.174 -11.383   4.431  1.00  0.00    -0.034 A 
HETATM    9  C   UNL     1      42.271 -10.922   5.401  1.00  0.00     0.010 A 
HETATM   10  C   UNL     1      42.675 -10.762   6.732  1.00  0.00     0.017 A 
BRANCH   8  11
HETATM   11  C   UNL     1      42.750 -11.538   2.989  1.00  0.00     0.214 C 
BRANCH  11  12
HETATM   12  O   UNL     1      41.686 -12.483   2.925  1.00  0.00    -0.347 OA
BRANCH  12  13
HETATM   13  C   UNL     1      42.026 -13.777   2.639  1.00  0.00     0.069 A 
HETATM   14  C   UNL     1      43.202 -14.202   2.015  1.00  0.00     0.037 A 
HETATM   15  C   UNL     1      43.423 -15.564   1.785  1.00  0.00     0.003 A 
HETATM   16  C   UNL     1      42.473 -16.505   2.174  1.00  0.00     0.000 A 
HETATM   17  C   UNL     1      41.298 -16.088   2.794  1.00  0.00     0.003 A 
HETATM   18  C   UNL     1      41.078 -14.728   3.024  1.00  0.00     0.037 A 
ENDBRANCH  12  13
ENDBRANCH  11  12
ENDBRANCH   8  11
ENDBRANCH   2   5
BRANCH   1  19
HETATM   19  C   UNL     1      43.928 -10.496  10.855  1.00  0.00     0.182 C 
BRANCH  19  20
HETATM   20  C   UNL     1      43.359  -9.188  11.361  1.00  0.00     0.052 A 
HETATM   21  N   UNL     1      43.232  -8.154  10.484  1.00  0.00    -0.256 NA
HETATM   22  C   UNL     1      42.725  -6.978  10.943  1.00  0.00     0.040 A 
HETATM   23  C   UNL     1      42.611  -5.890   9.914  1.00  0.00     0.071 C 
HETATM   24  C   UNL     1      42.338  -6.782  12.276  1.00  0.00    -0.006 A 
HETATM   25  C   UNL     1      42.481  -7.869  13.149  1.00  0.00     0.014 A 
HETATM   26  C   UNL     1      42.994  -9.078  12.695  1.00  0.00     0.029 A 
BRANCH  24  27
HETATM   27  C   UNL     1      41.744  -5.483  12.770  1.00  0.00     0.149 C 
HETATM   28  C   UNL     1      40.575  -5.730  13.719  1.00  0.00     0.044 C 
BRANCH  27  29
HETATM   29  O   UNL     1      42.742  -4.724  13.457  1.00  0.00    -0.391 OA
HETATM   30  H   UNL     1      42.289  -4.203  14.142  1.00  0.00     0.210 HD
ENDBRANCH  27  29
ENDBRANCH  24  27
ENDBRANCH  19  20
ENDBRANCH   1  19
TORSDOF 8
ENDMDL
