MODEL 1
REMARK VINA RESULT:      -8.7      0.000      0.000
REMARK  5 active torsions:
REMARK  status: ('A' for Active; 'I' for Inactive)
REMARK    1  A    between atoms: C_5  and  C_6 
REMARK       I    between atoms: C_6  and  N_7 
REMARK    2  A    between atoms: N_7  and  C_8 
REMARK    3  A    between atoms: C_13  and  O_14 
REMARK    4  A    between atoms: O_14  and  C_15 
REMARK    5  A    between atoms: C_15  and  C_16 
ROOT
HETATM    1  C   UNL     1      40.178 -14.598   2.852  1.00  0.00     0.163 A 
HETATM    2  N   UNL     1      39.887 -13.518   3.617  1.00  0.00    -0.241 NA
HETATM    3  C   UNL     1      40.276 -13.557   4.907  1.00  0.00     0.119 A 
HETATM    4  C   UNL     1      40.975 -14.611   5.467  1.00  0.00     0.022 A 
HETATM    5  C   UNL     1      41.335 -15.678   4.647  1.00  0.00     0.042 A 
HETATM    6  C   UNL     1      40.961 -15.675   3.302  1.00  0.00     0.115 A 
ENDROOT
BRANCH   1   7
HETATM    7  N   UNL     1      39.652 -14.510   1.557  1.00  0.00    -0.305 N 
HETATM    8  C   UNL     1      40.227 -13.812   0.517  1.00  0.00     0.258 C 
HETATM    9  O   UNL     1      41.278 -13.181   0.561  1.00  0.00    -0.267 OA
HETATM   10  H   UNL     1      38.994 -15.243   1.350  1.00  0.00     0.170 HD
BRANCH   8  11
HETATM   11  C   UNL     1      39.496 -13.856  -0.772  1.00  0.00     0.044 A 
HETATM   12  C   UNL     1      38.889 -12.723  -1.368  1.00  0.00     0.008 A 
HETATM   13  C   UNL     1      38.263 -12.891  -2.610  1.00  0.00     0.043 A 
HETATM   14  C   UNL     1      38.692 -11.352  -1.008  1.00  0.00     0.032 A 
HETATM   15  C   UNL     1      38.185 -14.126  -3.265  1.00  0.00     0.030 A 
HETATM   16  N   UNL     1      37.778 -11.662  -3.001  1.00  0.00    -0.365 N 
HETATM   17  C   UNL     1      38.751 -15.236  -2.638  1.00  0.00     0.003 A 
HETATM   18  C   UNL     1      39.399 -15.107  -1.413  1.00  0.00     0.018 A 
HETATM   19  H   UNL     1      37.287 -11.491  -3.868  1.00  0.00     0.165 HD
HETATM   20  C   UNL     1      38.029 -10.725  -2.038  1.00  0.00     0.089 A 
ENDBRANCH   8  11
ENDBRANCH   1   7
BRANCH   6  21
HETATM   21  O   UNL     1      41.420 -16.566   2.372  1.00  0.00    -0.343 OA
BRANCH  21  22
HETATM   22  C   UNL     1      42.824 -16.705   2.200  1.00  0.00     0.216 C 
BRANCH  22  23
HETATM   23  C   UNL     1      43.242 -18.041   2.750  1.00  0.00    -0.017 A 
HETATM   24  C   UNL     1      43.849 -18.141   3.999  1.00  0.00     0.125 A 
HETATM   25  N   UNL     1      44.256 -19.306   4.556  1.00  0.00    -0.272 NA
HETATM   26  C   UNL     1      44.047 -20.428   3.836  1.00  0.00     0.116 A 
HETATM   27  C   UNL     1      43.454 -20.440   2.584  1.00  0.00     0.020 A 
HETATM   28  C   UNL     1      43.048 -19.226   2.035  1.00  0.00     0.012 A 
ENDBRANCH  22  23
ENDBRANCH  21  22
ENDBRANCH   6  21
TORSDOF 5
ENDMDL
MODEL 2
REMARK VINA RESULT:      -8.4      2.315      5.429
REMARK  5 active torsions:
REMARK  status: ('A' for Active; 'I' for Inactive)
REMARK    1  A    between atoms: C_5  and  C_6 
REMARK       I    between atoms: C_6  and  N_7 
REMARK    2  A    between atoms: N_7  and  C_8 
REMARK    3  A    between atoms: C_13  and  O_14 
REMARK    4  A    between atoms: O_14  and  C_15 
REMARK    5  A    between atoms: C_15  and  C_16 
ROOT
HETATM    1  C   UNL     1      43.501 -18.181   3.137  1.00  0.00     0.163 A 
HETATM    2  N   UNL     1      43.116 -19.029   2.153  1.00  0.00    -0.241 NA
HETATM    3  C   UNL     1      43.368 -20.341   2.340  1.00  0.00     0.119 A 
HETATM    4  C   UNL     1      43.956 -20.854   3.482  1.00  0.00     0.022 A 
HETATM    5  C   UNL     1      44.272 -19.977   4.517  1.00  0.00     0.042 A 
HETATM    6  C   UNL     1      44.021 -18.612   4.369  1.00  0.00     0.115 A 
ENDROOT
BRANCH   1   7
HETATM    7  N   UNL     1      43.289 -16.835   2.813  1.00  0.00    -0.305 N 
HETATM    8  C   UNL     1      42.055 -16.225   2.743  1.00  0.00     0.258 C 
HETATM    9  O   UNL     1      40.971 -16.755   2.963  1.00  0.00    -0.267 OA
HETATM   10  H   UNL     1      44.110 -16.267   2.941  1.00  0.00     0.170 HD
BRANCH   8  11
HETATM   11  C   UNL     1      42.066 -14.786   2.382  1.00  0.00     0.044 A 
HETATM   12  C   UNL     1      41.280 -14.234   1.341  1.00  0.00     0.008 A 
HETATM   13  C   UNL     1      41.351 -12.851   1.128  1.00  0.00     0.043 A 
HETATM   14  C   UNL     1      40.390 -14.743   0.343  1.00  0.00     0.032 A 
HETATM   15  C   UNL     1      42.183 -12.005   1.873  1.00  0.00     0.030 A 
HETATM   16  N   UNL     1      40.490 -12.544   0.098  1.00  0.00    -0.365 N 
HETATM   17  C   UNL     1      42.979 -12.579   2.864  1.00  0.00     0.003 A 
HETATM   18  C   UNL     1      42.924 -13.946   3.119  1.00  0.00     0.018 A 
HETATM   19  H   UNL     1      40.336 -11.610  -0.260  1.00  0.00     0.165 HD
HETATM   20  C   UNL     1      39.906 -13.681  -0.387  1.00  0.00     0.089 A 
ENDBRANCH   8  11
ENDBRANCH   1   7
BRANCH   6  21
HETATM   21  O   UNL     1      44.112 -17.697   5.381  1.00  0.00    -0.343 OA
BRANCH  21  22
HETATM   22  C   UNL     1      43.114 -17.704   6.394  1.00  0.00     0.216 C 
BRANCH  22  23
HETATM   23  C   UNL     1      42.432 -16.363   6.400  1.00  0.00    -0.017 A 
HETATM   24  C   UNL     1      43.163 -15.190   6.566  1.00  0.00     0.125 A 
HETATM   25  N   UNL     1      42.618 -13.950   6.587  1.00  0.00    -0.272 NA
HETATM   26  C   UNL     1      41.279 -13.874   6.434  1.00  0.00     0.116 A 
HETATM   27  C   UNL     1      40.460 -14.977   6.264  1.00  0.00     0.020 A 
HETATM   28  C   UNL     1      41.047 -16.240   6.249  1.00  0.00     0.012 A 
ENDBRANCH  22  23
ENDBRANCH  21  22
ENDBRANCH   6  21
TORSDOF 5
ENDMDL
MODEL 3
REMARK VINA RESULT:      -8.4      2.599      7.419
REMARK  5 active torsions:
REMARK  status: ('A' for Active; 'I' for Inactive)
REMARK    1  A    between atoms: C_5  and  C_6 
REMARK       I    between atoms: C_6  and  N_7 
REMARK    2  A    between atoms: N_7  and  C_8 
REMARK    3  A    between atoms: C_13  and  O_14 
REMARK    4  A    between atoms: O_14  and  C_15 
REMARK    5  A    between atoms: C_15  and  C_16 
ROOT
HETATM    1  C   UNL     1      41.093 -14.599   1.511  1.00  0.00     0.163 A 
HETATM    2  N   UNL     1      40.420 -15.015   0.411  1.00  0.00    -0.241 NA
HETATM    3  C   UNL     1      39.779 -14.072  -0.310  1.00  0.00     0.119 A 
HETATM    4  C   UNL     1      39.806 -12.723  -0.006  1.00  0.00     0.022 A 
HETATM    5  C   UNL     1      40.569 -12.304   1.083  1.00  0.00     0.042 A 
HETATM    6  C   UNL     1      41.255 -13.245   1.851  1.00  0.00     0.115 A 
ENDROOT
BRANCH   1   7
HETATM    7  N   UNL     1      41.643 -15.655   2.248  1.00  0.00    -0.305 N 
HETATM    8  C   UNL     1      42.927 -16.134   2.104  1.00  0.00     0.258 C 
HETATM    9  O   UNL     1      43.777 -15.707   1.330  1.00  0.00    -0.267 OA
HETATM   10  H   UNL     1      41.146 -15.836   3.105  1.00  0.00     0.170 HD
BRANCH   8  11
HETATM   11  C   UNL     1      43.299 -17.261   2.993  1.00  0.00     0.044 A 
HETATM   12  C   UNL     1      43.466 -17.132   4.394  1.00  0.00     0.008 A 
HETATM   13  C   UNL     1      43.779 -18.285   5.126  1.00  0.00     0.043 A 
HETATM   14  C   UNL     1      43.436 -16.059   5.340  1.00  0.00     0.032 A 
HETATM   15  C   UNL     1      43.964 -19.540   4.533  1.00  0.00     0.030 A 
HETATM   16  N   UNL     1      43.862 -17.926   6.453  1.00  0.00    -0.365 N 
HETATM   17  C   UNL     1      43.838 -19.633   3.147  1.00  0.00     0.003 A 
HETATM   18  C   UNL     1      43.509 -18.515   2.385  1.00  0.00     0.018 A 
HETATM   19  H   UNL     1      44.067 -18.567   7.208  1.00  0.00     0.165 HD
HETATM   20  C   UNL     1      43.659 -16.581   6.593  1.00  0.00     0.089 A 
ENDBRANCH   8  11
ENDBRANCH   1   7
BRANCH   6  21
HETATM   21  O   UNL     1      42.177 -12.932   2.811  1.00  0.00    -0.343 OA
BRANCH  21  22
HETATM   22  C   UNL     1      41.717 -12.640   4.125  1.00  0.00     0.216 C 
BRANCH  22  23
HETATM   23  C   UNL     1      42.904 -12.289   4.979  1.00  0.00    -0.017 A 
HETATM   24  C   UNL     1      43.981 -11.583   4.449  1.00  0.00     0.125 A 
HETATM   25  N   UNL     1      45.085 -11.238   5.154  1.00  0.00    -0.272 NA
HETATM   26  C   UNL     1      45.118 -11.610   6.451  1.00  0.00     0.116 A 
HETATM   27  C   UNL     1      44.101 -12.315   7.074  1.00  0.00     0.020 A 
HETATM   28  C   UNL     1      42.980 -12.660   6.325  1.00  0.00     0.012 A 
ENDBRANCH  22  23
ENDBRANCH  21  22
ENDBRANCH   6  21
TORSDOF 5
ENDMDL
MODEL 4
REMARK VINA RESULT:      -8.4      2.422      7.418
REMARK  5 active torsions:
REMARK  status: ('A' for Active; 'I' for Inactive)
REMARK    1  A    between atoms: C_5  and  C_6 
REMARK       I    between atoms: C_6  and  N_7 
REMARK    2  A    between atoms: N_7  and  C_8 
REMARK    3  A    between atoms: C_13  and  O_14 
REMARK    4  A    between atoms: O_14  and  C_15 
REMARK    5  A    between atoms: C_15  and  C_16 
ROOT
HETATM    1  C   UNL     1      40.823 -14.720   1.657  1.00  0.00     0.163 A 
HETATM    2  N   UNL     1      40.497 -15.225   0.442  1.00  0.00    -0.241 NA
HETATM    3  C   UNL     1      39.828 -14.412  -0.401  1.00  0.00     0.119 A 
HETATM    4  C   UNL     1      39.496 -13.102  -0.103  1.00  0.00     0.022 A 
HETATM    5  C   UNL     1      39.909 -12.575   1.119  1.00  0.00     0.042 A 
HETATM    6  C   UNL     1      40.612 -13.379   2.017  1.00  0.00     0.115 A 
ENDROOT
BRANCH   1   7
HETATM    7  N   UNL     1      41.427 -15.663   2.497  1.00  0.00    -0.305 N 
HETATM    8  C   UNL     1      42.745 -16.058   2.423  1.00  0.00     0.258 C 
HETATM    9  O   UNL     1      43.583 -15.640   1.630  1.00  0.00    -0.267 OA
HETATM   10  H   UNL     1      40.921 -15.804   3.356  1.00  0.00     0.170 HD
BRANCH   8  11
HETATM   11  C   UNL     1      43.173 -17.072   3.417  1.00  0.00     0.044 A 
HETATM   12  C   UNL     1      43.398 -18.434   3.099  1.00  0.00     0.008 A 
HETATM   13  C   UNL     1      43.840 -19.282   4.123  1.00  0.00     0.043 A 
HETATM   14  C   UNL     1      43.252 -19.258   1.938  1.00  0.00     0.032 A 
HETATM   15  C   UNL     1      44.036 -18.851   5.441  1.00  0.00     0.030 A 
HETATM   16  N   UNL     1      44.016 -20.535   3.578  1.00  0.00    -0.365 N 
HETATM   17  C   UNL     1      43.767 -17.515   5.738  1.00  0.00     0.003 A 
HETATM   18  C   UNL     1      43.343 -16.636   4.745  1.00  0.00     0.018 A 
HETATM   19  H   UNL     1      44.340 -21.343   4.094  1.00  0.00     0.165 HD
HETATM   20  C   UNL     1      43.660 -20.532   2.258  1.00  0.00     0.089 A 
ENDBRANCH   8  11
ENDBRANCH   1   7
BRANCH   6  21
HETATM   21  O   UNL     1      41.226 -12.916   3.148  1.00  0.00    -0.343 OA
BRANCH  21  22
HETATM   22  C   UNL     1      42.497 -12.290   3.024  1.00  0.00     0.216 C 
BRANCH  22  23
HETATM   23  C   UNL     1      43.182 -12.333   4.362  1.00  0.00    -0.017 A 
HETATM   24  C   UNL     1      44.248 -11.484   4.646  1.00  0.00     0.125 A 
HETATM   25  N   UNL     1      44.917 -11.470   5.825  1.00  0.00    -0.272 NA
HETATM   26  C   UNL     1      44.502 -12.342   6.768  1.00  0.00     0.116 A 
HETATM   27  C   UNL     1      43.454 -13.229   6.587  1.00  0.00     0.020 A 
HETATM   28  C   UNL     1      42.787 -13.224   5.365  1.00  0.00     0.012 A 
ENDBRANCH  22  23
ENDBRANCH  21  22
ENDBRANCH   6  21
TORSDOF 5
ENDMDL
MODEL 5
REMARK VINA RESULT:      -8.2      1.511      7.719
REMARK  5 active torsions:
REMARK  status: ('A' for Active; 'I' for Inactive)
REMARK    1  A    between atoms: C_5  and  C_6 
REMARK       I    between atoms: C_6  and  N_7 
REMARK    2  A    between atoms: N_7  and  C_8 
REMARK    3  A    between atoms: C_13  and  O_14 
REMARK    4  A    between atoms: O_14  and  C_15 
REMARK    5  A    between atoms: C_15  and  C_16 
ROOT
HETATM    1  C   UNL     1      40.656 -15.028   3.838  1.00  0.00     0.163 A 
HETATM    2  N   UNL     1      40.617 -14.551   5.105  1.00  0.00    -0.241 NA
HETATM    3  C   UNL     1      40.121 -13.309   5.278  1.00  0.00     0.119 A 
HETATM    4  C   UNL     1      39.626 -12.529   4.249  1.00  0.00     0.022 A 
HETATM    5  C   UNL     1      39.600 -13.067   2.963  1.00  0.00     0.042 A 
HETATM    6  C   UNL     1      40.096 -14.353   2.741  1.00  0.00     0.115 A 
ENDROOT
BRANCH   1   7
HETATM    7  N   UNL     1      41.275 -16.281   3.743  1.00  0.00    -0.305 N 
HETATM    8  C   UNL     1      42.596 -16.485   3.408  1.00  0.00     0.258 C 
HETATM    9  O   UNL     1      43.424 -15.614   3.157  1.00  0.00    -0.267 OA
HETATM   10  H   UNL     1      40.778 -17.002   4.239  1.00  0.00     0.170 HD
BRANCH   8  11
HETATM   11  C   UNL     1      43.041 -17.899   3.368  1.00  0.00     0.044 A 
HETATM   12  C   UNL     1      43.351 -18.655   4.526  1.00  0.00     0.008 A 
HETATM   13  C   UNL     1      43.721 -19.996   4.354  1.00  0.00     0.043 A 
HETATM   14  C   UNL     1      43.432 -18.399   5.931  1.00  0.00     0.032 A 
HETATM   15  C   UNL     1      43.828 -20.604   3.097  1.00  0.00     0.030 A 
HETATM   16  N   UNL     1      43.943 -20.529   5.604  1.00  0.00    -0.365 N 
HETATM   17  C   UNL     1      43.560 -19.826   1.970  1.00  0.00     0.003 A 
HETATM   18  C   UNL     1      43.171 -18.496   2.099  1.00  0.00     0.018 A 
HETATM   19  H   UNL     1      44.215 -21.488   5.777  1.00  0.00     0.165 HD
HETATM   20  C   UNL     1      43.774 -19.571   6.565  1.00  0.00     0.089 A 
ENDBRANCH   8  11
ENDBRANCH   1   7
BRANCH   6  21
HETATM   21  O   UNL     1      39.945 -15.045   1.571  1.00  0.00    -0.343 OA
BRANCH  21  22
HETATM   22  C   UNL     1      40.861 -14.798   0.512  1.00  0.00     0.216 C 
BRANCH  22  23
HETATM   23  C   UNL     1      40.120 -14.131  -0.614  1.00  0.00    -0.017 A 
HETATM   24  C   UNL     1      40.262 -12.768  -0.855  1.00  0.00     0.125 A 
HETATM   25  N   UNL     1      39.623 -12.099  -1.845  1.00  0.00    -0.272 NA
HETATM   26  C   UNL     1      38.803 -12.824  -2.635  1.00  0.00     0.116 A 
HETATM   27  C   UNL     1      38.590 -14.183  -2.480  1.00  0.00     0.020 A 
HETATM   28  C   UNL     1      39.257 -14.844  -1.453  1.00  0.00     0.012 A 
ENDBRANCH  22  23
ENDBRANCH  21  22
ENDBRANCH   6  21
TORSDOF 5
ENDMDL
MODEL 6
REMARK VINA RESULT:      -8.1      3.222      6.559
REMARK  5 active torsions:
REMARK  status: ('A' for Active; 'I' for Inactive)
REMARK    1  A    between atoms: C_5  and  C_6 
REMARK       I    between atoms: C_6  and  N_7 
REMARK    2  A    between atoms: N_7  and  C_8 
REMARK    3  A    between atoms: C_13  and  O_14 
REMARK    4  A    between atoms: O_14  and  C_15 
REMARK    5  A    between atoms: C_15  and  C_16 
ROOT
HETATM    1  C   UNL     1      41.465 -14.329   3.360  1.00  0.00     0.163 A 
HETATM    2  N   UNL     1      40.548 -13.661   2.620  1.00  0.00    -0.241 NA
HETATM    3  C   UNL     1      39.846 -14.377   1.719  1.00  0.00     0.119 A 
HETATM    4  C   UNL     1      39.992 -15.741   1.541  1.00  0.00     0.022 A 
HETATM    5  C   UNL     1      40.882 -16.426   2.366  1.00  0.00     0.042 A 
HETATM    6  C   UNL     1      41.622 -15.724   3.319  1.00  0.00     0.115 A 
ENDROOT
BRANCH   1   7
HETATM    7  N   UNL     1      42.211 -13.489   4.197  1.00  0.00    -0.305 N 
HETATM    8  C   UNL     1      41.825 -13.086   5.457  1.00  0.00     0.258 C 
HETATM    9  O   UNL     1      40.791 -13.405   6.036  1.00  0.00    -0.267 OA
HETATM   10  H   UNL     1      43.185 -13.452   3.948  1.00  0.00     0.170 HD
BRANCH   8  11
HETATM   11  C   UNL     1      42.773 -12.194   6.168  1.00  0.00     0.044 A 
HETATM   12  C   UNL     1      42.431 -10.900   6.634  1.00  0.00     0.008 A 
HETATM   13  C   UNL     1      43.408 -10.174   7.328  1.00  0.00     0.043 A 
HETATM   14  C   UNL     1      41.286 -10.046   6.555  1.00  0.00     0.032 A 
HETATM   15  C   UNL     1      44.705 -10.657   7.550  1.00  0.00     0.030 A 
HETATM   16  N   UNL     1      42.847  -8.974   7.704  1.00  0.00    -0.365 N 
HETATM   17  C   UNL     1      45.030 -11.915   7.044  1.00  0.00     0.003 A 
HETATM   18  C   UNL     1      44.082 -12.676   6.365  1.00  0.00     0.018 A 
HETATM   19  H   UNL     1      43.328  -8.257   8.230  1.00  0.00     0.165 HD
HETATM   20  C   UNL     1      41.564  -8.885   7.239  1.00  0.00     0.089 A 
ENDBRANCH   8  11
ENDBRANCH   1   7
BRANCH   6  21
HETATM   21  O   UNL     1      42.373 -16.314   4.298  1.00  0.00    -0.343 OA
BRANCH  21  22
HETATM   22  C   UNL     1      43.708 -16.696   3.994  1.00  0.00     0.216 C 
BRANCH  22  23
HETATM   23  C   UNL     1      43.756 -18.193   3.854  1.00  0.00    -0.017 A 
HETATM   24  C   UNL     1      44.031 -19.004   4.951  1.00  0.00     0.125 A 
HETATM   25  N   UNL     1      44.096 -20.356   4.900  1.00  0.00    -0.272 NA
HETATM   26  C   UNL     1      43.873 -20.929   3.699  1.00  0.00     0.116 A 
HETATM   27  C   UNL     1      43.592 -20.215   2.546  1.00  0.00     0.020 A 
HETATM   28  C   UNL     1      43.535 -18.826   2.627  1.00  0.00     0.012 A 
ENDBRANCH  22  23
ENDBRANCH  21  22
ENDBRANCH   6  21
TORSDOF 5
ENDMDL
MODEL 7
REMARK VINA RESULT:      -8.1      3.122      7.171
REMARK  5 active torsions:
REMARK  status: ('A' for Active; 'I' for Inactive)
REMARK    1  A    between atoms: C_5  and  C_6 
REMARK       I    between atoms: C_6  and  N_7 
REMARK    2  A    between atoms: N_7  and  C_8 
REMARK    3  A    between atoms: C_13  and  O_14 
REMARK    4  A    between atoms: O_14  and  C_15 
REMARK    5  A    between atoms: C_15  and  C_16 
ROOT
HETATM    1  C   UNL     1      43.574 -17.588   3.897  1.00  0.00     0.163 A 
HETATM    2  N   UNL     1      44.293 -18.469   4.634  1.00  0.00    -0.241 NA
HETATM    3  C   UNL     1      44.334 -19.744   4.198  1.00  0.00     0.119 A 
HETATM    4  C   UNL     1      43.718 -20.180   3.039  1.00  0.00     0.022 A 
HETATM    5  C   UNL     1      43.050 -19.244   2.252  1.00  0.00     0.042 A 
HETATM    6  C   UNL     1      42.991 -17.911   2.661  1.00  0.00     0.115 A 
ENDROOT
BRANCH   1   7
HETATM    7  N   UNL     1      43.508 -16.315   4.477  1.00  0.00    -0.305 N 
HETATM    8  C   UNL     1      42.567 -15.916   5.400  1.00  0.00     0.258 C 
HETATM    9  O   UNL     1      41.664 -16.607   5.861  1.00  0.00    -0.267 OA
HETATM   10  H   UNL     1      44.376 -15.809   4.412  1.00  0.00     0.170 HD
BRANCH   8  11
HETATM   11  C   UNL     1      42.687 -14.519   5.883  1.00  0.00     0.044 A 
HETATM   12  C   UNL     1      41.615 -13.591   5.872  1.00  0.00     0.008 A 
HETATM   13  C   UNL     1      41.849 -12.312   6.394  1.00  0.00     0.043 A 
HETATM   14  C   UNL     1      40.262 -13.587   5.406  1.00  0.00     0.032 A 
HETATM   15  C   UNL     1      43.094 -11.906   6.891  1.00  0.00     0.030 A 
HETATM   16  N   UNL     1      40.671 -11.605   6.306  1.00  0.00    -0.365 N 
HETATM   17  C   UNL     1      44.145 -12.823   6.851  1.00  0.00     0.003 A 
HETATM   18  C   UNL     1      43.948 -14.109   6.357  1.00  0.00     0.018 A 
HETATM   19  H   UNL     1      40.551 -10.651   6.621  1.00  0.00     0.165 HD
HETATM   20  C   UNL     1      39.705 -12.366   5.707  1.00  0.00     0.089 A 
ENDBRANCH   8  11
ENDBRANCH   1   7
BRANCH   6  21
HETATM   21  O   UNL     1      42.534 -16.885   1.881  1.00  0.00    -0.343 OA
BRANCH  21  22
HETATM   22  C   UNL     1      43.440 -15.850   1.520  1.00  0.00     0.216 C 
BRANCH  22  23
HETATM   23  C   UNL     1      42.783 -14.525   1.792  1.00  0.00    -0.017 A 
HETATM   24  C   UNL     1      41.491 -14.263   1.343  1.00  0.00     0.125 A 
HETATM   25  N   UNL     1      40.838 -13.093   1.544  1.00  0.00    -0.272 NA
HETATM   26  C   UNL     1      41.502 -12.138   2.229  1.00  0.00     0.116 A 
HETATM   27  C   UNL     1      42.788 -12.295   2.717  1.00  0.00     0.020 A 
HETATM   28  C   UNL     1      43.437 -13.507   2.492  1.00  0.00     0.012 A 
ENDBRANCH  22  23
ENDBRANCH  21  22
ENDBRANCH   6  21
TORSDOF 5
ENDMDL
MODEL 8
REMARK VINA RESULT:      -8.1      1.698      7.524
REMARK  5 active torsions:
REMARK  status: ('A' for Active; 'I' for Inactive)
REMARK    1  A    between atoms: C_5  and  C_6 
REMARK       I    between atoms: C_6  and  N_7 
REMARK    2  A    between atoms: N_7  and  C_8 
REMARK    3  A    between atoms: C_13  and  O_14 
REMARK    4  A    between atoms: O_14  and  C_15 
REMARK    5  A    between atoms: C_15  and  C_16 
ROOT
HETATM    1  C   UNL     1      40.381 -13.450   3.753  1.00  0.00     0.163 A 
HETATM    2  N   UNL     1      40.359 -12.840   4.963  1.00  0.00    -0.241 NA
HETATM    3  C   UNL     1      39.796 -11.616   5.023  1.00  0.00     0.119 A 
HETATM    4  C   UNL     1      39.219 -10.982   3.938  1.00  0.00     0.022 A 
HETATM    5  C   UNL     1      39.179 -11.658   2.720  1.00  0.00     0.042 A 
HETATM    6  C   UNL     1      39.742 -12.930   2.615  1.00  0.00     0.115 A 
ENDROOT
BRANCH   1   7
HETATM    7  N   UNL     1      41.070 -14.669   3.767  1.00  0.00    -0.305 N 
HETATM    8  C   UNL     1      42.375 -14.842   3.359  1.00  0.00     0.258 C 
HETATM    9  O   UNL     1      43.127 -13.967   2.941  1.00  0.00    -0.267 OA
HETATM   10  H   UNL     1      40.655 -15.347   4.384  1.00  0.00     0.170 HD
BRANCH   8  11
HETATM   11  C   UNL     1      42.905 -16.224   3.461  1.00  0.00     0.044 A 
HETATM   12  C   UNL     1      43.134 -16.887   4.692  1.00  0.00     0.008 A 
HETATM   13  C   UNL     1      43.599 -18.207   4.650  1.00  0.00     0.043 A 
HETATM   14  C   UNL     1      43.049 -16.541   6.078  1.00  0.00     0.032 A 
HETATM   15  C   UNL     1      43.875 -18.882   3.454  1.00  0.00     0.030 A 
HETATM   16  N   UNL     1      43.717 -18.649   5.949  1.00  0.00    -0.365 N 
HETATM   17  C   UNL     1      43.684 -18.194   2.256  1.00  0.00     0.003 A 
HETATM   18  C   UNL     1      43.205 -16.886   2.255  1.00  0.00     0.018 A 
HETATM   19  H   UNL     1      44.026 -19.575   6.213  1.00  0.00     0.165 HD
HETATM   20  C   UNL     1      43.390 -17.648   6.821  1.00  0.00     0.089 A 
ENDBRANCH   8  11
ENDBRANCH   1   7
BRANCH   6  21
HETATM   21  O   UNL     1      39.591 -13.753   1.533  1.00  0.00    -0.343 OA
BRANCH  21  22
HETATM   22  C   UNL     1      40.331 -13.467   0.353  1.00  0.00     0.216 C 
BRANCH  22  23
HETATM   23  C   UNL     1      39.412 -13.606  -0.830  1.00  0.00    -0.017 A 
HETATM   24  C   UNL     1      38.436 -12.649  -1.093  1.00  0.00     0.125 A 
HETATM   25  N   UNL     1      37.571 -12.710  -2.134  1.00  0.00    -0.272 NA
HETATM   26  C   UNL     1      37.685 -13.775  -2.955  1.00  0.00     0.116 A 
HETATM   27  C   UNL     1      38.620 -14.782  -2.783  1.00  0.00     0.020 A 
HETATM   28  C   UNL     1      39.494 -14.695  -1.703  1.00  0.00     0.012 A 
ENDBRANCH  22  23
ENDBRANCH  21  22
ENDBRANCH   6  21
TORSDOF 5
ENDMDL
MODEL 9
REMARK VINA RESULT:      -8.0      2.494      4.712
REMARK  5 active torsions:
REMARK  status: ('A' for Active; 'I' for Inactive)
REMARK    1  A    between atoms: C_5  and  C_6 
REMARK       I    between atoms: C_6  and  N_7 
REMARK    2  A    between atoms: N_7  and  C_8 
REMARK    3  A    between atoms: C_13  and  O_14 
REMARK    4  A    between atoms: O_14  and  C_15 
REMARK    5  A    between atoms: C_15  and  C_16 
ROOT
HETATM    1  C   UNL     1      42.411 -15.748   2.123  1.00  0.00     0.163 A 
HETATM    2  N   UNL     1      42.858 -16.922   1.613  1.00  0.00    -0.241 NA
HETATM    3  C   UNL     1      43.404 -17.799   2.479  1.00  0.00     0.119 A 
HETATM    4  C   UNL     1      43.496 -17.577   3.842  1.00  0.00     0.022 A 
HETATM    5  C   UNL     1      42.959 -16.399   4.359  1.00  0.00     0.042 A 
HETATM    6  C   UNL     1      42.376 -15.467   3.499  1.00  0.00     0.115 A 
ENDROOT
BRANCH   1   7
HETATM    7  N   UNL     1      41.952 -14.864   1.139  1.00  0.00    -0.305 N 
HETATM    8  C   UNL     1      40.674 -14.854   0.621  1.00  0.00     0.258 C 
HETATM    9  O   UNL     1      39.754 -15.597   0.946  1.00  0.00    -0.267 OA
HETATM   10  H   UNL     1      42.519 -14.036   1.060  1.00  0.00     0.170 HD
BRANCH   8  11
HETATM   11  C   UNL     1      40.406 -13.826  -0.414  1.00  0.00     0.044 A 
HETATM   12  C   UNL     1      39.641 -14.072  -1.582  1.00  0.00     0.008 A 
HETATM   13  C   UNL     1      39.427 -13.003  -2.462  1.00  0.00     0.043 A 
HETATM   14  C   UNL     1      39.008 -15.208  -2.177  1.00  0.00     0.032 A 
HETATM   15  C   UNL     1      39.958 -11.724  -2.255  1.00  0.00     0.030 A 
HETATM   16  N   UNL     1      38.643 -13.466  -3.496  1.00  0.00    -0.365 N 
HETATM   17  C   UNL     1      40.743 -11.518  -1.120  1.00  0.00     0.003 A 
HETATM   18  C   UNL     1      40.965 -12.549  -0.211  1.00  0.00     0.018 A 
HETATM   19  H   UNL     1      38.327 -12.900  -4.272  1.00  0.00     0.165 HD
HETATM   20  C   UNL     1      38.386 -14.799  -3.335  1.00  0.00     0.089 A 
ENDBRANCH   8  11
ENDBRANCH   1   7
BRANCH   6  21
HETATM   21  O   UNL     1      41.656 -14.382   3.913  1.00  0.00    -0.343 OA
BRANCH  21  22
HETATM   22  C   UNL     1      41.696 -14.024   5.289  1.00  0.00     0.216 C 
BRANCH  22  23
HETATM   23  C   UNL     1      42.861 -13.098   5.507  1.00  0.00    -0.017 A 
HETATM   24  C   UNL     1      43.182 -12.120   4.568  1.00  0.00     0.125 A 
HETATM   25  N   UNL     1      44.218 -11.256   4.693  1.00  0.00    -0.272 NA
HETATM   26  C   UNL     1      44.970 -11.368   5.808  1.00  0.00     0.116 A 
HETATM   27  C   UNL     1      44.738 -12.305   6.801  1.00  0.00     0.020 A 
HETATM   28  C   UNL     1      43.668 -13.183   6.645  1.00  0.00     0.012 A 
ENDBRANCH  22  23
ENDBRANCH  21  22
ENDBRANCH   6  21
TORSDOF 5
ENDMDL
MODEL 10
REMARK VINA RESULT:      -8.0      2.796      7.418
REMARK  5 active torsions:
REMARK  status: ('A' for Active; 'I' for Inactive)
REMARK    1  A    between atoms: C_5  and  C_6 
REMARK       I    between atoms: C_6  and  N_7 
REMARK    2  A    between atoms: N_7  and  C_8 
REMARK    3  A    between atoms: C_13  and  O_14 
REMARK    4  A    between atoms: O_14  and  C_15 
REMARK    5  A    between atoms: C_15  and  C_16 
ROOT
HETATM    1  C   UNL     1      43.097 -13.122   5.736  1.00  0.00     0.163 A 
HETATM    2  N   UNL     1      44.060 -12.871   6.655  1.00  0.00    -0.241 NA
HETATM    3  C   UNL     1      43.985 -11.700   7.319  1.00  0.00     0.119 A 
HETATM    4  C   UNL     1      42.972 -10.776   7.134  1.00  0.00     0.022 A 
HETATM    5  C   UNL     1      41.946 -11.087   6.243  1.00  0.00     0.042 A 
HETATM    6  C   UNL     1      41.980 -12.293   5.542  1.00  0.00     0.115 A 
ENDROOT
BRANCH   1   7
HETATM    7  N   UNL     1      43.311 -14.313   5.030  1.00  0.00    -0.305 N 
HETATM    8  C   UNL     1      42.783 -15.539   5.374  1.00  0.00     0.258 C 
HETATM    9  O   UNL     1      42.047 -15.771   6.327  1.00  0.00    -0.267 OA
HETATM   10  H   UNL     1      43.616 -14.159   4.084  1.00  0.00     0.170 HD
BRANCH   8  11
HETATM   11  C   UNL     1      43.141 -16.668   4.481  1.00  0.00     0.044 A 
HETATM   12  C   UNL     1      43.437 -17.973   4.948  1.00  0.00     0.008 A 
HETATM   13  C   UNL     1      43.720 -18.962   3.996  1.00  0.00     0.043 A 
HETATM   14  C   UNL     1      43.574 -18.602   6.225  1.00  0.00     0.032 A 
HETATM   15  C   UNL     1      43.754 -18.709   2.619  1.00  0.00     0.030 A 
HETATM   16  N   UNL     1      43.945 -20.139   4.674  1.00  0.00    -0.365 N 
HETATM   17  C   UNL     1      43.501 -17.407   2.187  1.00  0.00     0.003 A 
HETATM   18  C   UNL     1      43.198 -16.401   3.099  1.00  0.00     0.018 A 
HETATM   19  H   UNL     1      44.163 -21.022   4.232  1.00  0.00     0.165 HD
HETATM   20  C   UNL     1      43.862 -19.933   6.023  1.00  0.00     0.089 A 
ENDBRANCH   8  11
ENDBRANCH   1   7
BRANCH   6  21
HETATM   21  O   UNL     1      40.942 -12.780   4.797  1.00  0.00    -0.343 OA
BRANCH  21  22
HETATM   22  C   UNL     1      40.734 -12.251   3.493  1.00  0.00     0.216 C 
BRANCH  22  23
HETATM   23  C   UNL     1      40.451 -13.392   2.555  1.00  0.00    -0.017 A 
HETATM   24  C   UNL     1      40.544 -13.223   1.176  1.00  0.00     0.125 A 
HETATM   25  N   UNL     1      40.298 -14.201   0.271  1.00  0.00    -0.272 NA
HETATM   26  C   UNL     1      39.945 -15.407   0.763  1.00  0.00     0.116 A 
HETATM   27  C   UNL     1      39.823 -15.681   2.115  1.00  0.00     0.020 A 
HETATM   28  C   UNL     1      40.078 -14.656   3.022  1.00  0.00     0.012 A 
ENDBRANCH  22  23
ENDBRANCH  21  22
ENDBRANCH   6  21
TORSDOF 5
ENDMDL
