MODEL 1
REMARK VINA RESULT:      -8.4      0.000      0.000
REMARK  9 active torsions:
REMARK  status: ('A' for Active; 'I' for Inactive)
REMARK    1  A    between atoms: C_6  and  S_7 
REMARK    2  A    between atoms: S_7  and  C_8 
REMARK    3  A    between atoms: C_8  and  C_9 
REMARK       I    between atoms: C_9  and  N_10 
REMARK    4  A    between atoms: N_10  and  N_11 
REMARK    5  A    between atoms: N_11  and  C_12 
REMARK    6  A    between atoms: C_12  and  N_13 
REMARK    7  A    between atoms: N_13  and  C_14 
REMARK    8  A    between atoms: C_17  and  O_18 
REMARK    9  A    between atoms: O_18  and  C_19 
ROOT
HETATM    1  C   UNL     1      41.058 -15.419   6.670  1.00  0.00     0.245 C 
HETATM    2  N   UNL     1      40.868 -14.045   6.568  1.00  0.00    -0.267 N 
HETATM    3  O   UNL     1      40.287 -16.260   6.208  1.00  0.00    -0.271 OA
HETATM    4  H   UNL     1      41.708 -13.468   6.553  1.00  0.00     0.190 HD
ENDROOT
BRANCH   2   5
HETATM    5  N   UNL     1      39.829 -13.598   5.743  1.00  0.00    -0.274 N 
HETATM    6  H   UNL     1      38.889 -13.782   6.075  1.00  0.00     0.189 HD
BRANCH   5   7
HETATM    7  C   UNL     1      40.052 -12.930   4.567  1.00  0.00     0.191 C 
HETATM    8  S   UNL     1      41.363 -11.931   4.258  1.00  0.00    -0.039 SA
BRANCH   7   9
HETATM    9  N   UNL     1      39.194 -13.186   3.530  1.00  0.00    -0.332 N 
HETATM   10  H   UNL     1      38.224 -13.218   3.824  1.00  0.00     0.168 HD
BRANCH   9  11
HETATM   11  C   UNL     1      39.440 -13.409   2.162  1.00  0.00     0.034 A 
HETATM   12  C   UNL     1      39.274 -12.438   1.174  1.00  0.00     0.032 A 
HETATM   13  C   UNL     1      39.492 -12.756  -0.170  1.00  0.00     0.039 A 
HETATM   14  C   UNL     1      39.910 -14.034  -0.545  1.00  0.00     0.075 A 
HETATM   15  C   UNL     1      40.136 -14.990   0.446  1.00  0.00     0.039 A 
HETATM   16  C   UNL     1      39.915 -14.671   1.792  1.00  0.00     0.032 A 
BRANCH  14  17
HETATM   17  O   UNL     1      40.054 -14.214  -1.892  1.00  0.00    -0.290 OA
BRANCH  17  18
HETATM   18  C   UNL     1      38.956 -14.779  -2.587  1.00  0.00     0.505 C 
HETATM   19  F   UNL     1      38.737 -16.039  -2.134  1.00  0.00    -0.184 F 
HETATM   20  F   UNL     1      37.856 -14.055  -2.262  1.00  0.00    -0.184 F 
ENDBRANCH  17  18
ENDBRANCH  14  17
ENDBRANCH   9  11
ENDBRANCH   7   9
ENDBRANCH   5   7
ENDBRANCH   2   5
BRANCH   1  21
HETATM   21  C   UNL     1      42.339 -15.787   7.401  1.00  0.00     0.187 C 
BRANCH  21  22
HETATM   22  S   UNL     1      43.797 -15.397   6.395  1.00  0.00    -0.083 SA
BRANCH  22  23
HETATM   23  C   UNL     1      43.759 -16.687   5.252  1.00  0.00     0.168 A 
HETATM   24  N   UNL     1      43.369 -16.639   4.001  1.00  0.00    -0.223 NA
HETATM   25  C   UNL     1      43.461 -17.943   3.565  1.00  0.00     0.086 A 
HETATM   26  C   UNL     1      43.925 -18.780   4.578  1.00  0.00     0.063 A 
HETATM   27  C   UNL     1      43.153 -18.493   2.313  1.00  0.00     0.034 A 
HETATM   28  C   UNL     1      44.101 -20.156   4.419  1.00  0.00     0.032 A 
HETATM   29  N   UNL     1      44.120 -17.940   5.644  1.00  0.00    -0.333 N 
HETATM   30  C   UNL     1      43.785 -20.686   3.164  1.00  0.00     0.002 A 
HETATM   31  C   UNL     1      43.320 -19.873   2.127  1.00  0.00     0.002 A 
HETATM   32  H   UNL     1      44.436 -18.196   6.567  1.00  0.00     0.168 HD
ENDBRANCH  22  23
ENDBRANCH  21  22
ENDBRANCH   1  21
TORSDOF 9
ENDMDL
MODEL 2
REMARK VINA RESULT:      -8.1      5.523      8.553
REMARK  9 active torsions:
REMARK  status: ('A' for Active; 'I' for Inactive)
REMARK    1  A    between atoms: C_6  and  S_7 
REMARK    2  A    between atoms: S_7  and  C_8 
REMARK    3  A    between atoms: C_8  and  C_9 
REMARK       I    between atoms: C_9  and  N_10 
REMARK    4  A    between atoms: N_10  and  N_11 
REMARK    5  A    between atoms: N_11  and  C_12 
REMARK    6  A    between atoms: C_12  and  N_13 
REMARK    7  A    between atoms: N_13  and  C_14 
REMARK    8  A    between atoms: C_17  and  O_18 
REMARK    9  A    between atoms: O_18  and  C_19 
ROOT
HETATM    1  C   UNL     1      43.458 -11.868   7.103  1.00  0.00     0.245 C 
HETATM    2  N   UNL     1      42.149 -11.855   6.636  1.00  0.00    -0.267 N 
HETATM    3  O   UNL     1      44.096 -12.892   7.345  1.00  0.00    -0.271 OA
HETATM    4  H   UNL     1      41.878 -11.060   6.058  1.00  0.00     0.190 HD
ENDROOT
BRANCH   2   5
HETATM    5  N   UNL     1      41.589 -13.081   6.255  1.00  0.00    -0.274 N 
HETATM    6  H   UNL     1      41.126 -13.604   6.989  1.00  0.00     0.189 HD
BRANCH   5   7
HETATM    7  C   UNL     1      41.635 -13.548   4.967  1.00  0.00     0.191 C 
HETATM    8  S   UNL     1      40.431 -13.335   3.819  1.00  0.00    -0.039 SA
BRANCH   7   9
HETATM    9  N   UNL     1      42.801 -14.140   4.557  1.00  0.00    -0.332 N 
HETATM   10  H   UNL     1      43.572 -13.484   4.497  1.00  0.00     0.168 HD
BRANCH   9  11
HETATM   11  C   UNL     1      43.087 -15.474   4.212  1.00  0.00     0.034 A 
HETATM   12  C   UNL     1      42.932 -15.995   2.928  1.00  0.00     0.032 A 
HETATM   13  C   UNL     1      43.193 -17.346   2.679  1.00  0.00     0.039 A 
HETATM   14  C   UNL     1      43.643 -18.188   3.697  1.00  0.00     0.075 A 
HETATM   15  C   UNL     1      43.858 -17.656   4.968  1.00  0.00     0.039 A 
HETATM   16  C   UNL     1      43.595 -16.303   5.217  1.00  0.00     0.032 A 
BRANCH  14  17
HETATM   17  O   UNL     1      43.827 -19.488   3.320  1.00  0.00    -0.290 OA
BRANCH  17  18
HETATM   18  C   UNL     1      43.517 -19.820   1.978  1.00  0.00     0.505 C 
HETATM   19  F   UNL     1      44.386 -20.762   1.534  1.00  0.00    -0.184 F 
HETATM   20  F   UNL     1      42.289 -20.397   1.978  1.00  0.00    -0.184 F 
ENDBRANCH  17  18
ENDBRANCH  14  17
ENDBRANCH   9  11
ENDBRANCH   7   9
ENDBRANCH   5   7
ENDBRANCH   2   5
BRANCH   1  21
HETATM   21  C   UNL     1      44.039 -10.474   7.273  1.00  0.00     0.187 C 
BRANCH  21  22
HETATM   22  S   UNL     1      45.416 -10.483   8.455  1.00  0.00    -0.083 SA
BRANCH  22  23
HETATM   23  C   UNL     1      44.586 -10.136   9.925  1.00  0.00     0.168 A 
HETATM   24  N   UNL     1      43.868 -10.958  10.654  1.00  0.00    -0.223 NA
HETATM   25  C   UNL     1      43.368 -10.167  11.665  1.00  0.00     0.086 A 
HETATM   26  C   UNL     1      43.806  -8.850  11.538  1.00  0.00     0.063 A 
HETATM   27  C   UNL     1      42.518 -10.502  12.729  1.00  0.00     0.034 A 
HETATM   28  C   UNL     1      43.442  -7.829  12.417  1.00  0.00     0.032 A 
HETATM   29  N   UNL     1      44.597  -8.867  10.419  1.00  0.00    -0.333 N 
HETATM   30  C   UNL     1      42.590  -8.184  13.469  1.00  0.00     0.002 A 
HETATM   31  C   UNL     1      42.135  -9.495  13.626  1.00  0.00     0.002 A 
HETATM   32  H   UNL     1      45.076  -8.082  10.003  1.00  0.00     0.168 HD
ENDBRANCH  22  23
ENDBRANCH  21  22
ENDBRANCH   1  21
TORSDOF 9
ENDMDL
MODEL 3
REMARK VINA RESULT:      -8.1      2.434      2.884
REMARK  9 active torsions:
REMARK  status: ('A' for Active; 'I' for Inactive)
REMARK    1  A    between atoms: C_6  and  S_7 
REMARK    2  A    between atoms: S_7  and  C_8 
REMARK    3  A    between atoms: C_8  and  C_9 
REMARK       I    between atoms: C_9  and  N_10 
REMARK    4  A    between atoms: N_10  and  N_11 
REMARK    5  A    between atoms: N_11  and  C_12 
REMARK    6  A    between atoms: C_12  and  N_13 
REMARK    7  A    between atoms: N_13  and  C_14 
REMARK    8  A    between atoms: C_17  and  O_18 
REMARK    9  A    between atoms: O_18  and  C_19 
ROOT
HETATM    1  C   UNL     1      42.205 -14.504   6.759  1.00  0.00     0.245 C 
HETATM    2  N   UNL     1      42.988 -13.473   7.266  1.00  0.00    -0.267 N 
HETATM    3  O   UNL     1      41.311 -14.348   5.928  1.00  0.00    -0.271 OA
HETATM    4  H   UNL     1      43.934 -13.719   7.559  1.00  0.00     0.190 HD
ENDROOT
BRANCH   2   5
HETATM    5  N   UNL     1      42.865 -12.214   6.666  1.00  0.00    -0.274 N 
HETATM    6  H   UNL     1      42.004 -11.715   6.858  1.00  0.00     0.189 HD
BRANCH   5   7
HETATM    7  C   UNL     1      43.848 -11.667   5.883  1.00  0.00     0.191 C 
HETATM    8  S   UNL     1      45.416 -11.350   6.385  1.00  0.00    -0.039 SA
BRANCH   7   9
HETATM    9  N   UNL     1      43.555 -11.465   4.560  1.00  0.00    -0.332 N 
HETATM   10  H   UNL     1      43.916 -10.584   4.210  1.00  0.00     0.168 HD
BRANCH   9  11
HETATM   11  C   UNL     1      42.848 -12.260   3.639  1.00  0.00     0.034 A 
HETATM   12  C   UNL     1      41.509 -12.059   3.306  1.00  0.00     0.032 A 
HETATM   13  C   UNL     1      40.866 -12.926   2.416  1.00  0.00     0.039 A 
HETATM   14  C   UNL     1      41.556 -13.984   1.822  1.00  0.00     0.075 A 
HETATM   15  C   UNL     1      42.911 -14.151   2.106  1.00  0.00     0.039 A 
HETATM   16  C   UNL     1      43.554 -13.284   2.999  1.00  0.00     0.032 A 
BRANCH  14  17
HETATM   17  O   UNL     1      40.797 -14.768   1.001  1.00  0.00    -0.290 OA
BRANCH  17  18
HETATM   18  C   UNL     1      39.873 -15.646   1.621  1.00  0.00     0.505 C 
HETATM   19  F   UNL     1      39.448 -16.564   0.718  1.00  0.00    -0.184 F 
HETATM   20  F   UNL     1      40.547 -16.330   2.579  1.00  0.00    -0.184 F 
ENDBRANCH  17  18
ENDBRANCH  14  17
ENDBRANCH   9  11
ENDBRANCH   7   9
ENDBRANCH   5   7
ENDBRANCH   2   5
BRANCH   1  21
HETATM   21  C   UNL     1      42.577 -15.864   7.325  1.00  0.00     0.187 C 
BRANCH  21  22
HETATM   22  S   UNL     1      44.297 -16.286   6.928  1.00  0.00    -0.083 SA
BRANCH  22  23
HETATM   23  C   UNL     1      44.075 -17.281   5.538  1.00  0.00     0.168 A 
HETATM   24  N   UNL     1      43.658 -16.917   4.349  1.00  0.00    -0.223 NA
HETATM   25  C   UNL     1      43.584 -18.095   3.638  1.00  0.00     0.086 A 
HETATM   26  C   UNL     1      43.975 -19.180   4.421  1.00  0.00     0.063 A 
HETATM   27  C   UNL     1      43.179 -18.320   2.315  1.00  0.00     0.034 A 
HETATM   28  C   UNL     1      43.984 -20.498   3.961  1.00  0.00     0.032 A 
HETATM   29  N   UNL     1      44.297 -18.621   5.631  1.00  0.00    -0.333 N 
HETATM   30  C   UNL     1      43.572 -20.701   2.639  1.00  0.00     0.002 A 
HETATM   31  C   UNL     1      43.177 -19.635   1.828  1.00  0.00     0.002 A 
HETATM   32  H   UNL     1      44.607 -19.107   6.459  1.00  0.00     0.168 HD
ENDBRANCH  22  23
ENDBRANCH  21  22
ENDBRANCH   1  21
TORSDOF 9
ENDMDL
MODEL 4
REMARK VINA RESULT:      -8.1      5.861      8.920
REMARK  9 active torsions:
REMARK  status: ('A' for Active; 'I' for Inactive)
REMARK    1  A    between atoms: C_6  and  S_7 
REMARK    2  A    between atoms: S_7  and  C_8 
REMARK    3  A    between atoms: C_8  and  C_9 
REMARK       I    between atoms: C_9  and  N_10 
REMARK    4  A    between atoms: N_10  and  N_11 
REMARK    5  A    between atoms: N_11  and  C_12 
REMARK    6  A    between atoms: C_12  and  N_13 
REMARK    7  A    between atoms: N_13  and  C_14 
REMARK    8  A    between atoms: C_17  and  O_18 
REMARK    9  A    between atoms: O_18  and  C_19 
ROOT
HETATM    1  C   UNL     1      42.223 -10.520   6.784  1.00  0.00     0.245 C 
HETATM    2  N   UNL     1      42.628 -11.848   6.839  1.00  0.00    -0.267 N 
HETATM    3  O   UNL     1      41.257 -10.118   6.136  1.00  0.00    -0.271 OA
HETATM    4  H   UNL     1      43.097 -12.148   7.694  1.00  0.00     0.190 HD
ENDROOT
BRANCH   2   5
HETATM    5  N   UNL     1      41.783 -12.804   6.262  1.00  0.00    -0.274 N 
HETATM    6  H   UNL     1      40.931 -13.006   6.772  1.00  0.00     0.189 HD
BRANCH   5   7
HETATM    7  C   UNL     1      42.066 -13.421   5.071  1.00  0.00     0.191 C 
HETATM    8  S   UNL     1      43.016 -12.773   3.851  1.00  0.00    -0.039 SA
BRANCH   7   9
HETATM    9  N   UNL     1      41.627 -14.709   4.913  1.00  0.00    -0.332 N 
HETATM   10  H   UNL     1      40.671 -14.837   5.228  1.00  0.00     0.168 HD
BRANCH   9  11
HETATM   11  C   UNL     1      42.274 -15.849   4.402  1.00  0.00     0.034 A 
HETATM   12  C   UNL     1      43.282 -16.538   5.076  1.00  0.00     0.032 A 
HETATM   13  C   UNL     1      43.909 -17.635   4.476  1.00  0.00     0.039 A 
HETATM   14  C   UNL     1      43.518 -18.080   3.212  1.00  0.00     0.075 A 
HETATM   15  C   UNL     1      42.469 -17.431   2.561  1.00  0.00     0.039 A 
HETATM   16  C   UNL     1      41.843 -16.331   3.162  1.00  0.00     0.032 A 
BRANCH  14  17
HETATM   17  O   UNL     1      44.236 -19.139   2.735  1.00  0.00    -0.290 OA
BRANCH  17  18
HETATM   18  C   UNL     1      43.518 -20.326   2.443  1.00  0.00     0.505 C 
HETATM   19  F   UNL     1      43.614 -20.596   1.118  1.00  0.00    -0.184 F 
HETATM   20  F   UNL     1      44.139 -21.343   3.091  1.00  0.00    -0.184 F 
ENDBRANCH  17  18
ENDBRANCH  14  17
ENDBRANCH   9  11
ENDBRANCH   7   9
ENDBRANCH   5   7
ENDBRANCH   2   5
BRANCH   1  21
HETATM   21  C   UNL     1      43.091  -9.601   7.628  1.00  0.00     0.187 C 
BRANCH  21  22
HETATM   22  S   UNL     1      44.053 -10.547   8.841  1.00  0.00    -0.083 SA
BRANCH  22  23
HETATM   23  C   UNL     1      43.495  -9.848  10.314  1.00  0.00     0.168 A 
HETATM   24  N   UNL     1      44.031  -8.856  10.985  1.00  0.00    -0.223 NA
HETATM   25  C   UNL     1      43.248  -8.746  12.114  1.00  0.00     0.086 A 
HETATM   26  C   UNL     1      42.221  -9.688  12.108  1.00  0.00     0.063 A 
HETATM   27  C   UNL     1      43.362  -7.869  13.202  1.00  0.00     0.034 A 
HETATM   28  C   UNL     1      41.286  -9.814  13.137  1.00  0.00     0.032 A 
HETATM   29  N   UNL     1      42.400 -10.370  10.932  1.00  0.00    -0.333 N 
HETATM   30  C   UNL     1      41.419  -8.931  14.214  1.00  0.00     0.002 A 
HETATM   31  C   UNL     1      42.436  -7.975  14.249  1.00  0.00     0.002 A 
HETATM   32  H   UNL     1      41.850 -11.145  10.592  1.00  0.00     0.168 HD
ENDBRANCH  22  23
ENDBRANCH  21  22
ENDBRANCH   1  21
TORSDOF 9
ENDMDL
MODEL 5
REMARK VINA RESULT:      -8.0      4.672      7.912
REMARK  9 active torsions:
REMARK  status: ('A' for Active; 'I' for Inactive)
REMARK    1  A    between atoms: C_6  and  S_7 
REMARK    2  A    between atoms: S_7  and  C_8 
REMARK    3  A    between atoms: C_8  and  C_9 
REMARK       I    between atoms: C_9  and  N_10 
REMARK    4  A    between atoms: N_10  and  N_11 
REMARK    5  A    between atoms: N_11  and  C_12 
REMARK    6  A    between atoms: C_12  and  N_13 
REMARK    7  A    between atoms: N_13  and  C_14 
REMARK    8  A    between atoms: C_17  and  O_18 
REMARK    9  A    between atoms: O_18  and  C_19 
ROOT
HETATM    1  C   UNL     1      40.392 -13.419   5.508  1.00  0.00     0.245 C 
HETATM    2  N   UNL     1      39.887 -13.492   4.215  1.00  0.00    -0.267 N 
HETATM    3  O   UNL     1      40.684 -14.399   6.192  1.00  0.00    -0.271 OA
HETATM    4  H   UNL     1      40.102 -12.711   3.595  1.00  0.00     0.190 HD
ENDROOT
BRANCH   2   5
HETATM    5  N   UNL     1      39.875 -14.749   3.597  1.00  0.00    -0.274 N 
HETATM    6  H   UNL     1      39.204 -15.415   3.962  1.00  0.00     0.189 HD
BRANCH   5   7
HETATM    7  C   UNL     1      40.698 -15.067   2.548  1.00  0.00     0.191 C 
HETATM    8  S   UNL     1      40.232 -15.119   0.938  1.00  0.00    -0.039 SA
BRANCH   7   9
HETATM    9  N   UNL     1      42.026 -15.250   2.828  1.00  0.00    -0.332 N 
HETATM   10  H   UNL     1      42.586 -14.430   2.621  1.00  0.00     0.168 HD
BRANCH   9  11
HETATM   11  C   UNL     1      42.717 -16.366   3.336  1.00  0.00     0.034 A 
HETATM   12  C   UNL     1      43.285 -16.414   4.609  1.00  0.00     0.032 A 
HETATM   13  C   UNL     1      43.999 -17.545   5.019  1.00  0.00     0.039 A 
HETATM   14  C   UNL     1      44.128 -18.654   4.181  1.00  0.00     0.075 A 
HETATM   15  C   UNL     1      43.510 -18.632   2.931  1.00  0.00     0.039 A 
HETATM   16  C   UNL     1      42.797 -17.499   2.520  1.00  0.00     0.032 A 
BRANCH  14  17
HETATM   17  O   UNL     1      44.878 -19.673   4.697  1.00  0.00    -0.290 OA
BRANCH  17  18
HETATM   18  C   UNL     1      44.177 -20.737   5.319  1.00  0.00     0.505 C 
HETATM   19  F   UNL     1      43.282 -20.231   6.203  1.00  0.00    -0.184 F 
HETATM   20  F   UNL     1      43.457 -21.363   4.355  1.00  0.00    -0.184 F 
ENDBRANCH  17  18
ENDBRANCH  14  17
ENDBRANCH   9  11
ENDBRANCH   7   9
ENDBRANCH   5   7
ENDBRANCH   2   5
BRANCH   1  21
HETATM   21  C   UNL     1      40.568 -11.990   5.995  1.00  0.00     0.187 C 
BRANCH  21  22
HETATM   22  S   UNL     1      42.023 -11.218   5.235  1.00  0.00    -0.083 SA
BRANCH  22  23
HETATM   23  C   UNL     1      42.898 -10.724   6.635  1.00  0.00     0.168 A 
HETATM   24  N   UNL     1      44.190 -10.805   6.844  1.00  0.00    -0.223 NA
HETATM   25  C   UNL     1      44.356 -10.352   8.135  1.00  0.00     0.086 A 
HETATM   26  C   UNL     1      43.135  -9.987   8.700  1.00  0.00     0.063 A 
HETATM   27  C   UNL     1      45.524 -10.235   8.901  1.00  0.00     0.034 A 
HETATM   28  C   UNL     1      43.004  -9.507  10.004  1.00  0.00     0.032 A 
HETATM   29  N   UNL     1      42.221 -10.224   7.707  1.00  0.00    -0.333 N 
HETATM   30  C   UNL     1      44.181  -9.401  10.753  1.00  0.00     0.002 A 
HETATM   31  C   UNL     1      45.420  -9.757  10.215  1.00  0.00     0.002 A 
HETATM   32  H   UNL     1      41.222 -10.094   7.758  1.00  0.00     0.168 HD
ENDBRANCH  22  23
ENDBRANCH  21  22
ENDBRANCH   1  21
TORSDOF 9
ENDMDL
MODEL 6
REMARK VINA RESULT:      -7.9      7.063      9.208
REMARK  9 active torsions:
REMARK  status: ('A' for Active; 'I' for Inactive)
REMARK    1  A    between atoms: C_6  and  S_7 
REMARK    2  A    between atoms: S_7  and  C_8 
REMARK    3  A    between atoms: C_8  and  C_9 
REMARK       I    between atoms: C_9  and  N_10 
REMARK    4  A    between atoms: N_10  and  N_11 
REMARK    5  A    between atoms: N_11  and  C_12 
REMARK    6  A    between atoms: C_12  and  N_13 
REMARK    7  A    between atoms: N_13  and  C_14 
REMARK    8  A    between atoms: C_17  and  O_18 
REMARK    9  A    between atoms: O_18  and  C_19 
ROOT
HETATM    1  C   UNL     1      42.345 -13.196   6.301  1.00  0.00     0.245 C 
HETATM    2  N   UNL     1      43.220 -13.015   7.366  1.00  0.00    -0.267 N 
HETATM    3  O   UNL     1      41.679 -12.295   5.793  1.00  0.00    -0.271 OA
HETATM    4  H   UNL     1      44.018 -13.647   7.415  1.00  0.00     0.190 HD
ENDROOT
BRANCH   2   5
HETATM    5  N   UNL     1      43.484 -11.699   7.766  1.00  0.00    -0.274 N 
HETATM    6  H   UNL     1      42.677 -11.144   8.024  1.00  0.00     0.189 HD
BRANCH   5   7
HETATM    7  C   UNL     1      44.754 -11.185   7.831  1.00  0.00     0.191 C 
HETATM    8  S   UNL     1      45.839 -11.129   6.554  1.00  0.00    -0.039 SA
BRANCH   7   9
HETATM    9  N   UNL     1      45.123 -10.574   9.001  1.00  0.00    -0.332 N 
HETATM   10  H   UNL     1      46.129 -10.545   9.126  1.00  0.00     0.168 HD
BRANCH   9  11
HETATM   11  C   UNL     1      44.349 -10.003  10.028  1.00  0.00     0.034 A 
HETATM   12  C   UNL     1      43.894 -10.708  11.142  1.00  0.00     0.032 A 
HETATM   13  C   UNL     1      43.087 -10.076  12.094  1.00  0.00     0.039 A 
HETATM   14  C   UNL     1      42.752  -8.727  11.967  1.00  0.00     0.075 A 
HETATM   15  C   UNL     1      43.256  -8.004  10.887  1.00  0.00     0.039 A 
HETATM   16  C   UNL     1      44.062  -8.638   9.932  1.00  0.00     0.032 A 
BRANCH  14  17
HETATM   17  O   UNL     1      41.933  -8.250  12.951  1.00  0.00    -0.290 OA
BRANCH  17  18
HETATM   18  C   UNL     1      42.553  -7.814  14.150  1.00  0.00     0.505 C 
HETATM   19  F   UNL     1      43.815  -7.400  13.880  1.00  0.00    -0.184 F 
HETATM   20  F   UNL     1      41.872  -6.724  14.582  1.00  0.00    -0.184 F 
ENDBRANCH  17  18
ENDBRANCH  14  17
ENDBRANCH   9  11
ENDBRANCH   7   9
ENDBRANCH   5   7
ENDBRANCH   2   5
BRANCH   1  21
HETATM   21  C   UNL     1      42.304 -14.632   5.807  1.00  0.00     0.187 C 
BRANCH  21  22
HETATM   22  S   UNL     1      43.772 -15.550   6.350  1.00  0.00    -0.083 SA
BRANCH  22  23
HETATM   23  C   UNL     1      43.771 -16.858   5.229  1.00  0.00     0.168 A 
HETATM   24  N   UNL     1      43.462 -16.823   3.955  1.00  0.00    -0.223 NA
HETATM   25  C   UNL     1      43.547 -18.137   3.547  1.00  0.00     0.086 A 
HETATM   26  C   UNL     1      43.924 -18.967   4.600  1.00  0.00     0.063 A 
HETATM   27  C   UNL     1      43.304 -18.702   2.287  1.00  0.00     0.034 A 
HETATM   28  C   UNL     1      44.074 -20.349   4.475  1.00  0.00     0.032 A 
HETATM   29  N   UNL     1      44.074 -18.114   5.663  1.00  0.00    -0.333 N 
HETATM   30  C   UNL     1      43.823 -20.894   3.211  1.00  0.00     0.002 A 
HETATM   31  C   UNL     1      43.445 -20.088   2.134  1.00  0.00     0.002 A 
HETATM   32  H   UNL     1      44.325 -18.361   6.608  1.00  0.00     0.168 HD
ENDBRANCH  22  23
ENDBRANCH  21  22
ENDBRANCH   1  21
TORSDOF 9
ENDMDL
MODEL 7
REMARK VINA RESULT:      -7.7      4.929      6.604
REMARK  9 active torsions:
REMARK  status: ('A' for Active; 'I' for Inactive)
REMARK    1  A    between atoms: C_6  and  S_7 
REMARK    2  A    between atoms: S_7  and  C_8 
REMARK    3  A    between atoms: C_8  and  C_9 
REMARK       I    between atoms: C_9  and  N_10 
REMARK    4  A    between atoms: N_10  and  N_11 
REMARK    5  A    between atoms: N_11  and  C_12 
REMARK    6  A    between atoms: C_12  and  N_13 
REMARK    7  A    between atoms: N_13  and  C_14 
REMARK    8  A    between atoms: C_17  and  O_18 
REMARK    9  A    between atoms: O_18  and  C_19 
ROOT
HETATM    1  C   UNL     1      40.279 -14.067   2.348  1.00  0.00     0.245 C 
HETATM    2  N   UNL     1      40.268 -14.053   3.738  1.00  0.00    -0.267 N 
HETATM    3  O   UNL     1      39.469 -13.465   1.643  1.00  0.00    -0.271 OA
HETATM    4  H   UNL     1      41.168 -14.168   4.203  1.00  0.00     0.190 HD
ENDROOT
BRANCH   2   5
HETATM    5  N   UNL     1      39.388 -13.163   4.366  1.00  0.00    -0.274 N 
HETATM    6  H   UNL     1      38.488 -13.040   3.918  1.00  0.00     0.189 HD
BRANCH   5   7
HETATM    7  C   UNL     1      39.702 -12.507   5.529  1.00  0.00     0.191 C 
HETATM    8  S   UNL     1      38.789 -11.285   6.224  1.00  0.00    -0.039 SA
BRANCH   7   9
HETATM    9  N   UNL     1      40.788 -12.961   6.230  1.00  0.00    -0.332 N 
HETATM   10  H   UNL     1      40.599 -13.826   6.725  1.00  0.00     0.168 HD
BRANCH   9  11
HETATM   11  C   UNL     1      42.084 -12.431   6.371  1.00  0.00     0.034 A 
HETATM   12  C   UNL     1      43.234 -13.211   6.486  1.00  0.00     0.032 A 
HETATM   13  C   UNL     1      44.481 -12.604   6.672  1.00  0.00     0.039 A 
HETATM   14  C   UNL     1      44.602 -11.214   6.714  1.00  0.00     0.075 A 
HETATM   15  C   UNL     1      43.462 -10.431   6.539  1.00  0.00     0.039 A 
HETATM   16  C   UNL     1      42.213 -11.039   6.354  1.00  0.00     0.032 A 
BRANCH  14  17
HETATM   17  O   UNL     1      45.872 -10.760   6.934  1.00  0.00    -0.290 OA
BRANCH  17  18
HETATM   18  C   UNL     1      46.042  -9.793   7.956  1.00  0.00     0.505 C 
HETATM   19  F   UNL     1      45.888 -10.384   9.166  1.00  0.00    -0.184 F 
HETATM   20  F   UNL     1      47.328  -9.365   7.895  1.00  0.00    -0.184 F 
ENDBRANCH  17  18
ENDBRANCH  14  17
ENDBRANCH   9  11
ENDBRANCH   7   9
ENDBRANCH   5   7
ENDBRANCH   2   5
BRANCH   1  21
HETATM   21  C   UNL     1      41.417 -14.894   1.773  1.00  0.00     0.187 C 
BRANCH  21  22
HETATM   22  S   UNL     1      42.889 -14.800   2.830  1.00  0.00    -0.083 SA
BRANCH  22  23
HETATM   23  C   UNL     1      43.243 -16.473   3.044  1.00  0.00     0.168 A 
HETATM   24  N   UNL     1      43.167 -17.430   2.150  1.00  0.00    -0.223 NA
HETATM   25  C   UNL     1      43.477 -18.576   2.850  1.00  0.00     0.086 A 
HETATM   26  C   UNL     1      43.751 -18.291   4.186  1.00  0.00     0.063 A 
HETATM   27  C   UNL     1      43.534 -19.907   2.412  1.00  0.00     0.034 A 
HETATM   28  C   UNL     1      44.081 -19.265   5.129  1.00  0.00     0.032 A 
HETATM   29  N   UNL     1      43.606 -16.930   4.275  1.00  0.00    -0.333 N 
HETATM   30  C   UNL     1      44.128 -20.587   4.672  1.00  0.00     0.002 A 
HETATM   31  C   UNL     1      43.861 -20.906   3.339  1.00  0.00     0.002 A 
HETATM   32  H   UNL     1      43.709 -16.362   5.102  1.00  0.00     0.168 HD
ENDBRANCH  22  23
ENDBRANCH  21  22
ENDBRANCH   1  21
TORSDOF 9
ENDMDL
MODEL 8
REMARK VINA RESULT:      -7.7      3.358      7.001
REMARK  9 active torsions:
REMARK  status: ('A' for Active; 'I' for Inactive)
REMARK    1  A    between atoms: C_6  and  S_7 
REMARK    2  A    between atoms: S_7  and  C_8 
REMARK    3  A    between atoms: C_8  and  C_9 
REMARK       I    between atoms: C_9  and  N_10 
REMARK    4  A    between atoms: N_10  and  N_11 
REMARK    5  A    between atoms: N_11  and  C_12 
REMARK    6  A    between atoms: C_12  and  N_13 
REMARK    7  A    between atoms: N_13  and  C_14 
REMARK    8  A    between atoms: C_17  and  O_18 
REMARK    9  A    between atoms: O_18  and  C_19 
ROOT
HETATM    1  C   UNL     1      39.816 -11.579   3.758  1.00  0.00     0.245 C 
HETATM    2  N   UNL     1      40.153 -12.928   3.741  1.00  0.00    -0.267 N 
HETATM    3  O   UNL     1      39.106 -11.053   4.614  1.00  0.00    -0.271 OA
HETATM    4  H   UNL     1      41.048 -13.170   3.317  1.00  0.00     0.190 HD
ENDROOT
BRANCH   2   5
HETATM    5  N   UNL     1      39.803 -13.692   4.861  1.00  0.00    -0.274 N 
HETATM    6  H   UNL     1      38.903 -13.484   5.276  1.00  0.00     0.189 HD
BRANCH   5   7
HETATM    7  C   UNL     1      40.609 -14.681   5.364  1.00  0.00     0.191 C 
HETATM    8  S   UNL     1      40.141 -15.822   6.501  1.00  0.00    -0.039 SA
BRANCH   7   9
HETATM    9  N   UNL     1      41.857 -14.812   4.815  1.00  0.00    -0.332 N 
HETATM   10  H   UNL     1      42.387 -13.947   4.840  1.00  0.00     0.168 HD
BRANCH   9  11
HETATM   11  C   UNL     1      42.499 -15.921   4.234  1.00  0.00     0.034 A 
HETATM   12  C   UNL     1      42.204 -16.411   2.962  1.00  0.00     0.032 A 
HETATM   13  C   UNL     1      42.855 -17.550   2.477  1.00  0.00     0.039 A 
HETATM   14  C   UNL     1      43.830 -18.196   3.239  1.00  0.00     0.075 A 
HETATM   15  C   UNL     1      44.170 -17.674   4.486  1.00  0.00     0.039 A 
HETATM   16  C   UNL     1      43.517 -16.533   4.972  1.00  0.00     0.032 A 
BRANCH  14  17
HETATM   17  O   UNL     1      44.359 -19.313   2.656  1.00  0.00    -0.290 OA
BRANCH  17  18
HETATM   18  C   UNL     1      43.522 -20.453   2.569  1.00  0.00     0.505 C 
HETATM   19  F   UNL     1      43.355 -20.791   1.266  1.00  0.00    -0.184 F 
HETATM   20  F   UNL     1      44.181 -21.484   3.155  1.00  0.00    -0.184 F 
ENDBRANCH  17  18
ENDBRANCH  14  17
ENDBRANCH   9  11
ENDBRANCH   7   9
ENDBRANCH   5   7
ENDBRANCH   2   5
BRANCH   1  21
HETATM   21  C   UNL     1      40.435 -10.801   2.608  1.00  0.00     0.187 C 
BRANCH  21  22
HETATM   22  S   UNL     1      41.762 -11.753   1.817  1.00  0.00    -0.083 SA
BRANCH  22  23
HETATM   23  C   UNL     1      40.891 -12.536   0.553  1.00  0.00     0.168 A 
HETATM   24  N   UNL     1      40.467 -13.777   0.521  1.00  0.00    -0.223 NA
HETATM   25  C   UNL     1      39.908 -13.914  -0.732  1.00  0.00     0.086 A 
HETATM   26  C   UNL     1      39.995 -12.725  -1.454  1.00  0.00     0.063 A 
HETATM   27  C   UNL     1      39.313 -15.033  -1.331  1.00  0.00     0.034 A 
HETATM   28  C   UNL     1      39.522 -12.581  -2.759  1.00  0.00     0.032 A 
HETATM   29  N   UNL     1      40.619 -11.857  -0.596  1.00  0.00    -0.333 N 
HETATM   30  C   UNL     1      38.936 -13.710  -3.340  1.00  0.00     0.002 A 
HETATM   31  C   UNL     1      38.831 -14.916  -2.643  1.00  0.00     0.002 A 
HETATM   32  H   UNL     1      40.871 -10.898  -0.781  1.00  0.00     0.168 HD
ENDBRANCH  22  23
ENDBRANCH  21  22
ENDBRANCH   1  21
TORSDOF 9
ENDMDL
MODEL 9
REMARK VINA RESULT:      -7.6      3.217      5.641
REMARK  9 active torsions:
REMARK  status: ('A' for Active; 'I' for Inactive)
REMARK    1  A    between atoms: C_6  and  S_7 
REMARK    2  A    between atoms: S_7  and  C_8 
REMARK    3  A    between atoms: C_8  and  C_9 
REMARK       I    between atoms: C_9  and  N_10 
REMARK    4  A    between atoms: N_10  and  N_11 
REMARK    5  A    between atoms: N_11  and  C_12 
REMARK    6  A    between atoms: C_12  and  N_13 
REMARK    7  A    between atoms: N_13  and  C_14 
REMARK    8  A    between atoms: C_17  and  O_18 
REMARK    9  A    between atoms: O_18  and  C_19 
ROOT
HETATM    1  C   UNL     1      39.841 -11.040   2.509  1.00  0.00     0.245 C 
HETATM    2  N   UNL     1      39.497 -12.366   2.271  1.00  0.00    -0.267 N 
HETATM    3  O   UNL     1      39.984 -10.193   1.627  1.00  0.00    -0.271 OA
HETATM    4  H   UNL     1      38.976 -12.842   3.006  1.00  0.00     0.190 HD
ENDROOT
BRANCH   2   5
HETATM    5  N   UNL     1      39.126 -12.711   0.965  1.00  0.00    -0.274 N 
HETATM    6  H   UNL     1      38.255 -12.314   0.633  1.00  0.00     0.189 HD
BRANCH   5   7
HETATM    7  C   UNL     1      39.893 -13.517   0.165  1.00  0.00     0.191 C 
HETATM    8  S   UNL     1      39.429 -14.114  -1.332  1.00  0.00    -0.039 SA
BRANCH   7   9
HETATM    9  N   UNL     1      41.178 -13.764   0.573  1.00  0.00    -0.332 N 
HETATM   10  H   UNL     1      41.842 -13.094   0.200  1.00  0.00     0.168 HD
BRANCH   9  11
HETATM   11  C   UNL     1      41.706 -14.773   1.399  1.00  0.00     0.034 A 
HETATM   12  C   UNL     1      43.032 -14.808   1.832  1.00  0.00     0.032 A 
HETATM   13  C   UNL     1      43.491 -15.874   2.612  1.00  0.00     0.039 A 
HETATM   14  C   UNL     1      42.628 -16.901   2.999  1.00  0.00     0.075 A 
HETATM   15  C   UNL     1      41.288 -16.838   2.619  1.00  0.00     0.039 A 
HETATM   16  C   UNL     1      40.830 -15.771   1.836  1.00  0.00     0.032 A 
BRANCH  14  17
HETATM   17  O   UNL     1      43.217 -17.892   3.732  1.00  0.00    -0.290 OA
BRANCH  17  18
HETATM   18  C   UNL     1      43.670 -19.034   3.024  1.00  0.00     0.505 C 
HETATM   19  F   UNL     1      42.935 -19.185   1.894  1.00  0.00    -0.184 F 
HETATM   20  F   UNL     1      44.943 -18.784   2.627  1.00  0.00    -0.184 F 
ENDBRANCH  17  18
ENDBRANCH  14  17
ENDBRANCH   9  11
ENDBRANCH   7   9
ENDBRANCH   5   7
ENDBRANCH   2   5
BRANCH   1  21
HETATM   21  C   UNL     1      40.006 -10.728   3.987  1.00  0.00     0.187 C 
BRANCH  21  22
HETATM   22  S   UNL     1      41.755 -10.770   4.469  1.00  0.00    -0.083 SA
BRANCH  22  23
HETATM   23  C   UNL     1      41.900 -12.394   5.024  1.00  0.00     0.168 A 
HETATM   24  N   UNL     1      40.942 -13.277   5.184  1.00  0.00    -0.223 NA
HETATM   25  C   UNL     1      41.578 -14.376   5.719  1.00  0.00     0.086 A 
HETATM   26  C   UNL     1      42.943 -14.144   5.871  1.00  0.00     0.063 A 
HETATM   27  C   UNL     1      41.049 -15.614   6.113  1.00  0.00     0.034 A 
HETATM   28  C   UNL     1      43.829 -15.082   6.404  1.00  0.00     0.032 A 
HETATM   29  N   UNL     1      43.120 -12.867   5.403  1.00  0.00    -0.333 N 
HETATM   30  C   UNL     1      43.281 -16.308   6.795  1.00  0.00     0.002 A 
HETATM   31  C   UNL     1      41.917 -16.573   6.653  1.00  0.00     0.002 A 
HETATM   32  H   UNL     1      43.984 -12.346   5.374  1.00  0.00     0.168 HD
ENDBRANCH  22  23
ENDBRANCH  21  22
ENDBRANCH   1  21
TORSDOF 9
ENDMDL
MODEL 10
REMARK VINA RESULT:      -7.6      4.195      6.602
REMARK  9 active torsions:
REMARK  status: ('A' for Active; 'I' for Inactive)
REMARK    1  A    between atoms: C_6  and  S_7 
REMARK    2  A    between atoms: S_7  and  C_8 
REMARK    3  A    between atoms: C_8  and  C_9 
REMARK       I    between atoms: C_9  and  N_10 
REMARK    4  A    between atoms: N_10  and  N_11 
REMARK    5  A    between atoms: N_11  and  C_12 
REMARK    6  A    between atoms: C_12  and  N_13 
REMARK    7  A    between atoms: N_13  and  C_14 
REMARK    8  A    between atoms: C_17  and  O_18 
REMARK    9  A    between atoms: O_18  and  C_19 
ROOT
HETATM    1  C   UNL     1      42.069 -10.132   4.174  1.00  0.00     0.245 C 
HETATM    2  N   UNL     1      43.044 -11.113   4.303  1.00  0.00    -0.267 N 
HETATM    3  O   UNL     1      41.799  -9.306   5.045  1.00  0.00    -0.271 OA
HETATM    4  H   UNL     1      43.498 -11.422   3.444  1.00  0.00     0.190 HD
ENDROOT
BRANCH   2   5
HETATM    5  N   UNL     1      43.883 -11.045   5.423  1.00  0.00    -0.274 N 
HETATM    6  H   UNL     1      44.737 -10.515   5.304  1.00  0.00     0.189 HD
BRANCH   5   7
HETATM    7  C   UNL     1      43.569 -11.636   6.620  1.00  0.00     0.191 C 
HETATM    8  S   UNL     1      44.124 -11.130   8.119  1.00  0.00    -0.039 SA
BRANCH   7   9
HETATM    9  N   UNL     1      42.647 -12.648   6.596  1.00  0.00    -0.332 N 
HETATM   10  H   UNL     1      41.692 -12.307   6.563  1.00  0.00     0.168 HD
BRANCH   9  11
HETATM   11  C   UNL     1      42.809 -14.046   6.615  1.00  0.00     0.034 A 
HETATM   12  C   UNL     1      41.757 -14.948   6.762  1.00  0.00     0.032 A 
HETATM   13  C   UNL     1      42.010 -16.323   6.821  1.00  0.00     0.039 A 
HETATM   14  C   UNL     1      43.310 -16.818   6.700  1.00  0.00     0.075 A 
HETATM   15  C   UNL     1      44.358 -15.921   6.492  1.00  0.00     0.039 A 
HETATM   16  C   UNL     1      44.104 -14.545   6.436  1.00  0.00     0.032 A 
BRANCH  14  17
HETATM   17  O   UNL     1      43.414 -18.175   6.807  1.00  0.00    -0.290 OA
BRANCH  17  18
HETATM   18  C   UNL     1      43.572 -18.907   5.604  1.00  0.00     0.505 C 
HETATM   19  F   UNL     1      44.602 -18.386   4.892  1.00  0.00    -0.184 F 
HETATM   20  F   UNL     1      43.936 -20.169   5.943  1.00  0.00    -0.184 F 
ENDBRANCH  17  18
ENDBRANCH  14  17
ENDBRANCH   9  11
ENDBRANCH   7   9
ENDBRANCH   5   7
ENDBRANCH   2   5
BRANCH   1  21
HETATM   21  C   UNL     1      41.370 -10.165   2.824  1.00  0.00     0.187 C 
BRANCH  21  22
HETATM   22  S   UNL     1      40.020 -11.377   2.821  1.00  0.00    -0.083 SA
BRANCH  22  23
HETATM   23  C   UNL     1      40.905 -12.850   2.702  1.00  0.00     0.168 A 
HETATM   24  N   UNL     1      42.042 -13.056   2.081  1.00  0.00    -0.223 NA
HETATM   25  C   UNL     1      42.269 -14.407   2.224  1.00  0.00     0.086 A 
HETATM   26  C   UNL     1      41.248 -15.015   2.953  1.00  0.00     0.063 A 
HETATM   27  C   UNL     1      43.326 -15.195   1.746  1.00  0.00     0.034 A 
HETATM   28  C   UNL     1      41.213 -16.381   3.238  1.00  0.00     0.032 A 
HETATM   29  N   UNL     1      40.395 -13.985   3.257  1.00  0.00    -0.333 N 
HETATM   30  C   UNL     1      42.275 -17.149   2.748  1.00  0.00     0.002 A 
HETATM   31  C   UNL     1      43.314 -16.571   2.016  1.00  0.00     0.002 A 
HETATM   32  H   UNL     1      39.526 -14.048   3.765  1.00  0.00     0.168 HD
ENDBRANCH  22  23
ENDBRANCH  21  22
ENDBRANCH   1  21
TORSDOF 9
ENDMDL
