MODEL 1
REMARK VINA RESULT:      -9.4      0.000      0.000
REMARK  8 active torsions:
REMARK  status: ('A' for Active; 'I' for Inactive)
REMARK    1  A    between atoms: C_4  and  S_5 
REMARK    2  A    between atoms: S_5  and  C_6 
REMARK    3  A    between atoms: C_6  and  C_7 
REMARK       I    between atoms: C_7  and  N_8 
REMARK    4  A    between atoms: N_8  and  C_9 
REMARK    5  A    between atoms: C_20  and  C_21 
REMARK    6  A    between atoms: C_27  and  C_28 
REMARK       I    between atoms: C_28  and  N_29 
REMARK    7  A    between atoms: N_29  and  C_30 
REMARK    8  A    between atoms: C_31  and  O_32 
ROOT
HETATM    1  C   UNL     1      44.167 -14.560   6.444  1.00  0.00     0.069 C 
HETATM    2  C   UNL     1      42.940 -13.771   6.049  1.00  0.00     0.019 C 
HETATM    3  N   UNL     1      42.900 -12.464   6.506  1.00  0.00    -0.353 N 
HETATM    4  C   UNL     1      41.802 -11.631   6.435  1.00  0.00     0.087 C 
HETATM    5  C   UNL     1      40.726 -12.035   5.718  1.00  0.00     0.055 C 
HETATM    6  C   UNL     1      39.423 -11.253   5.725  1.00  0.00     0.019 C 
HETATM    7  N   UNL     1      38.342 -10.603   5.731  1.00  0.00    -0.096 N 
HETATM    8  C   UNL     1      40.802 -13.294   4.857  1.00  0.00     0.104 C 
HETATM    9  C   UNL     1      41.935 -14.238   5.264  1.00  0.00     0.046 C 
HETATM   10  H   UNL     1      43.666 -12.137   7.089  1.00  0.00     0.166 HD
ENDROOT
BRANCH   4  11
HETATM   11  S   UNL     1      41.901 -10.027   7.122  1.00  0.00    -0.102 SA
BRANCH  11  12
HETATM   12  C   UNL     1      43.572  -9.991   7.845  1.00  0.00     0.184 C 
BRANCH  12  13
HETATM   13  C   UNL     1      43.558 -10.043   9.380  1.00  0.00     0.231 C 
HETATM   14  N   UNL     1      42.660  -9.185   9.987  1.00  0.00    -0.327 N 
HETATM   15  H   UNL     1      42.111  -8.621   9.345  1.00  0.00     0.169 HD
HETATM   16  O   UNL     1      44.339 -10.789   9.967  1.00  0.00    -0.272 OA
BRANCH  14  17
HETATM   17  C   UNL     1      42.379  -9.018  11.354  1.00  0.00     0.034 A 
HETATM   18  C   UNL     1      41.327  -9.648  12.021  1.00  0.00     0.031 A 
HETATM   19  C   UNL     1      41.110  -9.411  13.384  1.00  0.00     0.026 A 
HETATM   20  C   UNL     1      41.949  -8.548  14.084  1.00  0.00     0.034 A 
HETATM   21 CL   UNL     1      41.683  -8.260  15.758  1.00  0.00    -0.084 Cl
HETATM   22  C   UNL     1      43.003  -7.914  13.433  1.00  0.00     0.026 A 
HETATM   23  C   UNL     1      43.215  -8.148  12.071  1.00  0.00     0.031 A 
ENDBRANCH  14  17
ENDBRANCH  12  13
ENDBRANCH  11  12
ENDBRANCH   4  11
BRANCH   8  24
HETATM   24  C   UNL     1      40.909 -12.856   3.386  1.00  0.00    -0.044 A 
HETATM   25  C   UNL     1      41.792 -11.831   2.991  1.00  0.00     0.008 A 
HETATM   26  C   UNL     1      41.839 -11.397   1.666  1.00  0.00     0.001 A 
HETATM   27  C   UNL     1      40.998 -11.969   0.717  1.00  0.00     0.000 A 
HETATM   28  C   UNL     1      40.109 -12.975   1.092  1.00  0.00     0.001 A 
HETATM   29  C   UNL     1      40.061 -13.417   2.417  1.00  0.00     0.008 A 
ENDBRANCH   8  24
BRANCH   9  30
HETATM   30  C   UNL     1      41.918 -15.680   4.839  1.00  0.00     0.255 C 
HETATM   31  N   UNL     1      42.981 -16.092   4.063  1.00  0.00    -0.321 N 
HETATM   32  H   UNL     1      43.532 -15.412   3.566  1.00  0.00     0.169 HD
HETATM   33  O   UNL     1      40.938 -16.378   5.088  1.00  0.00    -0.268 OA
BRANCH  31  34
HETATM   34  C   UNL     1      43.247 -17.444   3.739  1.00  0.00     0.068 A 
HETATM   35  C   UNL     1      43.813 -18.360   4.649  1.00  0.00     0.095 A 
HETATM   36  C   UNL     1      44.001 -19.688   4.246  1.00  0.00     0.039 A 
HETATM   37  C   UNL     1      43.668 -20.091   2.949  1.00  0.00     0.003 A 
HETATM   38  C   UNL     1      43.172 -19.167   2.035  1.00  0.00     0.002 A 
HETATM   39  C   UNL     1      42.977 -17.842   2.423  1.00  0.00     0.032 A 
BRANCH  35  40
HETATM   40  O   UNL     1      44.254 -17.854   5.845  1.00  0.00    -0.354 OA
HETATM   41  C   UNL     1      43.499 -18.147   7.010  1.00  0.00     0.210 C 
ENDBRANCH  35  40
ENDBRANCH  31  34
ENDBRANCH   9  30
TORSDOF 8
ENDMDL
MODEL 2
REMARK VINA RESULT:      -9.3      4.455      7.624
REMARK  8 active torsions:
REMARK  status: ('A' for Active; 'I' for Inactive)
REMARK    1  A    between atoms: C_4  and  S_5 
REMARK    2  A    between atoms: S_5  and  C_6 
REMARK    3  A    between atoms: C_6  and  C_7 
REMARK       I    between atoms: C_7  and  N_8 
REMARK    4  A    between atoms: N_8  and  C_9 
REMARK    5  A    between atoms: C_20  and  C_21 
REMARK    6  A    between atoms: C_27  and  C_28 
REMARK       I    between atoms: C_28  and  N_29 
REMARK    7  A    between atoms: N_29  and  C_30 
REMARK    8  A    between atoms: C_31  and  O_32 
ROOT
HETATM    1  C   UNL     1      38.249 -10.585   1.652  1.00  0.00     0.069 C 
HETATM    2  C   UNL     1      39.622 -11.030   2.099  1.00  0.00     0.019 C 
HETATM    3  N   UNL     1      39.990 -10.635   3.375  1.00  0.00    -0.353 N 
HETATM    4  C   UNL     1      41.256 -10.757   3.910  1.00  0.00     0.087 C 
HETATM    5  C   UNL     1      42.184 -11.466   3.225  1.00  0.00     0.055 C 
HETATM    6  C   UNL     1      43.639 -11.510   3.664  1.00  0.00     0.019 C 
HETATM    7  N   UNL     1      44.846 -11.547   4.029  1.00  0.00    -0.096 N 
HETATM    8  C   UNL     1      41.785 -12.267   1.987  1.00  0.00     0.104 C 
HETATM    9  C   UNL     1      40.465 -11.804   1.368  1.00  0.00     0.046 C 
HETATM   10  H   UNL     1      39.341 -10.059   3.904  1.00  0.00     0.166 HD
ENDROOT
BRANCH   4  11
HETATM   11  S   UNL     1      41.567 -10.144   5.517  1.00  0.00    -0.102 SA
BRANCH  11  12
HETATM   12  C   UNL     1      40.388 -11.073   6.548  1.00  0.00     0.184 C 
BRANCH  12  13
HETATM   13  C   UNL     1      40.559 -12.594   6.423  1.00  0.00     0.231 C 
HETATM   14  N   UNL     1      41.861 -13.047   6.518  1.00  0.00    -0.327 N 
HETATM   15  H   UNL     1      42.555 -12.319   6.663  1.00  0.00     0.169 HD
HETATM   16  O   UNL     1      39.573 -13.299   6.218  1.00  0.00    -0.272 OA
BRANCH  14  17
HETATM   17  C   UNL     1      42.347 -14.366   6.482  1.00  0.00     0.034 A 
HETATM   18  C   UNL     1      43.645 -14.714   6.107  1.00  0.00     0.031 A 
HETATM   19  C   UNL     1      44.039 -16.057   6.085  1.00  0.00     0.026 A 
HETATM   20  C   UNL     1      43.137 -17.056   6.443  1.00  0.00     0.034 A 
HETATM   21 CL   UNL     1      43.623 -18.704   6.417  1.00  0.00    -0.084 Cl
HETATM   22  C   UNL     1      41.838 -16.724   6.820  1.00  0.00     0.026 A 
HETATM   23  C   UNL     1      41.446 -15.382   6.837  1.00  0.00     0.031 A 
ENDBRANCH  14  17
ENDBRANCH  12  13
ENDBRANCH  11  12
ENDBRANCH   4  11
BRANCH   8  24
HETATM   24  C   UNL     1      41.756 -13.755   2.376  1.00  0.00    -0.044 A 
HETATM   25  C   UNL     1      40.642 -14.319   3.030  1.00  0.00     0.008 A 
HETATM   26  C   UNL     1      40.647 -15.654   3.433  1.00  0.00     0.001 A 
HETATM   27  C   UNL     1      41.769 -16.445   3.203  1.00  0.00     0.000 A 
HETATM   28  C   UNL     1      42.884 -15.902   2.569  1.00  0.00     0.001 A 
HETATM   29  C   UNL     1      42.882 -14.566   2.159  1.00  0.00     0.008 A 
ENDBRANCH   8  24
BRANCH   9  30
HETATM   30  C   UNL     1      40.120 -12.162  -0.051  1.00  0.00     0.255 C 
HETATM   31  N   UNL     1      39.304 -13.262  -0.214  1.00  0.00    -0.321 N 
HETATM   32  H   UNL     1      39.225 -13.941   0.525  1.00  0.00     0.169 HD
HETATM   33  O   UNL     1      40.652 -11.557  -0.979  1.00  0.00    -0.268 OA
BRANCH  31  34
HETATM   34  C   UNL     1      38.710 -13.631  -1.444  1.00  0.00     0.068 A 
HETATM   35  C   UNL     1      37.709 -12.867  -2.078  1.00  0.00     0.095 A 
HETATM   36  C   UNL     1      37.210 -13.295  -3.315  1.00  0.00     0.039 A 
HETATM   37  C   UNL     1      37.669 -14.482  -3.894  1.00  0.00     0.003 A 
HETATM   38  C   UNL     1      38.609 -15.266  -3.232  1.00  0.00     0.002 A 
HETATM   39  C   UNL     1      39.116 -14.850  -2.001  1.00  0.00     0.032 A 
BRANCH  35  40
HETATM   40  O   UNL     1      37.202 -11.803  -1.376  1.00  0.00    -0.354 OA
HETATM   41  C   UNL     1      36.900 -10.617  -2.093  1.00  0.00     0.210 C 
ENDBRANCH  35  40
ENDBRANCH  31  34
ENDBRANCH   9  30
TORSDOF 8
ENDMDL
MODEL 3
REMARK VINA RESULT:      -9.3      4.230      5.858
REMARK  8 active torsions:
REMARK  status: ('A' for Active; 'I' for Inactive)
REMARK    1  A    between atoms: C_4  and  S_5 
REMARK    2  A    between atoms: S_5  and  C_6 
REMARK    3  A    between atoms: C_6  and  C_7 
REMARK       I    between atoms: C_7  and  N_8 
REMARK    4  A    between atoms: N_8  and  C_9 
REMARK    5  A    between atoms: C_20  and  C_21 
REMARK    6  A    between atoms: C_27  and  C_28 
REMARK       I    between atoms: C_28  and  N_29 
REMARK    7  A    between atoms: N_29  and  C_30 
REMARK    8  A    between atoms: C_31  and  O_32 
ROOT
HETATM    1  C   UNL     1      39.818 -16.166   1.070  1.00  0.00     0.069 C 
HETATM    2  C   UNL     1      40.306 -14.736   1.112  1.00  0.00     0.019 C 
HETATM    3  N   UNL     1      39.389 -13.782   0.701  1.00  0.00    -0.353 N 
HETATM    4  C   UNL     1      39.677 -12.452   0.470  1.00  0.00     0.087 C 
HETATM    5  C   UNL     1      40.895 -11.980   0.830  1.00  0.00     0.055 C 
HETATM    6  C   UNL     1      41.345 -10.575   0.464  1.00  0.00     0.019 C 
HETATM    7  N   UNL     1      41.719  -9.409   0.161  1.00  0.00    -0.096 N 
HETATM    8  C   UNL     1      41.852 -12.852   1.640  1.00  0.00     0.104 C 
HETATM    9  C   UNL     1      41.528 -14.345   1.556  1.00  0.00     0.046 C 
HETATM   10  H   UNL     1      38.480 -14.100   0.375  1.00  0.00     0.166 HD
ENDROOT
BRANCH   4  11
HETATM   11  S   UNL     1      38.414 -11.393  -0.113  1.00  0.00    -0.102 SA
BRANCH  11  12
HETATM   12  C   UNL     1      37.474 -11.003   1.397  1.00  0.00     0.184 C 
BRANCH  12  13
HETATM   13  C   UNL     1      38.026  -9.779   2.143  1.00  0.00     0.231 C 
HETATM   14  N   UNL     1      38.917 -10.065   3.160  1.00  0.00    -0.327 N 
HETATM   15  H   UNL     1      39.106 -11.054   3.294  1.00  0.00     0.169 HD
HETATM   16  O   UNL     1      37.636  -8.655   1.833  1.00  0.00    -0.272 OA
BRANCH  14  17
HETATM   17  C   UNL     1      39.620  -9.182   3.997  1.00  0.00     0.034 A 
HETATM   18  C   UNL     1      40.705  -8.406   3.585  1.00  0.00     0.031 A 
HETATM   19  C   UNL     1      41.357  -7.563   4.492  1.00  0.00     0.026 A 
HETATM   20  C   UNL     1      40.924  -7.490   5.814  1.00  0.00     0.034 A 
HETATM   21 CL   UNL     1      41.725  -6.453   6.926  1.00  0.00    -0.084 Cl
HETATM   22  C   UNL     1      39.843  -8.257   6.239  1.00  0.00     0.026 A 
HETATM   23  C   UNL     1      39.196  -9.102   5.332  1.00  0.00     0.031 A 
ENDBRANCH  14  17
ENDBRANCH  12  13
ENDBRANCH  11  12
ENDBRANCH   4  11
BRANCH   8  24
HETATM   24  C   UNL     1      41.850 -12.336   3.089  1.00  0.00    -0.044 A 
HETATM   25  C   UNL     1      42.846 -11.453   3.553  1.00  0.00     0.008 A 
HETATM   26  C   UNL     1      42.872 -11.037   4.884  1.00  0.00     0.001 A 
HETATM   27  C   UNL     1      41.913 -11.506   5.777  1.00  0.00     0.000 A 
HETATM   28  C   UNL     1      40.928 -12.389   5.339  1.00  0.00     0.001 A 
HETATM   29  C   UNL     1      40.895 -12.805   4.006  1.00  0.00     0.008 A 
ENDBRANCH   8  24
BRANCH   9  30
HETATM   30  C   UNL     1      42.564 -15.373   1.916  1.00  0.00     0.255 C 
HETATM   31  N   UNL     1      42.184 -16.307   2.857  1.00  0.00    -0.321 N 
HETATM   32  H   UNL     1      41.410 -16.113   3.472  1.00  0.00     0.169 HD
HETATM   33  O   UNL     1      43.704 -15.274   1.466  1.00  0.00    -0.268 OA
BRANCH  31  34
HETATM   34  C   UNL     1      42.937 -17.462   3.173  1.00  0.00     0.068 A 
HETATM   35  C   UNL     1      43.772 -17.553   4.306  1.00  0.00     0.095 A 
HETATM   36  C   UNL     1      44.448 -18.755   4.556  1.00  0.00     0.039 A 
HETATM   37  C   UNL     1      44.327 -19.834   3.676  1.00  0.00     0.003 A 
HETATM   38  C   UNL     1      43.553 -19.716   2.525  1.00  0.00     0.002 A 
HETATM   39  C   UNL     1      42.874 -18.527   2.265  1.00  0.00     0.032 A 
BRANCH  35  40
HETATM   40  O   UNL     1      43.960 -16.405   5.033  1.00  0.00    -0.354 OA
HETATM   41  C   UNL     1      44.291 -16.535   6.406  1.00  0.00     0.210 C 
ENDBRANCH  35  40
ENDBRANCH  31  34
ENDBRANCH   9  30
TORSDOF 8
ENDMDL
MODEL 4
REMARK VINA RESULT:      -9.0      1.417      2.005
REMARK  8 active torsions:
REMARK  status: ('A' for Active; 'I' for Inactive)
REMARK    1  A    between atoms: C_4  and  S_5 
REMARK    2  A    between atoms: S_5  and  C_6 
REMARK    3  A    between atoms: C_6  and  C_7 
REMARK       I    between atoms: C_7  and  N_8 
REMARK    4  A    between atoms: N_8  and  C_9 
REMARK    5  A    between atoms: C_20  and  C_21 
REMARK    6  A    between atoms: C_27  and  C_28 
REMARK       I    between atoms: C_28  and  N_29 
REMARK    7  A    between atoms: N_29  and  C_30 
REMARK    8  A    between atoms: C_31  and  O_32 
ROOT
HETATM    1  C   UNL     1      43.823 -13.630   6.805  1.00  0.00     0.069 C 
HETATM    2  C   UNL     1      42.609 -12.878   6.312  1.00  0.00     0.019 C 
HETATM    3  N   UNL     1      42.501 -11.568   6.750  1.00  0.00    -0.353 N 
HETATM    4  C   UNL     1      41.390 -10.765   6.590  1.00  0.00     0.087 C 
HETATM    5  C   UNL     1      40.381 -11.205   5.800  1.00  0.00     0.055 C 
HETATM    6  C   UNL     1      39.062 -10.457   5.702  1.00  0.00     0.019 C 
HETATM    7  N   UNL     1      37.966  -9.836   5.621  1.00  0.00    -0.096 N 
HETATM    8  C   UNL     1      40.553 -12.469   4.960  1.00  0.00     0.104 C 
HETATM    9  C   UNL     1      41.677 -13.378   5.460  1.00  0.00     0.046 C 
HETATM   10  H   UNL     1      43.213 -11.216   7.385  1.00  0.00     0.166 HD
ENDROOT
BRANCH   4  11
HETATM   11  S   UNL     1      41.396  -9.153   7.265  1.00  0.00    -0.102 SA
BRANCH  11  12
HETATM   12  C   UNL     1      42.580  -9.288   8.642  1.00  0.00     0.184 C 
BRANCH  12  13
HETATM   13  C   UNL     1      42.069  -8.629   9.932  1.00  0.00     0.231 C 
HETATM   14  N   UNL     1      42.618  -9.123  11.100  1.00  0.00    -0.327 N 
HETATM   15  H   UNL     1      43.300  -9.864  10.969  1.00  0.00     0.169 HD
HETATM   16  O   UNL     1      41.206  -7.756   9.865  1.00  0.00    -0.272 OA
BRANCH  14  17
HETATM   17  C   UNL     1      42.393  -8.716  12.427  1.00  0.00     0.034 A 
HETATM   18  C   UNL     1      41.380  -9.223  13.242  1.00  0.00     0.031 A 
HETATM   19  C   UNL     1      41.219  -8.748  14.549  1.00  0.00     0.026 A 
HETATM   20  C   UNL     1      42.075  -7.769  15.047  1.00  0.00     0.034 A 
HETATM   21 CL   UNL     1      41.877  -7.189  16.653  1.00  0.00    -0.084 Cl
HETATM   22  C   UNL     1      43.092  -7.255  14.246  1.00  0.00     0.026 A 
HETATM   23  C   UNL     1      43.247  -7.727  12.939  1.00  0.00     0.031 A 
ENDBRANCH  14  17
ENDBRANCH  12  13
ENDBRANCH  11  12
ENDBRANCH   4  11
BRANCH   8  24
HETATM   24  C   UNL     1      40.757 -12.040   3.497  1.00  0.00    -0.044 A 
HETATM   25  C   UNL     1      41.843 -11.226   3.118  1.00  0.00     0.008 A 
HETATM   26  C   UNL     1      41.988 -10.792   1.800  1.00  0.00     0.001 A 
HETATM   27  C   UNL     1      41.044 -11.152   0.842  1.00  0.00     0.000 A 
HETATM   28  C   UNL     1      39.958 -11.947   1.201  1.00  0.00     0.001 A 
HETATM   29  C   UNL     1      39.811 -12.388   2.519  1.00  0.00     0.008 A 
ENDBRANCH   8  24
BRANCH   9  30
HETATM   30  C   UNL     1      41.729 -14.824   5.050  1.00  0.00     0.255 C 
HETATM   31  N   UNL     1      42.641 -15.138   4.065  1.00  0.00    -0.321 N 
HETATM   32  H   UNL     1      42.995 -14.416   3.459  1.00  0.00     0.169 HD
HETATM   33  O   UNL     1      40.908 -15.617   5.506  1.00  0.00    -0.268 OA
BRANCH  31  34
HETATM   34  C   UNL     1      42.979 -16.461   3.693  1.00  0.00     0.068 A 
HETATM   35  C   UNL     1      42.395 -17.128   2.596  1.00  0.00     0.095 A 
HETATM   36  C   UNL     1      42.825 -18.424   2.284  1.00  0.00     0.039 A 
HETATM   37  C   UNL     1      43.789 -19.062   3.069  1.00  0.00     0.003 A 
HETATM   38  C   UNL     1      44.314 -18.424   4.189  1.00  0.00     0.002 A 
HETATM   39  C   UNL     1      43.897 -17.133   4.511  1.00  0.00     0.032 A 
BRANCH  35  40
HETATM   40  O   UNL     1      41.349 -16.498   1.972  1.00  0.00    -0.354 OA
HETATM   41  C   UNL     1      41.642 -15.375   1.155  1.00  0.00     0.210 C 
ENDBRANCH  35  40
ENDBRANCH  31  34
ENDBRANCH   9  30
TORSDOF 8
ENDMDL
MODEL 5
REMARK VINA RESULT:      -8.9      2.898      4.000
REMARK  8 active torsions:
REMARK  status: ('A' for Active; 'I' for Inactive)
REMARK    1  A    between atoms: C_4  and  S_5 
REMARK    2  A    between atoms: S_5  and  C_6 
REMARK    3  A    between atoms: C_6  and  C_7 
REMARK       I    between atoms: C_7  and  N_8 
REMARK    4  A    between atoms: N_8  and  C_9 
REMARK    5  A    between atoms: C_20  and  C_21 
REMARK    6  A    between atoms: C_27  and  C_28 
REMARK       I    between atoms: C_28  and  N_29 
REMARK    7  A    between atoms: N_29  and  C_30 
REMARK    8  A    between atoms: C_31  and  O_32 
ROOT
HETATM    1  C   UNL     1      43.919 -11.692   3.460  1.00  0.00     0.069 C 
HETATM    2  C   UNL     1      42.544 -11.790   2.843  1.00  0.00     0.019 C 
HETATM    3  N   UNL     1      41.790 -10.628   2.879  1.00  0.00    -0.353 N 
HETATM    4  C   UNL     1      40.451 -10.539   2.558  1.00  0.00     0.087 C 
HETATM    5  C   UNL     1      39.846 -11.614   1.997  1.00  0.00     0.055 C 
HETATM    6  C   UNL     1      38.345 -11.652   1.764  1.00  0.00     0.019 C 
HETATM    7  N   UNL     1      37.098 -11.684   1.571  1.00  0.00    -0.096 N 
HETATM    8  C   UNL     1      40.671 -12.823   1.560  1.00  0.00     0.104 C 
HETATM    9  C   UNL     1      42.041 -12.896   2.236  1.00  0.00     0.046 C 
HETATM   10  H   UNL     1      42.190  -9.813   3.337  1.00  0.00     0.166 HD
ENDROOT
BRANCH   4  11
HETATM   11  S   UNL     1      39.633  -9.004   2.724  1.00  0.00    -0.102 SA
BRANCH  11  12
HETATM   12  C   UNL     1      39.341  -8.885   4.518  1.00  0.00     0.184 C 
BRANCH  12  13
HETATM   13  C   UNL     1      40.638  -8.703   5.320  1.00  0.00     0.231 C 
HETATM   14  N   UNL     1      40.838  -9.628   6.327  1.00  0.00    -0.327 N 
HETATM   15  H   UNL     1      40.104 -10.325   6.417  1.00  0.00     0.169 HD
HETATM   16  O   UNL     1      41.384  -7.761   5.060  1.00  0.00    -0.272 OA
BRANCH  14  17
HETATM   17  C   UNL     1      41.927  -9.760   7.207  1.00  0.00     0.034 A 
HETATM   18  C   UNL     1      43.130 -10.388   6.879  1.00  0.00     0.031 A 
HETATM   19  C   UNL     1      44.157 -10.487   7.825  1.00  0.00     0.026 A 
HETATM   20  C   UNL     1      43.986  -9.955   9.100  1.00  0.00     0.034 A 
HETATM   21 CL   UNL     1      45.249 -10.076  10.260  1.00  0.00    -0.084 Cl
HETATM   22  C   UNL     1      42.792  -9.324   9.441  1.00  0.00     0.026 A 
HETATM   23  C   UNL     1      41.766  -9.231   8.497  1.00  0.00     0.031 A 
ENDBRANCH  14  17
ENDBRANCH  12  13
ENDBRANCH  11  12
ENDBRANCH   4  11
BRANCH   8  24
HETATM   24  C   UNL     1      40.778 -12.792   0.025  1.00  0.00    -0.044 A 
HETATM   25  C   UNL     1      41.286 -11.664  -0.649  1.00  0.00     0.008 A 
HETATM   26  C   UNL     1      41.325 -11.620  -2.043  1.00  0.00     0.001 A 
HETATM   27  C   UNL     1      40.845 -12.694  -2.786  1.00  0.00     0.000 A 
HETATM   28  C   UNL     1      40.328 -13.813  -2.136  1.00  0.00     0.001 A 
HETATM   29  C   UNL     1      40.292 -13.864  -0.740  1.00  0.00     0.008 A 
ENDBRANCH   8  24
BRANCH   9  30
HETATM   30  C   UNL     1      42.808 -14.189   2.269  1.00  0.00     0.255 C 
HETATM   31  N   UNL     1      42.447 -15.077   3.261  1.00  0.00    -0.321 N 
HETATM   32  H   UNL     1      41.951 -14.748   4.072  1.00  0.00     0.169 HD
HETATM   33  O   UNL     1      43.767 -14.349   1.518  1.00  0.00    -0.268 OA
BRANCH  31  34
HETATM   34  C   UNL     1      42.906 -16.414   3.330  1.00  0.00     0.068 A 
HETATM   35  C   UNL     1      43.636 -16.925   4.422  1.00  0.00     0.095 A 
HETATM   36  C   UNL     1      44.012 -18.275   4.415  1.00  0.00     0.039 A 
HETATM   37  C   UNL     1      43.702 -19.093   3.325  1.00  0.00     0.003 A 
HETATM   38  C   UNL     1      43.038 -18.567   2.221  1.00  0.00     0.002 A 
HETATM   39  C   UNL     1      42.656 -17.226   2.215  1.00  0.00     0.032 A 
BRANCH  35  40
HETATM   40  O   UNL     1      44.035 -16.025   5.377  1.00  0.00    -0.354 OA
HETATM   41  C   UNL     1      44.437 -16.530   6.640  1.00  0.00     0.210 C 
ENDBRANCH  35  40
ENDBRANCH  31  34
ENDBRANCH   9  30
TORSDOF 8
ENDMDL
MODEL 6
REMARK VINA RESULT:      -8.9      5.913      8.076
REMARK  8 active torsions:
REMARK  status: ('A' for Active; 'I' for Inactive)
REMARK    1  A    between atoms: C_4  and  S_5 
REMARK    2  A    between atoms: S_5  and  C_6 
REMARK    3  A    between atoms: C_6  and  C_7 
REMARK       I    between atoms: C_7  and  N_8 
REMARK    4  A    between atoms: N_8  and  C_9 
REMARK    5  A    between atoms: C_20  and  C_21 
REMARK    6  A    between atoms: C_27  and  C_28 
REMARK       I    between atoms: C_28  and  N_29 
REMARK    7  A    between atoms: N_29  and  C_30 
REMARK    8  A    between atoms: C_31  and  O_32 
ROOT
HETATM    1  C   UNL     1      43.639 -11.575   3.626  1.00  0.00     0.069 C 
HETATM    2  C   UNL     1      42.295 -11.713   2.948  1.00  0.00     0.019 C 
HETATM    3  N   UNL     1      41.498 -10.580   2.972  1.00  0.00    -0.353 N 
HETATM    4  C   UNL     1      40.171 -10.535   2.594  1.00  0.00     0.087 C 
HETATM    5  C   UNL     1      39.631 -11.621   1.990  1.00  0.00     0.055 C 
HETATM    6  C   UNL     1      38.143 -11.710   1.692  1.00  0.00     0.019 C 
HETATM    7  N   UNL     1      36.909 -11.785   1.445  1.00  0.00    -0.096 N 
HETATM    8  C   UNL     1      40.518 -12.790   1.569  1.00  0.00     0.104 C 
HETATM    9  C   UNL     1      41.861 -12.825   2.302  1.00  0.00     0.046 C 
HETATM   10  H   UNL     1      41.846  -9.759   3.459  1.00  0.00     0.166 HD
ENDROOT
BRANCH   4  11
HETATM   11  S   UNL     1      39.289  -9.034   2.750  1.00  0.00    -0.102 SA
BRANCH  11  12
HETATM   12  C   UNL     1      40.592  -7.772   2.596  1.00  0.00     0.184 C 
BRANCH  12  13
HETATM   13  C   UNL     1      40.706  -7.204   1.174  1.00  0.00     0.231 C 
HETATM   14  N   UNL     1      41.618  -7.846   0.358  1.00  0.00    -0.327 N 
HETATM   15  H   UNL     1      42.106  -8.623   0.794  1.00  0.00     0.169 HD
HETATM   16  O   UNL     1      40.033  -6.225   0.858  1.00  0.00    -0.272 OA
BRANCH  14  17
HETATM   17  C   UNL     1      41.930  -7.598  -0.991  1.00  0.00     0.034 A 
HETATM   18  C   UNL     1      41.120  -7.973  -2.064  1.00  0.00     0.031 A 
HETATM   19  C   UNL     1      41.517  -7.700  -3.379  1.00  0.00     0.026 A 
HETATM   20  C   UNL     1      42.722  -7.046  -3.622  1.00  0.00     0.034 A 
HETATM   21 CL   UNL     1      43.207  -6.710  -5.237  1.00  0.00    -0.084 Cl
HETATM   22  C   UNL     1      43.539  -6.665  -2.561  1.00  0.00     0.026 A 
HETATM   23  C   UNL     1      43.143  -6.943  -1.250  1.00  0.00     0.031 A 
ENDBRANCH  14  17
ENDBRANCH  12  13
ENDBRANCH  11  12
ENDBRANCH   4  11
BRANCH   8  24
HETATM   24  C   UNL     1      40.690 -12.728   0.042  1.00  0.00    -0.044 A 
HETATM   25  C   UNL     1      41.228 -11.588  -0.588  1.00  0.00     0.008 A 
HETATM   26  C   UNL     1      41.325 -11.515  -1.978  1.00  0.00     0.001 A 
HETATM   27  C   UNL     1      40.874 -12.572  -2.762  1.00  0.00     0.000 A 
HETATM   28  C   UNL     1      40.327 -13.702  -2.158  1.00  0.00     0.001 A 
HETATM   29  C   UNL     1      40.233 -13.782  -0.766  1.00  0.00     0.008 A 
ENDBRANCH   8  24
BRANCH   9  30
HETATM   30  C   UNL     1      42.674 -14.089   2.348  1.00  0.00     0.255 C 
HETATM   31  N   UNL     1      42.295 -15.015   3.297  1.00  0.00    -0.321 N 
HETATM   32  H   UNL     1      41.744 -14.724   4.089  1.00  0.00     0.169 HD
HETATM   33  O   UNL     1      43.677 -14.195   1.646  1.00  0.00    -0.268 OA
BRANCH  31  34
HETATM   34  C   UNL     1      42.800 -16.335   3.360  1.00  0.00     0.068 A 
HETATM   35  C   UNL     1      43.567 -16.819   4.441  1.00  0.00     0.095 A 
HETATM   36  C   UNL     1      43.988 -18.154   4.429  1.00  0.00     0.039 A 
HETATM   37  C   UNL     1      43.687 -18.985   3.346  1.00  0.00     0.003 A 
HETATM   38  C   UNL     1      42.987 -18.484   2.253  1.00  0.00     0.002 A 
HETATM   39  C   UNL     1      42.559 -17.157   2.252  1.00  0.00     0.032 A 
BRANCH  35  40
HETATM   40  O   UNL     1      43.951 -15.903   5.387  1.00  0.00    -0.354 OA
HETATM   41  C   UNL     1      44.552 -16.389   6.576  1.00  0.00     0.210 C 
ENDBRANCH  35  40
ENDBRANCH  31  34
ENDBRANCH   9  30
TORSDOF 8
ENDMDL
MODEL 7
REMARK VINA RESULT:      -8.8      5.654      9.592
REMARK  8 active torsions:
REMARK  status: ('A' for Active; 'I' for Inactive)
REMARK    1  A    between atoms: C_4  and  S_5 
REMARK    2  A    between atoms: S_5  and  C_6 
REMARK    3  A    between atoms: C_6  and  C_7 
REMARK       I    between atoms: C_7  and  N_8 
REMARK    4  A    between atoms: N_8  and  C_9 
REMARK    5  A    between atoms: C_20  and  C_21 
REMARK    6  A    between atoms: C_27  and  C_28 
REMARK       I    between atoms: C_28  and  N_29 
REMARK    7  A    between atoms: N_29  and  C_30 
REMARK    8  A    between atoms: C_31  and  O_32 
ROOT
HETATM    1  C   UNL     1      39.841 -16.058   0.948  1.00  0.00     0.069 C 
HETATM    2  C   UNL     1      40.329 -14.628   0.982  1.00  0.00     0.019 C 
HETATM    3  N   UNL     1      39.430 -13.681   0.518  1.00  0.00    -0.353 N 
HETATM    4  C   UNL     1      39.727 -12.355   0.275  1.00  0.00     0.087 C 
HETATM    5  C   UNL     1      40.930 -11.877   0.674  1.00  0.00     0.055 C 
HETATM    6  C   UNL     1      41.396 -10.479   0.300  1.00  0.00     0.019 C 
HETATM    7  N   UNL     1      41.782  -9.319  -0.009  1.00  0.00    -0.096 N 
HETATM    8  C   UNL     1      41.854 -12.734   1.536  1.00  0.00     0.104 C 
HETATM    9  C   UNL     1      41.533 -14.228   1.467  1.00  0.00     0.046 C 
HETATM   10  H   UNL     1      38.534 -14.005   0.163  1.00  0.00     0.166 HD
ENDROOT
BRANCH   4  11
HETATM   11  S   UNL     1      38.489 -11.308  -0.377  1.00  0.00    -0.102 SA
BRANCH  11  12
HETATM   12  C   UNL     1      38.537 -11.673  -2.160  1.00  0.00     0.184 C 
BRANCH  12  13
HETATM   13  C   UNL     1      39.721 -11.003  -2.873  1.00  0.00     0.231 C 
HETATM   14  N   UNL     1      39.512  -9.689  -3.248  1.00  0.00    -0.327 N 
HETATM   15  H   UNL     1      38.599  -9.318  -3.004  1.00  0.00     0.169 HD
HETATM   16  O   UNL     1      40.740 -11.654  -3.096  1.00  0.00    -0.272 OA
BRANCH  14  17
HETATM   17  C   UNL     1      40.397  -8.795  -3.876  1.00  0.00     0.034 A 
HETATM   18  C   UNL     1      41.570  -8.312  -3.294  1.00  0.00     0.031 A 
HETATM   19  C   UNL     1      42.385  -7.410  -3.988  1.00  0.00     0.026 A 
HETATM   20  C   UNL     1      42.032  -6.993  -5.268  1.00  0.00     0.034 A 
HETATM   21 CL   UNL     1      43.035  -5.886  -6.120  1.00  0.00    -0.084 Cl
HETATM   22  C   UNL     1      40.865  -7.467  -5.863  1.00  0.00     0.026 A 
HETATM   23  C   UNL     1      40.050  -8.364  -5.166  1.00  0.00     0.031 A 
ENDBRANCH  14  17
ENDBRANCH  12  13
ENDBRANCH  11  12
ENDBRANCH   4  11
BRANCH   8  24
HETATM   24  C   UNL     1      41.795 -12.192   2.975  1.00  0.00    -0.044 A 
HETATM   25  C   UNL     1      40.652 -12.374   3.779  1.00  0.00     0.008 A 
HETATM   26  C   UNL     1      40.583 -11.827   5.061  1.00  0.00     0.001 A 
HETATM   27  C   UNL     1      41.647 -11.079   5.555  1.00  0.00     0.000 A 
HETATM   28  C   UNL     1      42.780 -10.878   4.770  1.00  0.00     0.001 A 
HETATM   29  C   UNL     1      42.856 -11.427   3.487  1.00  0.00     0.008 A 
ENDBRANCH   8  24
BRANCH   9  30
HETATM   30  C   UNL     1      42.553 -15.249   1.887  1.00  0.00     0.255 C 
HETATM   31  N   UNL     1      42.147 -16.144   2.855  1.00  0.00    -0.321 N 
HETATM   32  H   UNL     1      41.363 -15.921   3.446  1.00  0.00     0.169 HD
HETATM   33  O   UNL     1      43.702 -15.176   1.456  1.00  0.00    -0.268 OA
BRANCH  31  34
HETATM   34  C   UNL     1      42.884 -17.291   3.230  1.00  0.00     0.068 A 
HETATM   35  C   UNL     1      43.652 -17.365   4.411  1.00  0.00     0.095 A 
HETATM   36  C   UNL     1      44.315 -18.560   4.715  1.00  0.00     0.039 A 
HETATM   37  C   UNL     1      44.250 -19.651   3.844  1.00  0.00     0.003 A 
HETATM   38  C   UNL     1      43.545 -19.551   2.648  1.00  0.00     0.002 A 
HETATM   39  C   UNL     1      42.878 -18.368   2.333  1.00  0.00     0.032 A 
BRANCH  35  40
HETATM   40  O   UNL     1      43.792 -16.206   5.132  1.00  0.00    -0.354 OA
HETATM   41  C   UNL     1      44.376 -16.294   6.422  1.00  0.00     0.210 C 
ENDBRANCH  35  40
ENDBRANCH  31  34
ENDBRANCH   9  30
TORSDOF 8
ENDMDL
MODEL 8
REMARK VINA RESULT:      -8.8      3.256      5.897
REMARK  8 active torsions:
REMARK  status: ('A' for Active; 'I' for Inactive)
REMARK    1  A    between atoms: C_4  and  S_5 
REMARK    2  A    between atoms: S_5  and  C_6 
REMARK    3  A    between atoms: C_6  and  C_7 
REMARK       I    between atoms: C_7  and  N_8 
REMARK    4  A    between atoms: N_8  and  C_9 
REMARK    5  A    between atoms: C_20  and  C_21 
REMARK    6  A    between atoms: C_27  and  C_28 
REMARK       I    between atoms: C_28  and  N_29 
REMARK    7  A    between atoms: N_29  and  C_30 
REMARK    8  A    between atoms: C_31  and  O_32 
ROOT
HETATM    1  C   UNL     1      38.508 -10.804   2.450  1.00  0.00     0.069 C 
HETATM    2  C   UNL     1      39.928 -11.191   2.789  1.00  0.00     0.019 C 
HETATM    3  N   UNL     1      40.333 -10.896   4.081  1.00  0.00    -0.353 N 
HETATM    4  C   UNL     1      41.631 -10.977   4.545  1.00  0.00     0.087 C 
HETATM    5  C   UNL     1      42.568 -11.549   3.752  1.00  0.00     0.055 C 
HETATM    6  C   UNL     1      44.043 -11.530   4.120  1.00  0.00     0.019 C 
HETATM    7  N   UNL     1      45.267 -11.515   4.426  1.00  0.00    -0.096 N 
HETATM    8  C   UNL     1      42.161 -12.253   2.459  1.00  0.00     0.104 C 
HETATM    9  C   UNL     1      40.783 -11.828   1.948  1.00  0.00     0.046 C 
HETATM   10  H   UNL     1      39.675 -10.421   4.692  1.00  0.00     0.166 HD
ENDROOT
BRANCH   4  11
HETATM   11  S   UNL     1      41.981 -10.501   6.190  1.00  0.00    -0.102 SA
BRANCH  11  12
HETATM   12  C   UNL     1      40.331 -10.164   6.882  1.00  0.00     0.184 C 
BRANCH  12  13
HETATM   13  C   UNL     1      40.390  -9.560   8.293  1.00  0.00     0.231 C 
HETATM   14  N   UNL     1      41.662  -9.374   8.797  1.00  0.00    -0.327 N 
HETATM   15  H   UNL     1      42.413  -9.655   8.174  1.00  0.00     0.169 HD
HETATM   16  O   UNL     1      39.344  -9.317   8.891  1.00  0.00    -0.272 OA
BRANCH  14  17
HETATM   17  C   UNL     1      42.056  -8.817  10.027  1.00  0.00     0.034 A 
HETATM   18  C   UNL     1      41.953  -7.461  10.343  1.00  0.00     0.031 A 
HETATM   19  C   UNL     1      42.385  -6.990  11.589  1.00  0.00     0.026 A 
HETATM   20  C   UNL     1      42.917  -7.874  12.523  1.00  0.00     0.034 A 
HETATM   21 CL   UNL     1      43.445  -7.295  14.053  1.00  0.00    -0.084 Cl
HETATM   22  C   UNL     1      43.024  -9.230  12.223  1.00  0.00     0.026 A 
HETATM   23  C   UNL     1      42.597  -9.697  10.977  1.00  0.00     0.031 A 
ENDBRANCH  14  17
ENDBRANCH  12  13
ENDBRANCH  11  12
ENDBRANCH   4  11
BRANCH   8  24
HETATM   24  C   UNL     1      42.251 -13.770   2.699  1.00  0.00    -0.044 A 
HETATM   25  C   UNL     1      43.218 -14.558   2.042  1.00  0.00     0.008 A 
HETATM   26  C   UNL     1      43.255 -15.941   2.218  1.00  0.00     0.001 A 
HETATM   27  C   UNL     1      42.320 -16.562   3.041  1.00  0.00     0.000 A 
HETATM   28  C   UNL     1      41.350 -15.801   3.689  1.00  0.00     0.001 A 
HETATM   29  C   UNL     1      41.311 -14.414   3.520  1.00  0.00     0.008 A 
ENDBRANCH   8  24
BRANCH   9  30
HETATM   30  C   UNL     1      40.391 -12.072   0.517  1.00  0.00     0.255 C 
HETATM   31  N   UNL     1      39.577 -13.162   0.292  1.00  0.00    -0.321 N 
HETATM   32  H   UNL     1      39.527 -13.900   0.976  1.00  0.00     0.169 HD
HETATM   33  O   UNL     1      40.887 -11.388  -0.376  1.00  0.00    -0.268 OA
BRANCH  31  34
HETATM   34  C   UNL     1      38.942 -13.434  -0.943  1.00  0.00     0.068 A 
HETATM   35  C   UNL     1      37.889 -12.651  -1.459  1.00  0.00     0.095 A 
HETATM   36  C   UNL     1      37.351 -12.978  -2.711  1.00  0.00     0.039 A 
HETATM   37  C   UNL     1      37.825 -14.085  -3.420  1.00  0.00     0.003 A 
HETATM   38  C   UNL     1      38.820 -14.892  -2.876  1.00  0.00     0.002 A 
HETATM   39  C   UNL     1      39.365 -14.578  -1.632  1.00  0.00     0.032 A 
BRANCH  35  40
HETATM   40  O   UNL     1      37.377 -11.680  -0.636  1.00  0.00    -0.354 OA
HETATM   41  C   UNL     1      37.331 -10.350  -1.127  1.00  0.00     0.210 C 
ENDBRANCH  35  40
ENDBRANCH  31  34
ENDBRANCH   9  30
TORSDOF 8
ENDMDL
MODEL 9
REMARK VINA RESULT:      -8.7      3.672      9.176
REMARK  8 active torsions:
REMARK  status: ('A' for Active; 'I' for Inactive)
REMARK    1  A    between atoms: C_4  and  S_5 
REMARK    2  A    between atoms: S_5  and  C_6 
REMARK    3  A    between atoms: C_6  and  C_7 
REMARK       I    between atoms: C_7  and  N_8 
REMARK    4  A    between atoms: N_8  and  C_9 
REMARK    5  A    between atoms: C_20  and  C_21 
REMARK    6  A    between atoms: C_27  and  C_28 
REMARK       I    between atoms: C_28  and  N_29 
REMARK    7  A    between atoms: N_29  and  C_30 
REMARK    8  A    between atoms: C_31  and  O_32 
ROOT
HETATM    1  C   UNL     1      42.189 -13.785   6.375  1.00  0.00     0.069 C 
HETATM    2  C   UNL     1      41.989 -12.791   5.255  1.00  0.00     0.019 C 
HETATM    3  N   UNL     1      41.257 -13.252   4.173  1.00  0.00    -0.353 N 
HETATM    4  C   UNL     1      41.120 -12.594   2.967  1.00  0.00     0.087 C 
HETATM    5  C   UNL     1      41.580 -11.324   2.866  1.00  0.00     0.055 C 
HETATM    6  C   UNL     1      41.613 -10.591   1.535  1.00  0.00     0.019 C 
HETATM    7  N   UNL     1      41.641  -9.984   0.430  1.00  0.00    -0.096 N 
HETATM    8  C   UNL     1      42.065 -10.577   4.107  1.00  0.00     0.104 C 
HETATM    9  C   UNL     1      42.429 -11.506   5.267  1.00  0.00     0.046 C 
HETATM   10  H   UNL     1      40.936 -14.216   4.188  1.00  0.00     0.166 HD
ENDROOT
BRANCH   4  11
HETATM   11  S   UNL     1      40.213 -13.351   1.679  1.00  0.00    -0.102 SA
BRANCH  11  12
HETATM   12  C   UNL     1      41.364 -14.616   1.054  1.00  0.00     0.184 C 
BRANCH  12  13
HETATM   13  C   UNL     1      41.511 -15.810   2.008  1.00  0.00     0.231 C 
HETATM   14  N   UNL     1      42.706 -16.497   1.908  1.00  0.00    -0.327 N 
HETATM   15  H   UNL     1      43.351 -16.129   1.215  1.00  0.00     0.169 HD
HETATM   16  O   UNL     1      40.581 -16.104   2.757  1.00  0.00    -0.272 OA
BRANCH  14  17
HETATM   17  C   UNL     1      43.161 -17.599   2.653  1.00  0.00     0.034 A 
HETATM   18  C   UNL     1      43.202 -18.908   2.172  1.00  0.00     0.031 A 
HETATM   19  C   UNL     1      43.657 -19.949   2.992  1.00  0.00     0.026 A 
HETATM   20  C   UNL     1      44.076 -19.682   4.292  1.00  0.00     0.034 A 
HETATM   21 CL   UNL     1      44.636 -20.960   5.296  1.00  0.00    -0.084 Cl
HETATM   22  C   UNL     1      44.042 -18.380   4.785  1.00  0.00     0.026 A 
HETATM   23  C   UNL     1      43.583 -17.343   3.967  1.00  0.00     0.031 A 
ENDBRANCH  14  17
ENDBRANCH  12  13
ENDBRANCH  11  12
ENDBRANCH   4  11
BRANCH   8  24
HETATM   24  C   UNL     1      40.984  -9.555   4.497  1.00  0.00    -0.044 A 
HETATM   25  C   UNL     1      41.244  -8.170   4.472  1.00  0.00     0.008 A 
HETATM   26  C   UNL     1      40.279  -7.252   4.884  1.00  0.00     0.001 A 
HETATM   27  C   UNL     1      39.043  -7.700   5.341  1.00  0.00     0.000 A 
HETATM   28  C   UNL     1      38.773  -9.066   5.384  1.00  0.00     0.001 A 
HETATM   29  C   UNL     1      39.735  -9.990   4.968  1.00  0.00     0.008 A 
ENDBRANCH   8  24
BRANCH   9  30
HETATM   30  C   UNL     1      43.303 -11.020   6.390  1.00  0.00     0.255 C 
HETATM   31  N   UNL     1      42.651 -10.403   7.437  1.00  0.00    -0.321 N 
HETATM   32  H   UNL     1      41.726 -10.029   7.301  1.00  0.00     0.169 HD
HETATM   33  O   UNL     1      44.526 -11.081   6.282  1.00  0.00    -0.268 OA
BRANCH  31  34
HETATM   34  C   UNL     1      43.268 -10.064   8.664  1.00  0.00     0.068 A 
HETATM   35  C   UNL     1      42.577  -9.469   9.739  1.00  0.00     0.095 A 
HETATM   36  C   UNL     1      43.268  -9.207  10.929  1.00  0.00     0.039 A 
HETATM   37  C   UNL     1      44.632  -9.495  11.036  1.00  0.00     0.003 A 
HETATM   38  C   UNL     1      45.324 -10.022   9.950  1.00  0.00     0.002 A 
HETATM   39  C   UNL     1      44.648 -10.290   8.761  1.00  0.00     0.032 A 
BRANCH  35  40
HETATM   40  O   UNL     1      41.284  -9.075   9.503  1.00  0.00    -0.354 OA
HETATM   41  C   UNL     1      40.889  -7.788   9.951  1.00  0.00     0.210 C 
ENDBRANCH  35  40
ENDBRANCH  31  34
ENDBRANCH   9  30
TORSDOF 8
ENDMDL
MODEL 10
REMARK VINA RESULT:      -8.4     17.963     19.973
REMARK  8 active torsions:
REMARK  status: ('A' for Active; 'I' for Inactive)
REMARK    1  A    between atoms: C_4  and  S_5 
REMARK    2  A    between atoms: S_5  and  C_6 
REMARK    3  A    between atoms: C_6  and  C_7 
REMARK       I    between atoms: C_7  and  N_8 
REMARK    4  A    between atoms: N_8  and  C_9 
REMARK    5  A    between atoms: C_20  and  C_21 
REMARK    6  A    between atoms: C_27  and  C_28 
REMARK       I    between atoms: C_28  and  N_29 
REMARK    7  A    between atoms: N_29  and  C_30 
REMARK    8  A    between atoms: C_31  and  O_32 
ROOT
HETATM    1  C   UNL     1      46.937 -27.917   0.240  1.00  0.00     0.069 C 
HETATM    2  C   UNL     1      46.074 -29.098  -0.140  1.00  0.00     0.019 C 
HETATM    3  N   UNL     1      44.832 -29.149   0.471  1.00  0.00    -0.353 N 
HETATM    4  C   UNL     1      43.968 -30.225   0.427  1.00  0.00     0.087 C 
HETATM    5  C   UNL     1      44.254 -31.252  -0.408  1.00  0.00     0.055 C 
HETATM    6  C   UNL     1      43.445 -32.538  -0.396  1.00  0.00     0.019 C 
HETATM    7  N   UNL     1      42.773 -33.606  -0.385  1.00  0.00    -0.096 N 
HETATM    8  C   UNL     1      45.400 -31.135  -1.411  1.00  0.00     0.104 C 
HETATM    9  C   UNL     1      46.415 -30.051  -1.046  1.00  0.00     0.046 C 
HETATM   10  H   UNL     1      44.599 -28.423   1.143  1.00  0.00     0.166 HD
ENDROOT
BRANCH   4  11
HETATM   11  S   UNL     1      42.463 -30.149   1.313  1.00  0.00    -0.102 SA
BRANCH  11  12
HETATM   12  C   UNL     1      43.003 -30.232   3.050  1.00  0.00     0.184 C 
BRANCH  12  13
HETATM   13  C   UNL     1      44.396 -30.859   3.210  1.00  0.00     0.231 C 
HETATM   14  N   UNL     1      45.381 -29.994   3.648  1.00  0.00    -0.327 N 
HETATM   15  H   UNL     1      45.067 -29.042   3.816  1.00  0.00     0.169 HD
HETATM   16  O   UNL     1      44.565 -32.041   2.918  1.00  0.00    -0.272 OA
BRANCH  14  17
HETATM   17  C   UNL     1      46.734 -30.257   3.927  1.00  0.00     0.034 A 
HETATM   18  C   UNL     1      47.183 -31.358   4.658  1.00  0.00     0.031 A 
HETATM   19  C   UNL     1      48.551 -31.535   4.902  1.00  0.00     0.026 A 
HETATM   20  C   UNL     1      49.472 -30.613   4.412  1.00  0.00     0.034 A 
HETATM   21 CL   UNL     1      51.151 -30.832   4.711  1.00  0.00    -0.084 Cl
HETATM   22  C   UNL     1      49.038 -29.511   3.680  1.00  0.00     0.026 A 
HETATM   23  C   UNL     1      47.672 -29.334   3.441  1.00  0.00     0.031 A 
ENDBRANCH  14  17
ENDBRANCH  12  13
ENDBRANCH  11  12
ENDBRANCH   4  11
BRANCH   8  24
HETATM   24  C   UNL     1      44.788 -30.914  -2.805  1.00  0.00    -0.044 A 
HETATM   25  C   UNL     1      44.795 -31.934  -3.777  1.00  0.00     0.008 A 
HETATM   26  C   UNL     1      44.292 -31.707  -5.059  1.00  0.00     0.001 A 
HETATM   27  C   UNL     1      43.786 -30.455  -5.395  1.00  0.00     0.000 A 
HETATM   28  C   UNL     1      43.783 -29.430  -4.450  1.00  0.00     0.001 A 
HETATM   29  C   UNL     1      44.281 -29.654  -3.164  1.00  0.00     0.008 A 
ENDBRANCH   8  24
BRANCH   9  30
HETATM   30  C   UNL     1      47.793 -30.061  -1.646  1.00  0.00     0.255 C 
HETATM   31  N   UNL     1      48.585 -31.143  -1.320  1.00  0.00    -0.321 N 
HETATM   32  H   UNL     1      48.371 -31.691  -0.503  1.00  0.00     0.169 HD
HETATM   33  O   UNL     1      48.189 -29.087  -2.283  1.00  0.00    -0.268 OA
BRANCH  31  34
HETATM   34  C   UNL     1      49.823 -31.432  -1.940  1.00  0.00     0.068 A 
HETATM   35  C   UNL     1      51.065 -31.011  -1.422  1.00  0.00     0.095 A 
HETATM   36  C   UNL     1      52.239 -31.383  -2.089  1.00  0.00     0.039 A 
HETATM   37  C   UNL     1      52.181 -32.126  -3.270  1.00  0.00     0.003 A 
HETATM   38  C   UNL     1      50.950 -32.483  -3.813  1.00  0.00     0.002 A 
HETATM   39  C   UNL     1      49.773 -32.122  -3.159  1.00  0.00     0.032 A 
BRANCH  35  40
HETATM   40  O   UNL     1      51.031 -30.157  -0.349  1.00  0.00    -0.354 OA
HETATM   41  C   UNL     1      51.074 -30.722   0.951  1.00  0.00     0.210 C 
ENDBRANCH  35  40
ENDBRANCH  31  34
ENDBRANCH   9  30
TORSDOF 8
ENDMDL
