MODEL 1
REMARK VINA RESULT:      -8.8      0.000      0.000
REMARK  8 active torsions:
REMARK  status: ('A' for Active; 'I' for Inactive)
REMARK    1  A    between atoms: C_7  and  C_8 
REMARK    2  A    between atoms: C_9  and  O_10 
REMARK    3  A    between atoms: C_12  and  N_13 
REMARK    4  A    between atoms: C_14  and  N_15 
REMARK       I    between atoms: N_15  and  C_16 
REMARK    5  A    between atoms: C_16  and  C_17 
REMARK    6  A    between atoms: C_19  and  O_20 
REMARK    7  A    between atoms: O_20  and  C_21 
REMARK    8  A    between atoms: C_21  and  C_22 
ROOT
HETATM    1  C   UNL     1      41.266 -13.848   2.410  1.00  0.00     0.050 A 
HETATM    2  C   UNL     1      39.873 -13.714   2.321  1.00  0.00     0.082 A 
HETATM    3  C   UNL     1      39.278 -12.469   2.121  1.00  0.00     0.067 A 
HETATM    4  C   UNL     1      40.069 -11.330   1.944  1.00  0.00     0.036 A 
HETATM    5  C   UNL     1      41.457 -11.445   2.035  1.00  0.00     0.030 A 
HETATM    6  C   UNL     1      42.050 -12.694   2.272  1.00  0.00     0.021 A 
ENDROOT
BRANCH   4   7
HETATM    7  N   UNL     1      39.401 -10.106   1.751  1.00  0.00    -0.337 N 
HETATM    8  C   UNL     1      38.848  -9.261   2.647  1.00  0.00     0.157 C 
HETATM    9  S   UNL     1      37.493  -8.381   2.203  1.00  0.00    -0.047 SA
HETATM   10  H   UNL     1      39.137  -9.920   0.789  1.00  0.00     0.168 HD
BRANCH   8  11
HETATM   11  N   UNL     1      39.390  -9.004   3.868  1.00  0.00    -0.201 NA
HETATM   12  C   UNL     1      39.109  -9.781   4.988  1.00  0.00     0.237 C 
HETATM   13  O   UNL     1      38.011  -9.923   5.511  1.00  0.00    -0.274 OA
HETATM   14  H   UNL     1      40.377  -8.854   3.715  1.00  0.00     0.139 HD
BRANCH  12  15
HETATM   15  C   UNL     1      40.274 -10.463   5.618  1.00  0.00     0.029 A 
HETATM   16  C   UNL     1      41.307  -9.769   6.267  1.00  0.00     0.053 A 
HETATM   17  C   UNL     1      42.404 -10.474   6.770  1.00  0.00     0.069 A 
HETATM   18  C   UNL     1      42.443 -11.866   6.658  1.00  0.00     0.037 A 
HETATM   19  C   UNL     1      41.404 -12.563   6.043  1.00  0.00     0.004 A 
HETATM   20  C   UNL     1      40.320 -11.861   5.522  1.00  0.00     0.017 A 
BRANCH  17  21
HETATM   21  O   UNL     1      43.494  -9.931   7.389  1.00  0.00    -0.351 OA
BRANCH  21  22
HETATM   22  C   UNL     1      44.234 -10.759   8.285  1.00  0.00     0.179 C 
BRANCH  22  23
HETATM   23  C   UNL     1      45.730 -10.691   7.933  1.00  0.00     0.002 C 
HETATM   24  C   UNL     1      46.005 -11.247   6.536  1.00  0.00     0.011 C 
HETATM   25  C   UNL     1      46.254  -9.257   8.037  1.00  0.00     0.011 C 
ENDBRANCH  22  23
ENDBRANCH  21  22
ENDBRANCH  17  21
ENDBRANCH  12  15
ENDBRANCH   8  11
ENDBRANCH   4   7
BRANCH   2  26
HETATM   26  O   UNL     1      39.015 -14.781   2.422  1.00  0.00    -0.360 OA
HETATM   27  H   UNL     1      38.106 -14.463   2.234  1.00  0.00     0.217 HD
ENDBRANCH   2  26
BRANCH   1  28
HETATM   28  C   UNL     1      41.871 -15.157   2.617  1.00  0.00     0.183 A 
HETATM   29  O   UNL     1      42.652 -15.323   3.731  1.00  0.00    -0.288 OA
HETATM   30  C   UNL     1      43.057 -16.626   3.659  1.00  0.00     0.112 A 
HETATM   31  C   UNL     1      42.513 -17.171   2.507  1.00  0.00     0.094 A 
HETATM   32  C   UNL     1      43.874 -17.309   4.559  1.00  0.00    -0.025 A 
HETATM   33  C   UNL     1      42.814 -18.496   2.170  1.00  0.00     0.041 A 
HETATM   34  N   UNL     1      41.726 -16.242   1.873  1.00  0.00    -0.221 NA
HETATM   35  C   UNL     1      43.662 -19.228   3.019  1.00  0.00    -0.059 A 
HETATM   36  C   UNL     1      44.045 -20.640   2.674  1.00  0.00     0.048 C 
HETATM   37  C   UNL     1      44.170 -18.637   4.191  1.00  0.00     0.016 A 
HETATM   38  C   UNL     1      44.427 -16.713   5.814  1.00  0.00     0.051 C 
ENDBRANCH   1  28
TORSDOF 8
ENDMDL
MODEL 2
REMARK VINA RESULT:      -8.8      1.407      1.748
REMARK  8 active torsions:
REMARK  status: ('A' for Active; 'I' for Inactive)
REMARK    1  A    between atoms: C_7  and  C_8 
REMARK    2  A    between atoms: C_9  and  O_10 
REMARK    3  A    between atoms: C_12  and  N_13 
REMARK    4  A    between atoms: C_14  and  N_15 
REMARK       I    between atoms: N_15  and  C_16 
REMARK    5  A    between atoms: C_16  and  C_17 
REMARK    6  A    between atoms: C_19  and  O_20 
REMARK    7  A    between atoms: O_20  and  C_21 
REMARK    8  A    between atoms: C_21  and  C_22 
ROOT
HETATM    1  C   UNL     1      40.913 -13.938   3.046  1.00  0.00     0.050 A 
HETATM    2  C   UNL     1      40.148 -13.553   4.156  1.00  0.00     0.082 A 
HETATM    3  C   UNL     1      39.497 -12.321   4.194  1.00  0.00     0.067 A 
HETATM    4  C   UNL     1      39.549 -11.463   3.092  1.00  0.00     0.036 A 
HETATM    5  C   UNL     1      40.311 -11.827   1.981  1.00  0.00     0.030 A 
HETATM    6  C   UNL     1      40.993 -13.053   1.961  1.00  0.00     0.021 A 
ENDROOT
BRANCH   4   7
HETATM    7  N   UNL     1      38.872 -10.233   3.201  1.00  0.00    -0.337 N 
HETATM    8  C   UNL     1      39.022  -9.230   4.093  1.00  0.00     0.157 C 
HETATM    9  S   UNL     1      37.681  -8.324   4.527  1.00  0.00    -0.047 SA
HETATM   10  H   UNL     1      38.028 -10.167   2.642  1.00  0.00     0.168 HD
BRANCH   8  11
HETATM   11  N   UNL     1      40.229  -8.841   4.588  1.00  0.00    -0.201 NA
HETATM   12  C   UNL     1      40.667  -9.206   5.858  1.00  0.00     0.237 C 
HETATM   13  O   UNL     1      40.138  -8.901   6.919  1.00  0.00    -0.274 OA
HETATM   14  H   UNL     1      40.905  -9.016   3.859  1.00  0.00     0.139 HD
BRANCH  12  15
HETATM   15  C   UNL     1      41.921 -10.010   5.909  1.00  0.00     0.029 A 
HETATM   16  C   UNL     1      42.590 -10.305   7.106  1.00  0.00     0.053 A 
HETATM   17  C   UNL     1      43.801 -11.002   7.066  1.00  0.00     0.069 A 
HETATM   18  C   UNL     1      44.313 -11.433   5.840  1.00  0.00     0.037 A 
HETATM   19  C   UNL     1      43.634 -11.170   4.651  1.00  0.00     0.004 A 
HETATM   20  C   UNL     1      42.439 -10.458   4.685  1.00  0.00     0.017 A 
BRANCH  17  21
HETATM   21  O   UNL     1      44.578 -11.327   8.143  1.00  0.00    -0.351 OA
BRANCH  21  22
HETATM   22  C   UNL     1      45.821 -10.645   8.299  1.00  0.00     0.179 C 
BRANCH  22  23
HETATM   23  C   UNL     1      45.668  -9.526   9.343  1.00  0.00     0.002 C 
HETATM   24  C   UNL     1      45.076  -8.258   8.726  1.00  0.00     0.011 C 
HETATM   25  C   UNL     1      44.803  -9.987  10.519  1.00  0.00     0.011 C 
ENDBRANCH  22  23
ENDBRANCH  21  22
ENDBRANCH  17  21
ENDBRANCH  12  15
ENDBRANCH   8  11
ENDBRANCH   4   7
BRANCH   2  26
HETATM   26  O   UNL     1      39.987 -14.352   5.262  1.00  0.00    -0.360 OA
HETATM   27  H   UNL     1      40.849 -14.411   5.726  1.00  0.00     0.217 HD
ENDBRANCH   2  26
BRANCH   1  28
HETATM   28  C   UNL     1      41.584 -15.231   3.022  1.00  0.00     0.183 A 
HETATM   29  O   UNL     1      42.475 -15.499   4.029  1.00  0.00    -0.288 OA
HETATM   30  C   UNL     1      42.920 -16.760   3.748  1.00  0.00     0.112 A 
HETATM   31  C   UNL     1      42.287 -17.179   2.589  1.00  0.00     0.094 A 
HETATM   32  C   UNL     1      43.845 -17.512   4.471  1.00  0.00    -0.025 A 
HETATM   33  C   UNL     1      42.604 -18.434   2.052  1.00  0.00     0.041 A 
HETATM   34  N   UNL     1      41.408 -16.217   2.157  1.00  0.00    -0.221 NA
HETATM   35  C   UNL     1      43.556 -19.226   2.717  1.00  0.00    -0.059 A 
HETATM   36  C   UNL     1      43.957 -20.560   2.154  1.00  0.00     0.048 C 
HETATM   37  C   UNL     1      44.154 -18.765   3.906  1.00  0.00     0.016 A 
HETATM   38  C   UNL     1      44.494 -17.055   5.738  1.00  0.00     0.051 C 
ENDBRANCH   1  28
TORSDOF 8
ENDMDL
MODEL 3
REMARK VINA RESULT:      -8.6      5.044      6.473
REMARK  8 active torsions:
REMARK  status: ('A' for Active; 'I' for Inactive)
REMARK    1  A    between atoms: C_7  and  C_8 
REMARK    2  A    between atoms: C_9  and  O_10 
REMARK    3  A    between atoms: C_12  and  N_13 
REMARK    4  A    between atoms: C_14  and  N_15 
REMARK       I    between atoms: N_15  and  C_16 
REMARK    5  A    between atoms: C_16  and  C_17 
REMARK    6  A    between atoms: C_19  and  O_20 
REMARK    7  A    between atoms: O_20  and  C_21 
REMARK    8  A    between atoms: C_21  and  C_22 
ROOT
HETATM    1  C   UNL     1      43.008 -13.419   6.100  1.00  0.00     0.050 A 
HETATM    2  C   UNL     1      41.823 -12.754   5.755  1.00  0.00     0.082 A 
HETATM    3  C   UNL     1      41.594 -11.434   6.142  1.00  0.00     0.067 A 
HETATM    4  C   UNL     1      42.578 -10.724   6.837  1.00  0.00     0.036 A 
HETATM    5  C   UNL     1      43.762 -11.372   7.193  1.00  0.00     0.030 A 
HETATM    6  C   UNL     1      43.972 -12.711   6.833  1.00  0.00     0.021 A 
ENDROOT
BRANCH   4   7
HETATM    7  N   UNL     1      42.279  -9.397   7.199  1.00  0.00    -0.337 N 
HETATM    8  C   UNL     1      41.566  -8.915   8.240  1.00  0.00     0.157 C 
HETATM    9  S   UNL     1      40.695  -7.498   8.040  1.00  0.00    -0.047 SA
HETATM   10  H   UNL     1      42.471  -8.711   6.477  1.00  0.00     0.168 HD
BRANCH   8  11
HETATM   11  N   UNL     1      41.595  -9.463   9.486  1.00  0.00    -0.201 NA
HETATM   12  C   UNL     1      42.663  -9.277  10.358  1.00  0.00     0.237 C 
HETATM   13  O   UNL     1      43.817  -9.644  10.175  1.00  0.00    -0.274 OA
HETATM   14  H   UNL     1      40.694  -9.274   9.900  1.00  0.00     0.139 HD
BRANCH  12  15
HETATM   15  C   UNL     1      42.343  -8.601  11.647  1.00  0.00     0.029 A 
HETATM   16  C   UNL     1      41.036  -8.258  12.026  1.00  0.00     0.053 A 
HETATM   17  C   UNL     1      40.823  -7.561  13.218  1.00  0.00     0.069 A 
HETATM   18  C   UNL     1      41.908  -7.247  14.041  1.00  0.00     0.037 A 
HETATM   19  C   UNL     1      43.204  -7.615  13.684  1.00  0.00     0.004 A 
HETATM   20  C   UNL     1      43.422  -8.291  12.487  1.00  0.00     0.017 A 
BRANCH  17  21
HETATM   21  O   UNL     1      39.616  -7.132  13.694  1.00  0.00    -0.351 OA
BRANCH  21  22
HETATM   22  C   UNL     1      39.565  -5.856  14.331  1.00  0.00     0.179 C 
BRANCH  22  23
HETATM   23  C   UNL     1      38.691  -5.944  15.593  1.00  0.00     0.002 C 
HETATM   24  C   UNL     1      39.516  -6.322  16.824  1.00  0.00     0.011 C 
HETATM   25  C   UNL     1      37.954  -4.626  15.843  1.00  0.00     0.011 C 
ENDBRANCH  22  23
ENDBRANCH  21  22
ENDBRANCH  17  21
ENDBRANCH  12  15
ENDBRANCH   8  11
ENDBRANCH   4   7
BRANCH   2  26
HETATM   26  O   UNL     1      40.823 -13.347   5.023  1.00  0.00    -0.360 OA
HETATM   27  H   UNL     1      40.719 -14.270   5.338  1.00  0.00     0.217 HD
ENDBRANCH   2  26
BRANCH   1  28
HETATM   28  C   UNL     1      43.230 -14.797   5.685  1.00  0.00     0.183 A 
HETATM   29  O   UNL     1      43.131 -15.078   4.348  1.00  0.00    -0.288 OA
HETATM   30  C   UNL     1      43.399 -16.416   4.271  1.00  0.00     0.112 A 
HETATM   31  C   UNL     1      43.633 -16.871   5.558  1.00  0.00     0.094 A 
HETATM   32  C   UNL     1      43.431 -17.208   3.123  1.00  0.00    -0.025 A 
HETATM   33  C   UNL     1      43.889 -18.232   5.766  1.00  0.00     0.041 A 
HETATM   34  N   UNL     1      43.565 -15.827   6.446  1.00  0.00    -0.221 NA
HETATM   35  C   UNL     1      43.900 -19.090   4.653  1.00  0.00    -0.059 A 
HETATM   36  C   UNL     1      44.129 -20.564   4.835  1.00  0.00     0.048 C 
HETATM   37  C   UNL     1      43.680 -18.575   3.361  1.00  0.00     0.016 A 
HETATM   38  C   UNL     1      43.207 -16.693   1.738  1.00  0.00     0.051 C 
ENDBRANCH   1  28
TORSDOF 8
ENDMDL
MODEL 4
REMARK VINA RESULT:      -8.3      3.482      7.773
REMARK  8 active torsions:
REMARK  status: ('A' for Active; 'I' for Inactive)
REMARK    1  A    between atoms: C_7  and  C_8 
REMARK    2  A    between atoms: C_9  and  O_10 
REMARK    3  A    between atoms: C_12  and  N_13 
REMARK    4  A    between atoms: C_14  and  N_15 
REMARK       I    between atoms: N_15  and  C_16 
REMARK    5  A    between atoms: C_16  and  C_17 
REMARK    6  A    between atoms: C_19  and  O_20 
REMARK    7  A    between atoms: O_20  and  C_21 
REMARK    8  A    between atoms: C_21  and  C_22 
ROOT
HETATM    1  C   UNL     1      40.502  -9.500   7.809  1.00  0.00     0.050 A 
HETATM    2  C   UNL     1      39.408 -10.358   7.622  1.00  0.00     0.082 A 
HETATM    3  C   UNL     1      38.962 -10.694   6.345  1.00  0.00     0.067 A 
HETATM    4  C   UNL     1      39.640 -10.224   5.216  1.00  0.00     0.036 A 
HETATM    5  C   UNL     1      40.727  -9.365   5.384  1.00  0.00     0.030 A 
HETATM    6  C   UNL     1      41.151  -9.001   6.670  1.00  0.00     0.021 A 
ENDROOT
BRANCH   4   7
HETATM    7  N   UNL     1      39.131 -10.600   3.958  1.00  0.00    -0.337 N 
HETATM    8  C   UNL     1      39.694 -11.329   2.971  1.00  0.00     0.157 C 
HETATM    9  S   UNL     1      39.304 -10.978   1.380  1.00  0.00    -0.047 SA
HETATM   10  H   UNL     1      38.295 -10.099   3.677  1.00  0.00     0.168 HD
BRANCH   8  11
HETATM   11  N   UNL     1      40.489 -12.411   3.198  1.00  0.00    -0.201 NA
HETATM   12  C   UNL     1      41.859 -12.297   3.415  1.00  0.00     0.237 C 
HETATM   13  O   UNL     1      42.682 -11.865   2.618  1.00  0.00    -0.274 OA
HETATM   14  H   UNL     1      40.013 -12.973   3.889  1.00  0.00     0.139 HD
BRANCH  12  15
HETATM   15  C   UNL     1      42.354 -12.791   4.731  1.00  0.00     0.029 A 
HETATM   16  C   UNL     1      43.206 -12.042   5.557  1.00  0.00     0.053 A 
HETATM   17  C   UNL     1      43.687 -12.602   6.743  1.00  0.00     0.069 A 
HETATM   18  C   UNL     1      43.284 -13.887   7.116  1.00  0.00     0.037 A 
HETATM   19  C   UNL     1      42.411 -14.622   6.314  1.00  0.00     0.004 A 
HETATM   20  C   UNL     1      41.948 -14.075   5.122  1.00  0.00     0.017 A 
BRANCH  17  21
HETATM   21  O   UNL     1      44.547 -12.007   7.623  1.00  0.00    -0.351 OA
BRANCH  21  22
HETATM   22  C   UNL     1      44.099 -10.837   8.306  1.00  0.00     0.179 C 
BRANCH  22  23
HETATM   23  C   UNL     1      45.301 -10.120   8.944  1.00  0.00     0.002 C 
HETATM   24  C   UNL     1      45.420  -8.677   8.453  1.00  0.00     0.011 C 
HETATM   25  C   UNL     1      45.207 -10.146  10.472  1.00  0.00     0.011 C 
ENDBRANCH  22  23
ENDBRANCH  21  22
ENDBRANCH  17  21
ENDBRANCH  12  15
ENDBRANCH   8  11
ENDBRANCH   4   7
BRANCH   2  26
HETATM   26  O   UNL     1      38.715 -10.917   8.668  1.00  0.00    -0.360 OA
HETATM   27  H   UNL     1      38.863 -10.365   9.465  1.00  0.00     0.217 HD
ENDBRANCH   2  26
BRANCH   1  28
HETATM   28  C   UNL     1      40.956  -9.162   9.151  1.00  0.00     0.183 A 
HETATM   29  O   UNL     1      40.343  -9.791  10.203  1.00  0.00    -0.288 OA
HETATM   30  C   UNL     1      40.979  -9.289  11.304  1.00  0.00     0.112 A 
HETATM   31  C   UNL     1      41.928  -8.382  10.861  1.00  0.00     0.094 A 
HETATM   32  C   UNL     1      40.736  -9.607  12.640  1.00  0.00    -0.025 A 
HETATM   33  C   UNL     1      42.695  -7.683  11.802  1.00  0.00     0.041 A 
HETATM   34  N   UNL     1      41.935  -8.338   9.490  1.00  0.00    -0.221 NA
HETATM   35  C   UNL     1      42.474  -7.932  13.167  1.00  0.00    -0.059 A 
HETATM   36  C   UNL     1      43.245  -7.175  14.211  1.00  0.00     0.048 C 
HETATM   37  C   UNL     1      41.514  -8.883  13.565  1.00  0.00     0.016 A 
HETATM   38  C   UNL     1      39.729 -10.613  13.096  1.00  0.00     0.051 C 
ENDBRANCH   1  28
TORSDOF 8
ENDMDL
MODEL 5
REMARK VINA RESULT:      -8.3      2.469      6.338
REMARK  8 active torsions:
REMARK  status: ('A' for Active; 'I' for Inactive)
REMARK    1  A    between atoms: C_7  and  C_8 
REMARK    2  A    between atoms: C_9  and  O_10 
REMARK    3  A    between atoms: C_12  and  N_13 
REMARK    4  A    between atoms: C_14  and  N_15 
REMARK       I    between atoms: N_15  and  C_16 
REMARK    5  A    between atoms: C_16  and  C_17 
REMARK    6  A    between atoms: C_19  and  O_20 
REMARK    7  A    between atoms: O_20  and  C_21 
REMARK    8  A    between atoms: C_21  and  C_22 
ROOT
HETATM    1  C   UNL     1      40.885 -10.972   4.436  1.00  0.00     0.050 A 
HETATM    2  C   UNL     1      40.853 -10.064   3.368  1.00  0.00     0.082 A 
HETATM    3  C   UNL     1      39.931 -10.198   2.331  1.00  0.00     0.067 A 
HETATM    4  C   UNL     1      38.974 -11.216   2.367  1.00  0.00     0.036 A 
HETATM    5  C   UNL     1      38.995 -12.133   3.420  1.00  0.00     0.030 A 
HETATM    6  C   UNL     1      39.947 -12.015   4.443  1.00  0.00     0.021 A 
ENDROOT
BRANCH   4   7
HETATM    7  N   UNL     1      38.077 -11.295   1.285  1.00  0.00    -0.337 N 
HETATM    8  C   UNL     1      38.243 -11.809   0.048  1.00  0.00     0.157 C 
HETATM    9  S   UNL     1      37.427 -11.110  -1.237  1.00  0.00    -0.047 SA
HETATM   10  H   UNL     1      37.246 -10.722   1.387  1.00  0.00     0.168 HD
BRANCH   8  11
HETATM   11  N   UNL     1      38.964 -12.936  -0.205  1.00  0.00    -0.201 NA
HETATM   12  C   UNL     1      40.332 -13.017   0.039  1.00  0.00     0.237 C 
HETATM   13  O   UNL     1      41.202 -12.345  -0.500  1.00  0.00    -0.274 OA
HETATM   14  H   UNL     1      38.435 -13.704   0.183  1.00  0.00     0.139 HD
BRANCH  12  15
HETATM   15  C   UNL     1      40.759 -14.053   1.021  1.00  0.00     0.029 A 
HETATM   16  C   UNL     1      41.839 -13.875   1.899  1.00  0.00     0.053 A 
HETATM   17  C   UNL     1      42.225 -14.920   2.741  1.00  0.00     0.069 A 
HETATM   18  C   UNL     1      41.507 -16.119   2.731  1.00  0.00     0.037 A 
HETATM   19  C   UNL     1      40.413 -16.289   1.884  1.00  0.00     0.004 A 
HETATM   20  C   UNL     1      40.040 -15.256   1.029  1.00  0.00     0.017 A 
BRANCH  17  21
HETATM   21  O   UNL     1      43.274 -14.903   3.617  1.00  0.00    -0.351 OA
BRANCH  21  22
HETATM   22  C   UNL     1      43.093 -15.524   4.888  1.00  0.00     0.179 C 
BRANCH  22  23
HETATM   23  C   UNL     1      42.416 -14.537   5.853  1.00  0.00     0.002 C 
HETATM   24  C   UNL     1      41.037 -15.032   6.290  1.00  0.00     0.011 C 
HETATM   25  C   UNL     1      43.293 -14.282   7.082  1.00  0.00     0.011 C 
ENDBRANCH  22  23
ENDBRANCH  21  22
ENDBRANCH  17  21
ENDBRANCH  12  15
ENDBRANCH   8  11
ENDBRANCH   4   7
BRANCH   2  26
HETATM   26  O   UNL     1      41.712  -8.996   3.274  1.00  0.00    -0.360 OA
HETATM   27  H   UNL     1      42.030  -8.939   2.347  1.00  0.00     0.217 HD
ENDBRANCH   2  26
BRANCH   1  28
HETATM   28  C   UNL     1      41.854 -10.815   5.512  1.00  0.00     0.183 A 
HETATM   29  O   UNL     1      43.159 -11.131   5.239  1.00  0.00    -0.288 OA
HETATM   30  C   UNL     1      43.813 -10.874   6.410  1.00  0.00     0.112 A 
HETATM   31  C   UNL     1      42.873 -10.431   7.326  1.00  0.00     0.094 A 
HETATM   32  C   UNL     1      45.175 -11.027   6.671  1.00  0.00    -0.025 A 
HETATM   33  C   UNL     1      43.279 -10.139   8.635  1.00  0.00     0.041 A 
HETATM   34  N   UNL     1      41.637 -10.356   6.735  1.00  0.00    -0.221 NA
HETATM   35  C   UNL     1      44.633 -10.307   8.970  1.00  0.00    -0.059 A 
HETATM   36  C   UNL     1      45.105 -10.045  10.373  1.00  0.00     0.048 C 
HETATM   37  C   UNL     1      45.555 -10.737   7.996  1.00  0.00     0.016 A 
HETATM   38  C   UNL     1      46.180 -11.477   5.659  1.00  0.00     0.051 C 
ENDBRANCH   1  28
TORSDOF 8
ENDMDL
MODEL 6
REMARK VINA RESULT:      -8.2      2.683      4.048
REMARK  8 active torsions:
REMARK  status: ('A' for Active; 'I' for Inactive)
REMARK    1  A    between atoms: C_7  and  C_8 
REMARK    2  A    between atoms: C_9  and  O_10 
REMARK    3  A    between atoms: C_12  and  N_13 
REMARK    4  A    between atoms: C_14  and  N_15 
REMARK       I    between atoms: N_15  and  C_16 
REMARK    5  A    between atoms: C_16  and  C_17 
REMARK    6  A    between atoms: C_19  and  O_20 
REMARK    7  A    between atoms: O_20  and  C_21 
REMARK    8  A    between atoms: C_21  and  C_22 
ROOT
HETATM    1  C   UNL     1      41.696 -11.586   4.660  1.00  0.00     0.050 A 
HETATM    2  C   UNL     1      42.012 -10.552   3.768  1.00  0.00     0.082 A 
HETATM    3  C   UNL     1      41.701  -9.224   4.058  1.00  0.00     0.067 A 
HETATM    4  C   UNL     1      41.116  -8.891   5.283  1.00  0.00     0.036 A 
HETATM    5  C   UNL     1      40.789  -9.908   6.181  1.00  0.00     0.030 A 
HETATM    6  C   UNL     1      41.071 -11.246   5.869  1.00  0.00     0.021 A 
ENDROOT
BRANCH   4   7
HETATM    7  N   UNL     1      40.825  -7.532   5.508  1.00  0.00    -0.337 N 
HETATM    8  C   UNL     1      41.162  -6.725   6.537  1.00  0.00     0.157 C 
HETATM    9  S   UNL     1      40.108  -5.504   6.989  1.00  0.00    -0.047 SA
HETATM   10  H   UNL     1      40.107  -7.150   4.901  1.00  0.00     0.168 HD
BRANCH   8  11
HETATM   11  N   UNL     1      42.365  -6.782   7.171  1.00  0.00    -0.201 NA
HETATM   12  C   UNL     1      42.497  -6.575   8.541  1.00  0.00     0.237 C 
HETATM   13  O   UNL     1      42.234  -5.543   9.144  1.00  0.00    -0.274 OA
HETATM   14  H   UNL     1      42.821  -7.620   6.840  1.00  0.00     0.139 HD
BRANCH  12  15
HETATM   15  C   UNL     1      43.051  -7.717   9.322  1.00  0.00     0.029 A 
HETATM   16  C   UNL     1      43.544  -8.886   8.723  1.00  0.00     0.053 A 
HETATM   17  C   UNL     1      43.980  -9.943   9.525  1.00  0.00     0.069 A 
HETATM   18  C   UNL     1      43.959  -9.812  10.916  1.00  0.00     0.037 A 
HETATM   19  C   UNL     1      43.501  -8.640  11.516  1.00  0.00     0.004 A 
HETATM   20  C   UNL     1      43.046  -7.593  10.719  1.00  0.00     0.017 A 
BRANCH  17  21
HETATM   21  O   UNL     1      44.449 -11.148   9.083  1.00  0.00    -0.351 OA
BRANCH  21  22
HETATM   22  C   UNL     1      44.148 -11.530   7.742  1.00  0.00     0.179 C 
BRANCH  22  23
HETATM   23  C   UNL     1      45.451 -11.643   6.933  1.00  0.00     0.002 C 
HETATM   24  C   UNL     1      45.219 -11.359   5.449  1.00  0.00     0.011 C 
HETATM   25  C   UNL     1      46.522 -10.699   7.484  1.00  0.00     0.011 C 
ENDBRANCH  22  23
ENDBRANCH  21  22
ENDBRANCH  17  21
ENDBRANCH  12  15
ENDBRANCH   8  11
ENDBRANCH   4   7
BRANCH   2  26
HETATM   26  O   UNL     1      42.642 -10.773   2.567  1.00  0.00    -0.360 OA
HETATM   27  H   UNL     1      43.292 -11.497   2.690  1.00  0.00     0.217 HD
ENDBRANCH   2  26
BRANCH   1  28
HETATM   28  C   UNL     1      42.030 -12.968   4.341  1.00  0.00     0.183 A 
HETATM   29  O   UNL     1      42.763 -13.669   5.262  1.00  0.00    -0.288 OA
HETATM   30  C   UNL     1      42.903 -14.907   4.700  1.00  0.00     0.112 A 
HETATM   31  C   UNL     1      42.261 -14.883   3.472  1.00  0.00     0.094 A 
HETATM   32  C   UNL     1      43.569 -16.009   5.234  1.00  0.00    -0.025 A 
HETATM   33  C   UNL     1      42.295 -16.025   2.661  1.00  0.00     0.041 A 
HETATM   34  N   UNL     1      41.674 -13.660   3.270  1.00  0.00    -0.221 NA
HETATM   35  C   UNL     1      42.981 -17.159   3.129  1.00  0.00    -0.059 A 
HETATM   36  C   UNL     1      43.078 -18.392   2.275  1.00  0.00     0.048 C 
HETATM   37  C   UNL     1      43.597 -17.141   4.395  1.00  0.00     0.016 A 
HETATM   38  C   UNL     1      44.229 -16.025   6.576  1.00  0.00     0.051 C 
ENDBRANCH   1  28
TORSDOF 8
ENDMDL
MODEL 7
REMARK VINA RESULT:      -8.0      2.777      8.294
REMARK  8 active torsions:
REMARK  status: ('A' for Active; 'I' for Inactive)
REMARK    1  A    between atoms: C_7  and  C_8 
REMARK    2  A    between atoms: C_9  and  O_10 
REMARK    3  A    between atoms: C_12  and  N_13 
REMARK    4  A    between atoms: C_14  and  N_15 
REMARK       I    between atoms: N_15  and  C_16 
REMARK    5  A    between atoms: C_16  and  C_17 
REMARK    6  A    between atoms: C_19  and  O_20 
REMARK    7  A    between atoms: O_20  and  C_21 
REMARK    8  A    between atoms: C_21  and  C_22 
ROOT
HETATM    1  C   UNL     1      40.436  -9.689   7.286  1.00  0.00     0.050 A 
HETATM    2  C   UNL     1      39.294 -10.499   7.211  1.00  0.00     0.082 A 
HETATM    3  C   UNL     1      38.716 -10.823   5.984  1.00  0.00     0.067 A 
HETATM    4  C   UNL     1      39.304 -10.390   4.793  1.00  0.00     0.036 A 
HETATM    5  C   UNL     1      40.439  -9.578   4.849  1.00  0.00     0.030 A 
HETATM    6  C   UNL     1      40.996  -9.225   6.087  1.00  0.00     0.021 A 
ENDROOT
BRANCH   4   7
HETATM    7  N   UNL     1      38.665 -10.749   3.591  1.00  0.00    -0.337 N 
HETATM    8  C   UNL     1      38.805 -11.850   2.822  1.00  0.00     0.157 C 
HETATM    9  S   UNL     1      38.609 -11.712   1.164  1.00  0.00    -0.047 SA
HETATM   10  H   UNL     1      38.159  -9.993   3.142  1.00  0.00     0.168 HD
BRANCH   8  11
HETATM   11  N   UNL     1      39.000 -13.099   3.329  1.00  0.00    -0.201 NA
HETATM   12  C   UNL     1      39.870 -14.014   2.745  1.00  0.00     0.237 C 
HETATM   13  O   UNL     1      39.769 -14.491   1.621  1.00  0.00    -0.274 OA
HETATM   14  H   UNL     1      39.137 -12.983   4.323  1.00  0.00     0.139 HD
BRANCH  12  15
HETATM   15  C   UNL     1      41.002 -14.474   3.598  1.00  0.00     0.029 A 
HETATM   16  C   UNL     1      41.872 -15.508   3.222  1.00  0.00     0.053 A 
HETATM   17  C   UNL     1      42.865 -15.933   4.108  1.00  0.00     0.069 A 
HETATM   18  C   UNL     1      43.009 -15.297   5.344  1.00  0.00     0.037 A 
HETATM   19  C   UNL     1      42.168 -14.247   5.709  1.00  0.00     0.004 A 
HETATM   20  C   UNL     1      41.164 -13.836   4.837  1.00  0.00     0.017 A 
BRANCH  17  21
HETATM   21  O   UNL     1      43.756 -16.947   3.892  1.00  0.00    -0.351 OA
BRANCH  21  22
HETATM   22  C   UNL     1      43.579 -17.754   2.730  1.00  0.00     0.179 C 
BRANCH  22  23
HETATM   23  C   UNL     1      43.376 -19.221   3.146  1.00  0.00     0.002 C 
HETATM   24  C   UNL     1      43.644 -20.178   1.983  1.00  0.00     0.011 C 
HETATM   25  C   UNL     1      44.269 -19.582   4.335  1.00  0.00     0.011 C 
ENDBRANCH  22  23
ENDBRANCH  21  22
ENDBRANCH  17  21
ENDBRANCH  12  15
ENDBRANCH   8  11
ENDBRANCH   4   7
BRANCH   2  26
HETATM   26  O   UNL     1      38.679 -11.022   8.322  1.00  0.00    -0.360 OA
HETATM   27  H   UNL     1      37.708 -10.953   8.197  1.00  0.00     0.217 HD
ENDBRANCH   2  26
BRANCH   1  28
HETATM   28  C   UNL     1      41.028  -9.363   8.577  1.00  0.00     0.183 A 
HETATM   29  O   UNL     1      42.376  -9.566   8.722  1.00  0.00    -0.288 OA
HETATM   30  C   UNL     1      42.633  -9.165  10.004  1.00  0.00     0.112 A 
HETATM   31  C   UNL     1      41.434  -8.757  10.563  1.00  0.00     0.094 A 
HETATM   32  C   UNL     1      43.864  -9.164  10.659  1.00  0.00    -0.025 A 
HETATM   33  C   UNL     1      41.411  -8.337  11.900  1.00  0.00     0.041 A 
HETATM   34  N   UNL     1      40.426  -8.846   9.636  1.00  0.00    -0.221 NA
HETATM   35  C   UNL     1      42.614  -8.346  12.626  1.00  0.00    -0.059 A 
HETATM   36  C   UNL     1      42.628  -7.944  14.073  1.00  0.00     0.048 C 
HETATM   37  C   UNL     1      43.812  -8.748  12.004  1.00  0.00     0.016 A 
HETATM   38  C   UNL     1      45.154  -9.580  10.027  1.00  0.00     0.051 C 
ENDBRANCH   1  28
TORSDOF 8
ENDMDL
MODEL 8
REMARK VINA RESULT:      -8.0      3.360      6.960
REMARK  8 active torsions:
REMARK  status: ('A' for Active; 'I' for Inactive)
REMARK    1  A    between atoms: C_7  and  C_8 
REMARK    2  A    between atoms: C_9  and  O_10 
REMARK    3  A    between atoms: C_12  and  N_13 
REMARK    4  A    between atoms: C_14  and  N_15 
REMARK       I    between atoms: N_15  and  C_16 
REMARK    5  A    between atoms: C_16  and  C_17 
REMARK    6  A    between atoms: C_19  and  O_20 
REMARK    7  A    between atoms: O_20  and  C_21 
REMARK    8  A    between atoms: C_21  and  C_22 
ROOT
HETATM    1  C   UNL     1      41.406 -14.773   1.247  1.00  0.00     0.050 A 
HETATM    2  C   UNL     1      40.598 -15.537   2.101  1.00  0.00     0.082 A 
HETATM    3  C   UNL     1      41.097 -16.662   2.756  1.00  0.00     0.067 A 
HETATM    4  C   UNL     1      42.441 -17.019   2.617  1.00  0.00     0.036 A 
HETATM    5  C   UNL     1      43.259 -16.274   1.766  1.00  0.00     0.030 A 
HETATM    6  C   UNL     1      42.744 -15.163   1.082  1.00  0.00     0.021 A 
ENDROOT
BRANCH   4   7
HETATM    7  N   UNL     1      42.876 -18.169   3.303  1.00  0.00    -0.337 N 
HETATM    8  C   UNL     1      43.422 -18.300   4.531  1.00  0.00     0.157 C 
HETATM    9  S   UNL     1      44.542 -19.517   4.795  1.00  0.00    -0.047 SA
HETATM   10  H   UNL     1      42.959 -18.997   2.723  1.00  0.00     0.168 HD
BRANCH   8  11
HETATM   11  N   UNL     1      43.037 -17.558   5.605  1.00  0.00    -0.201 NA
HETATM   12  C   UNL     1      43.656 -16.358   5.943  1.00  0.00     0.237 C 
HETATM   13  O   UNL     1      44.827 -16.217   6.271  1.00  0.00    -0.274 OA
HETATM   14  H   UNL     1      42.030 -17.499   5.563  1.00  0.00     0.139 HD
BRANCH  12  15
HETATM   15  C   UNL     1      42.783 -15.150   5.937  1.00  0.00     0.029 A 
HETATM   16  C   UNL     1      43.254 -13.868   5.615  1.00  0.00     0.053 A 
HETATM   17  C   UNL     1      42.391 -12.772   5.703  1.00  0.00     0.069 A 
HETATM   18  C   UNL     1      41.058 -12.968   6.072  1.00  0.00     0.037 A 
HETATM   19  C   UNL     1      40.577 -14.244   6.362  1.00  0.00     0.004 A 
HETATM   20  C   UNL     1      41.440 -15.335   6.295  1.00  0.00     0.017 A 
BRANCH  17  21
HETATM   21  O   UNL     1      42.719 -11.469   5.456  1.00  0.00    -0.351 OA
BRANCH  21  22
HETATM   22  C   UNL     1      43.027 -10.635   6.572  1.00  0.00     0.179 C 
BRANCH  22  23
HETATM   23  C   UNL     1      44.123 -11.297   7.424  1.00  0.00     0.002 C 
HETATM   24  C   UNL     1      45.513 -11.064   6.832  1.00  0.00     0.011 C 
HETATM   25  C   UNL     1      44.078 -10.788   8.867  1.00  0.00     0.011 C 
ENDBRANCH  22  23
ENDBRANCH  21  22
ENDBRANCH  17  21
ENDBRANCH  12  15
ENDBRANCH   8  11
ENDBRANCH   4   7
BRANCH   2  26
HETATM   26  O   UNL     1      39.282 -15.231   2.349  1.00  0.00    -0.360 OA
HETATM   27  H   UNL     1      38.857 -14.991   1.498  1.00  0.00     0.217 HD
ENDBRANCH   2  26
BRANCH   1  28
HETATM   28  C   UNL     1      40.869 -13.599   0.573  1.00  0.00     0.183 A 
HETATM   29  O   UNL     1      39.839 -13.793  -0.309  1.00  0.00    -0.288 OA
HETATM   30  C   UNL     1      39.548 -12.536  -0.760  1.00  0.00     0.112 A 
HETATM   31  C   UNL     1      40.420 -11.657  -0.138  1.00  0.00     0.094 A 
HETATM   32  C   UNL     1      38.566 -12.172  -1.680  1.00  0.00    -0.025 A 
HETATM   33  C   UNL     1      40.365 -10.295  -0.462  1.00  0.00     0.041 A 
HETATM   34  N   UNL     1      41.229 -12.336   0.739  1.00  0.00    -0.221 NA
HETATM   35  C   UNL     1      39.419  -9.870  -1.410  1.00  0.00    -0.059 A 
HETATM   36  C   UNL     1      39.352  -8.425  -1.819  1.00  0.00     0.048 C 
HETATM   37  C   UNL     1      38.538 -10.800  -1.996  1.00  0.00     0.016 A 
HETATM   38  C   UNL     1      37.614 -13.132  -2.318  1.00  0.00     0.051 C 
ENDBRANCH   1  28
TORSDOF 8
ENDMDL
MODEL 9
REMARK VINA RESULT:      -7.9      1.977      7.250
REMARK  8 active torsions:
REMARK  status: ('A' for Active; 'I' for Inactive)
REMARK    1  A    between atoms: C_7  and  C_8 
REMARK    2  A    between atoms: C_9  and  O_10 
REMARK    3  A    between atoms: C_12  and  N_13 
REMARK    4  A    between atoms: C_14  and  N_15 
REMARK       I    between atoms: N_15  and  C_16 
REMARK    5  A    between atoms: C_16  and  C_17 
REMARK    6  A    between atoms: C_19  and  O_20 
REMARK    7  A    between atoms: O_20  and  C_21 
REMARK    8  A    between atoms: C_21  and  C_22 
ROOT
HETATM    1  C   UNL     1      40.893 -10.309   4.776  1.00  0.00     0.050 A 
HETATM    2  C   UNL     1      39.777 -11.158   4.780  1.00  0.00     0.082 A 
HETATM    3  C   UNL     1      38.981 -11.313   3.646  1.00  0.00     0.067 A 
HETATM    4  C   UNL     1      39.319 -10.664   2.455  1.00  0.00     0.036 A 
HETATM    5  C   UNL     1      40.423  -9.811   2.434  1.00  0.00     0.030 A 
HETATM    6  C   UNL     1      41.200  -9.630   3.588  1.00  0.00     0.021 A 
ENDROOT
BRANCH   4   7
HETATM    7  N   UNL     1      38.468 -10.862   1.350  1.00  0.00    -0.337 N 
HETATM    8  C   UNL     1      38.537 -11.761   0.345  1.00  0.00     0.157 C 
HETATM    9  S   UNL     1      37.974 -11.326  -1.172  1.00  0.00    -0.047 SA
HETATM   10  H   UNL     1      37.812 -10.106   1.185  1.00  0.00     0.168 HD
BRANCH   8  11
HETATM   11  N   UNL     1      38.948 -13.047   0.517  1.00  0.00    -0.201 NA
HETATM   12  C   UNL     1      40.190 -13.499   0.081  1.00  0.00     0.237 C 
HETATM   13  O   UNL     1      40.578 -13.535  -1.080  1.00  0.00    -0.274 OA
HETATM   14  H   UNL     1      38.742 -13.285   1.477  1.00  0.00     0.139 HD
BRANCH  12  15
HETATM   15  C   UNL     1      41.102 -14.020   1.138  1.00  0.00     0.029 A 
HETATM   16  C   UNL     1      41.215 -15.384   1.445  1.00  0.00     0.053 A 
HETATM   17  C   UNL     1      42.039 -15.789   2.499  1.00  0.00     0.069 A 
HETATM   18  C   UNL     1      42.772 -14.836   3.211  1.00  0.00     0.037 A 
HETATM   19  C   UNL     1      42.687 -13.483   2.888  1.00  0.00     0.004 A 
HETATM   20  C   UNL     1      41.852 -13.075   1.852  1.00  0.00     0.017 A 
BRANCH  17  21
HETATM   21  O   UNL     1      42.218 -17.073   2.932  1.00  0.00    -0.351 OA
BRANCH  21  22
HETATM   22  C   UNL     1      43.199 -17.870   2.271  1.00  0.00     0.179 C 
BRANCH  22  23
HETATM   23  C   UNL     1      43.275 -19.254   2.937  1.00  0.00     0.002 C 
HETATM   24  C   UNL     1      43.579 -20.353   1.919  1.00  0.00     0.011 C 
HETATM   25  C   UNL     1      44.324 -19.269   4.052  1.00  0.00     0.011 C 
ENDBRANCH  22  23
ENDBRANCH  21  22
ENDBRANCH  17  21
ENDBRANCH  12  15
ENDBRANCH   8  11
ENDBRANCH   4   7
BRANCH   2  26
HETATM   26  O   UNL     1      39.399 -11.885   5.883  1.00  0.00    -0.360 OA
HETATM   27  H   UNL     1      38.428 -11.798   5.990  1.00  0.00     0.217 HD
ENDBRANCH   2  26
BRANCH   1  28
HETATM   28  C   UNL     1      41.714 -10.161   5.969  1.00  0.00     0.183 A 
HETATM   29  O   UNL     1      43.006 -10.615   5.907  1.00  0.00    -0.288 OA
HETATM   30  C   UNL     1      43.515 -10.332   7.144  1.00  0.00     0.112 A 
HETATM   31  C   UNL     1      42.507  -9.737   7.885  1.00  0.00     0.094 A 
HETATM   32  C   UNL     1      44.805 -10.590   7.607  1.00  0.00    -0.025 A 
HETATM   33  C   UNL     1      42.756  -9.386   9.218  1.00  0.00     0.041 A 
HETATM   34  N   UNL     1      41.379  -9.594   7.117  1.00  0.00    -0.221 NA
HETATM   35  C   UNL     1      44.027  -9.652   9.755  1.00  0.00    -0.059 A 
HETATM   36  C   UNL     1      44.324  -9.330  11.193  1.00  0.00     0.048 C 
HETATM   37  C   UNL     1      45.025 -10.237   8.953  1.00  0.00     0.016 A 
HETATM   38  C   UNL     1      45.889 -11.205   6.781  1.00  0.00     0.051 C 
ENDBRANCH   1  28
TORSDOF 8
ENDMDL
MODEL 10
REMARK VINA RESULT:      -7.7      3.207      8.504
REMARK  8 active torsions:
REMARK  status: ('A' for Active; 'I' for Inactive)
REMARK    1  A    between atoms: C_7  and  C_8 
REMARK    2  A    between atoms: C_9  and  O_10 
REMARK    3  A    between atoms: C_12  and  N_13 
REMARK    4  A    between atoms: C_14  and  N_15 
REMARK       I    between atoms: N_15  and  C_16 
REMARK    5  A    between atoms: C_16  and  C_17 
REMARK    6  A    between atoms: C_19  and  O_20 
REMARK    7  A    between atoms: O_20  and  C_21 
REMARK    8  A    between atoms: C_21  and  C_22 
ROOT
HETATM    1  C   UNL     1      42.952 -12.303   5.055  1.00  0.00     0.050 A 
HETATM    2  C   UNL     1      42.917 -13.570   5.654  1.00  0.00     0.082 A 
HETATM    3  C   UNL     1      43.067 -14.733   4.900  1.00  0.00     0.067 A 
HETATM    4  C   UNL     1      43.317 -14.653   3.527  1.00  0.00     0.036 A 
HETATM    5  C   UNL     1      43.350 -13.400   2.912  1.00  0.00     0.030 A 
HETATM    6  C   UNL     1      43.162 -12.235   3.670  1.00  0.00     0.021 A 
ENDROOT
BRANCH   4   7
HETATM    7  N   UNL     1      43.454 -15.867   2.826  1.00  0.00    -0.337 N 
HETATM    8  C   UNL     1      42.522 -16.766   2.445  1.00  0.00     0.157 C 
HETATM    9  S   UNL     1      42.936 -18.388   2.383  1.00  0.00    -0.047 SA
HETATM   10  H   UNL     1      44.408 -16.205   2.756  1.00  0.00     0.168 HD
BRANCH   8  11
HETATM   11  N   UNL     1      41.281 -16.418   2.005  1.00  0.00    -0.201 NA
HETATM   12  C   UNL     1      40.371 -15.732   2.804  1.00  0.00     0.237 C 
HETATM   13  O   UNL     1      39.882 -16.137   3.851  1.00  0.00    -0.274 OA
HETATM   14  H   UNL     1      41.408 -16.009   1.090  1.00  0.00     0.139 HD
BRANCH  12  15
HETATM   15  C   UNL     1      39.935 -14.400   2.300  1.00  0.00     0.029 A 
HETATM   16  C   UNL     1      39.916 -14.067   0.937  1.00  0.00     0.053 A 
HETATM   17  C   UNL     1      39.564 -12.772   0.547  1.00  0.00     0.069 A 
HETATM   18  C   UNL     1      39.194 -11.834   1.513  1.00  0.00     0.037 A 
HETATM   19  C   UNL     1      39.179 -12.170   2.866  1.00  0.00     0.004 A 
HETATM   20  C   UNL     1      39.550 -13.452   3.260  1.00  0.00     0.017 A 
BRANCH  17  21
HETATM   21  O   UNL     1      39.537 -12.298  -0.734  1.00  0.00    -0.351 OA
BRANCH  21  22
HETATM   22  C   UNL     1      38.489 -12.747  -1.591  1.00  0.00     0.179 C 
BRANCH  22  23
HETATM   23  C   UNL     1      39.087 -13.518  -2.779  1.00  0.00     0.002 C 
HETATM   24  C   UNL     1      40.595 -13.290  -2.895  1.00  0.00     0.011 C 
HETATM   25  C   UNL     1      38.793 -15.016  -2.665  1.00  0.00     0.011 C 
ENDBRANCH  22  23
ENDBRANCH  21  22
ENDBRANCH  17  21
ENDBRANCH  12  15
ENDBRANCH   8  11
ENDBRANCH   4   7
BRANCH   2  26
HETATM   26  O   UNL     1      42.737 -13.749   7.004  1.00  0.00    -0.360 OA
HETATM   27  H   UNL     1      41.958 -13.222   7.283  1.00  0.00     0.217 HD
ENDBRANCH   2  26
BRANCH   1  28
HETATM   28  C   UNL     1      42.796 -11.099   5.859  1.00  0.00     0.183 A 
HETATM   29  O   UNL     1      43.689 -10.901   6.880  1.00  0.00    -0.288 OA
HETATM   30  C   UNL     1      43.303  -9.710   7.429  1.00  0.00     0.112 A 
HETATM   31  C   UNL     1      42.198  -9.262   6.723  1.00  0.00     0.094 A 
HETATM   32  C   UNL     1      43.888  -9.046   8.507  1.00  0.00    -0.025 A 
HETATM   33  C   UNL     1      41.572  -8.073   7.118  1.00  0.00     0.041 A 
HETATM   34  N   UNL     1      41.908 -10.130   5.701  1.00  0.00    -0.221 NA
HETATM   35  C   UNL     1      42.094  -7.374   8.220  1.00  0.00    -0.059 A 
HETATM   36  C   UNL     1      41.429  -6.116   8.703  1.00  0.00     0.048 C 
HETATM   37  C   UNL     1      43.234  -7.859   8.889  1.00  0.00     0.016 A 
HETATM   38  C   UNL     1      45.100  -9.531   9.236  1.00  0.00     0.051 C 
ENDBRANCH   1  28
TORSDOF 8
ENDMDL
