MODEL 1
REMARK VINA RESULT:      -8.3      0.000      0.000
REMARK  4 active torsions:
REMARK  status: ('A' for Active; 'I' for Inactive)
REMARK    1  A    between atoms: C_9  and  C_10 
REMARK    2  A    between atoms: C_20  and  C_21 
REMARK       I    between atoms: C_21  and  N_22 
REMARK    3  A    between atoms: N_22  and  C_23 
REMARK    4  A    between atoms: C_26  and  O_27 
ROOT
HETATM    1  C   UNL     1      43.114 -18.383   2.288  1.00  0.00     0.070 C 
HETATM    2  C   UNL     1      43.127 -17.515   3.522  1.00  0.00     0.037 A 
HETATM    3  N   UNL     1      43.419 -18.170   4.710  1.00  0.00    -0.192 N 
HETATM    4  C   UNL     1      43.547 -17.542   5.893  1.00  0.00     0.725 A 
HETATM    5  N   UNL     1      43.403 -16.181   5.955  1.00  0.00    -0.084 N 
HETATM    6  N   UNL     1      43.664 -15.727   7.201  1.00  0.00    -0.149 NA
HETATM    7  C   UNL     1      43.876 -16.876   7.849  1.00  0.00     0.275 A 
HETATM    8  N   UNL     1      43.825 -18.011   7.082  1.00  0.00    -0.054 NA
HETATM    9  C   UNL     1      43.135 -15.328   4.790  1.00  0.00     0.203 A 
HETATM   10  C   UNL     1      42.926 -16.174   3.527  1.00  0.00     0.062 A 
HETATM   11  H   UNL     1      43.590 -19.172   4.674  1.00  0.00     0.184 HD
ENDROOT
BRANCH  10  12
HETATM   12  C   UNL     1      42.539 -15.390   2.320  1.00  0.00     0.256 C 
HETATM   13  N   UNL     1      41.169 -15.342   2.148  1.00  0.00    -0.323 N 
HETATM   14  H   UNL     1      40.606 -15.920   2.755  1.00  0.00     0.169 HD
HETATM   15  O   UNL     1      43.402 -14.840   1.656  1.00  0.00    -0.267 OA
BRANCH  13  16
HETATM   16  C   UNL     1      40.445 -14.531   1.253  1.00  0.00     0.035 A 
HETATM   17  C   UNL     1      40.106 -14.912  -0.042  1.00  0.00     0.032 A 
HETATM   18  C   UNL     1      39.441 -14.014  -0.885  1.00  0.00     0.039 A 
HETATM   19  C   UNL     1      39.092 -12.735  -0.443  1.00  0.00     0.068 A 
HETATM   20  C   UNL     1      39.415 -12.359   0.858  1.00  0.00     0.039 A 
HETATM   21  C   UNL     1      40.095 -13.250   1.697  1.00  0.00     0.032 A 
BRANCH  19  22
HETATM   22  O   UNL     1      38.455 -11.958  -1.370  1.00  0.00    -0.356 OA
HETATM   23  C   UNL     1      37.541 -12.614  -2.240  1.00  0.00     0.210 C 
ENDBRANCH  19  22
ENDBRANCH  13  16
ENDBRANCH  10  12
BRANCH   9  24
HETATM   24  C   UNL     1      42.002 -14.340   5.104  1.00  0.00    -0.017 A 
HETATM   25  C   UNL     1      42.094 -12.954   4.749  1.00  0.00    -0.017 A 
HETATM   26  C   UNL     1      40.977 -12.114   4.996  1.00  0.00    -0.025 A 
HETATM   27  C   UNL     1      43.236 -12.342   4.172  1.00  0.00     0.013 A 
HETATM   28  C   UNL     1      41.019 -10.752   4.645  1.00  0.00     0.012 A 
HETATM   29  C   UNL     1      39.826 -12.634   5.599  1.00  0.00     0.012 A 
HETATM   30  C   UNL     1      42.155 -10.191   4.069  1.00  0.00     0.001 A 
HETATM   31  C   UNL     1      43.266 -10.985   3.839  1.00  0.00     0.001 A 
HETATM   32  C   UNL     1      39.762 -13.966   5.991  1.00  0.00     0.002 A 
HETATM   33  C   UNL     1      40.843 -14.808   5.760  1.00  0.00     0.010 A 
ENDBRANCH   9  24
TORSDOF 4
ENDMDL
MODEL 2
REMARK VINA RESULT:      -8.1     15.440     17.840
REMARK  4 active torsions:
REMARK  status: ('A' for Active; 'I' for Inactive)
REMARK    1  A    between atoms: C_9  and  C_10 
REMARK    2  A    between atoms: C_20  and  C_21 
REMARK       I    between atoms: C_21  and  N_22 
REMARK    3  A    between atoms: N_22  and  C_23 
REMARK    4  A    between atoms: C_26  and  O_27 
ROOT
HETATM    1  C   UNL     1      46.403 -30.702   4.424  1.00  0.00     0.070 C 
HETATM    2  C   UNL     1      45.270 -30.678   3.428  1.00  0.00     0.037 A 
HETATM    3  N   UNL     1      44.050 -31.143   3.900  1.00  0.00    -0.192 N 
HETATM    4  C   UNL     1      42.917 -31.124   3.175  1.00  0.00     0.725 A 
HETATM    5  N   UNL     1      42.934 -30.607   1.906  1.00  0.00    -0.084 N 
HETATM    6  N   UNL     1      41.690 -30.583   1.380  1.00  0.00    -0.149 NA
HETATM    7  C   UNL     1      40.993 -31.174   2.355  1.00  0.00     0.275 A 
HETATM    8  N   UNL     1      41.704 -31.511   3.476  1.00  0.00    -0.054 NA
HETATM    9  C   UNL     1      44.127 -30.035   1.267  1.00  0.00     0.203 A 
HETATM   10  C   UNL     1      45.361 -30.199   2.163  1.00  0.00     0.062 A 
HETATM   11  H   UNL     1      44.003 -31.473   4.860  1.00  0.00     0.184 HD
ENDROOT
BRANCH  10  12
HETATM   12  C   UNL     1      46.636 -29.743   1.541  1.00  0.00     0.256 C 
HETATM   13  N   UNL     1      47.362 -30.792   1.011  1.00  0.00    -0.323 N 
HETATM   14  H   UNL     1      47.030 -31.727   1.203  1.00  0.00     0.169 HD
HETATM   15  O   UNL     1      46.895 -28.551   1.500  1.00  0.00    -0.267 OA
BRANCH  13  16
HETATM   16  C   UNL     1      48.493 -30.718   0.176  1.00  0.00     0.035 A 
HETATM   17  C   UNL     1      49.787 -31.020   0.590  1.00  0.00     0.032 A 
HETATM   18  C   UNL     1      50.861 -30.855  -0.292  1.00  0.00     0.039 A 
HETATM   19  C   UNL     1      50.657 -30.403  -1.598  1.00  0.00     0.068 A 
HETATM   20  C   UNL     1      49.361 -30.118  -2.020  1.00  0.00     0.039 A 
HETATM   21  C   UNL     1      48.287 -30.267  -1.134  1.00  0.00     0.032 A 
BRANCH  19  22
HETATM   22  O   UNL     1      51.793 -30.278  -2.349  1.00  0.00    -0.356 OA
HETATM   23  C   UNL     1      52.415 -31.483  -2.781  1.00  0.00     0.210 C 
ENDBRANCH  19  22
ENDBRANCH  13  16
ENDBRANCH  10  12
BRANCH   9  24
HETATM   24  C   UNL     1      44.282 -30.584  -0.158  1.00  0.00    -0.017 A 
HETATM   25  C   UNL     1      44.626 -29.732  -1.258  1.00  0.00    -0.017 A 
HETATM   26  C   UNL     1      44.833 -30.320  -2.534  1.00  0.00    -0.025 A 
HETATM   27  C   UNL     1      44.767 -28.323  -1.176  1.00  0.00     0.013 A 
HETATM   28  C   UNL     1      45.190 -29.522  -3.636  1.00  0.00     0.012 A 
HETATM   29  C   UNL     1      44.673 -31.700  -2.706  1.00  0.00     0.012 A 
HETATM   30  C   UNL     1      45.331 -28.143  -3.512  1.00  0.00     0.001 A 
HETATM   31  C   UNL     1      45.113 -27.542  -2.283  1.00  0.00     0.001 A 
HETATM   32  C   UNL     1      44.286 -32.514  -1.648  1.00  0.00     0.002 A 
HETATM   33  C   UNL     1      44.078 -31.962  -0.390  1.00  0.00     0.010 A 
ENDBRANCH   9  24
TORSDOF 4
ENDMDL
MODEL 3
REMARK VINA RESULT:      -8.0      2.554      6.530
REMARK  4 active torsions:
REMARK  status: ('A' for Active; 'I' for Inactive)
REMARK    1  A    between atoms: C_9  and  C_10 
REMARK    2  A    between atoms: C_20  and  C_21 
REMARK       I    between atoms: C_21  and  N_22 
REMARK    3  A    between atoms: N_22  and  C_23 
REMARK    4  A    between atoms: C_26  and  O_27 
ROOT
HETATM    1  C   UNL     1      39.871 -14.557  -0.795  1.00  0.00     0.070 C 
HETATM    2  C   UNL     1      39.978 -13.585   0.353  1.00  0.00     0.037 A 
HETATM    3  N   UNL     1      39.717 -12.258   0.038  1.00  0.00    -0.192 N 
HETATM    4  C   UNL     1      39.692 -11.269   0.949  1.00  0.00     0.725 A 
HETATM    5  N   UNL     1      39.915 -11.560   2.270  1.00  0.00    -0.084 N 
HETATM    6  N   UNL     1      39.751 -10.461   3.038  1.00  0.00    -0.149 NA
HETATM    7  C   UNL     1      39.511  -9.534   2.105  1.00  0.00     0.275 A 
HETATM    8  N   UNL     1      39.456  -9.989   0.814  1.00  0.00    -0.054 NA
HETATM    9  C   UNL     1      40.164 -12.913   2.783  1.00  0.00     0.203 A 
HETATM   10  C   UNL     1      40.253 -13.928   1.635  1.00  0.00     0.062 A 
HETATM   11  H   UNL     1      39.488 -12.032  -0.927  1.00  0.00     0.184 HD
ENDROOT
BRANCH  10  12
HETATM   12  C   UNL     1      40.615 -15.308   2.063  1.00  0.00     0.256 C 
HETATM   13  N   UNL     1      41.977 -15.528   2.017  1.00  0.00    -0.323 N 
HETATM   14  H   UNL     1      42.548 -14.808   1.598  1.00  0.00     0.169 HD
HETATM   15  O   UNL     1      39.741 -16.068   2.451  1.00  0.00    -0.267 OA
BRANCH  13  16
HETATM   16  C   UNL     1      42.688 -16.625   2.540  1.00  0.00     0.035 A 
HETATM   17  C   UNL     1      42.806 -17.854   1.898  1.00  0.00     0.032 A 
HETATM   18  C   UNL     1      43.478 -18.911   2.524  1.00  0.00     0.039 A 
HETATM   19  C   UNL     1      44.051 -18.750   3.789  1.00  0.00     0.068 A 
HETATM   20  C   UNL     1      43.950 -17.516   4.425  1.00  0.00     0.039 A 
HETATM   21  C   UNL     1      43.264 -16.463   3.807  1.00  0.00     0.032 A 
BRANCH  19  22
HETATM   22  O   UNL     1      44.668 -19.864   4.287  1.00  0.00    -0.356 OA
HETATM   23  C   UNL     1      43.960 -20.605   5.273  1.00  0.00     0.210 C 
ENDBRANCH  19  22
ENDBRANCH  13  16
ENDBRANCH  10  12
BRANCH   9  24
HETATM   24  C   UNL     1      41.366 -12.906   3.737  1.00  0.00    -0.017 A 
HETATM   25  C   UNL     1      41.413 -13.755   4.893  1.00  0.00    -0.017 A 
HETATM   26  C   UNL     1      42.590 -13.757   5.687  1.00  0.00    -0.025 A 
HETATM   27  C   UNL     1      40.355 -14.598   5.320  1.00  0.00     0.013 A 
HETATM   28  C   UNL     1      42.683 -14.588   6.818  1.00  0.00     0.012 A 
HETATM   29  C   UNL     1      43.664 -12.922   5.354  1.00  0.00     0.012 A 
HETATM   30  C   UNL     1      41.628 -15.411   7.197  1.00  0.00     0.001 A 
HETATM   31  C   UNL     1      40.460 -15.411   6.451  1.00  0.00     0.001 A 
HETATM   32  C   UNL     1      43.592 -12.062   4.265  1.00  0.00     0.002 A 
HETATM   33  C   UNL     1      42.451 -12.042   3.472  1.00  0.00     0.010 A 
ENDBRANCH   9  24
TORSDOF 4
ENDMDL
MODEL 4
REMARK VINA RESULT:      -7.9      2.518      6.137
REMARK  4 active torsions:
REMARK  status: ('A' for Active; 'I' for Inactive)
REMARK    1  A    between atoms: C_9  and  C_10 
REMARK    2  A    between atoms: C_20  and  C_21 
REMARK       I    between atoms: C_21  and  N_22 
REMARK    3  A    between atoms: N_22  and  C_23 
REMARK    4  A    between atoms: C_26  and  O_27 
ROOT
HETATM    1  C   UNL     1      40.228 -14.149  -0.656  1.00  0.00     0.070 C 
HETATM    2  C   UNL     1      39.968 -13.489   0.675  1.00  0.00     0.037 A 
HETATM    3  N   UNL     1      39.584 -12.156   0.616  1.00  0.00    -0.192 N 
HETATM    4  C   UNL     1      39.241 -11.433   1.698  1.00  0.00     0.725 A 
HETATM    5  N   UNL     1      39.244 -12.023   2.935  1.00  0.00    -0.084 N 
HETATM    6  N   UNL     1      38.777 -11.172   3.874  1.00  0.00    -0.149 NA
HETATM    7  C   UNL     1      38.591 -10.068   3.144  1.00  0.00     0.275 A 
HETATM    8  N   UNL     1      38.853 -10.189   1.805  1.00  0.00    -0.054 NA
HETATM    9  C   UNL     1      39.583 -13.433   3.173  1.00  0.00     0.203 A 
HETATM   10  C   UNL     1      40.038 -14.114   1.876  1.00  0.00     0.062 A 
HETATM   11  H   UNL     1      39.515 -11.718  -0.299  1.00  0.00     0.184 HD
ENDROOT
BRANCH  10  12
HETATM   12  C   UNL     1      40.505 -15.518   2.052  1.00  0.00     0.256 C 
HETATM   13  N   UNL     1      41.846 -15.584   2.376  1.00  0.00    -0.323 N 
HETATM   14  H   UNL     1      42.374 -14.723   2.337  1.00  0.00     0.169 HD
HETATM   15  O   UNL     1      39.706 -16.436   1.959  1.00  0.00    -0.267 OA
BRANCH  13  16
HETATM   16  C   UNL     1      42.569 -16.709   2.815  1.00  0.00     0.035 A 
HETATM   17  C   UNL     1      42.825 -17.827   2.026  1.00  0.00     0.032 A 
HETATM   18  C   UNL     1      43.496 -18.929   2.568  1.00  0.00     0.039 A 
HETATM   19  C   UNL     1      43.933 -18.924   3.895  1.00  0.00     0.068 A 
HETATM   20  C   UNL     1      43.695 -17.800   4.681  1.00  0.00     0.039 A 
HETATM   21  C   UNL     1      43.009 -16.703   4.145  1.00  0.00     0.032 A 
BRANCH  19  22
HETATM   22  O   UNL     1      44.566 -20.067   4.298  1.00  0.00    -0.356 OA
HETATM   23  C   UNL     1      43.925 -20.837   5.307  1.00  0.00     0.210 C 
ENDBRANCH  19  22
ENDBRANCH  13  16
ENDBRANCH  10  12
BRANCH   9  24
HETATM   24  C   UNL     1      40.564 -13.552   4.347  1.00  0.00    -0.017 A 
HETATM   25  C   UNL     1      41.813 -12.848   4.358  1.00  0.00    -0.017 A 
HETATM   26  C   UNL     1      42.635 -12.939   5.511  1.00  0.00    -0.025 A 
HETATM   27  C   UNL     1      42.307 -12.063   3.284  1.00  0.00     0.013 A 
HETATM   28  C   UNL     1      43.859 -12.249   5.569  1.00  0.00     0.012 A 
HETATM   29  C   UNL     1      42.236 -13.727   6.598  1.00  0.00     0.012 A 
HETATM   30  C   UNL     1      44.304 -11.479   4.499  1.00  0.00     0.001 A 
HETATM   31  C   UNL     1      43.531 -11.391   3.353  1.00  0.00     0.001 A 
HETATM   32  C   UNL     1      41.051 -14.451   6.561  1.00  0.00     0.002 A 
HETATM   33  C   UNL     1      40.229 -14.377   5.443  1.00  0.00     0.010 A 
ENDBRANCH   9  24
TORSDOF 4
ENDMDL
MODEL 5
REMARK VINA RESULT:      -7.7     16.236     19.209
REMARK  4 active torsions:
REMARK  status: ('A' for Active; 'I' for Inactive)
REMARK    1  A    between atoms: C_9  and  C_10 
REMARK    2  A    between atoms: C_20  and  C_21 
REMARK       I    between atoms: C_21  and  N_22 
REMARK    3  A    between atoms: N_22  and  C_23 
REMARK    4  A    between atoms: C_26  and  O_27 
ROOT
HETATM    1  C   UNL     1      48.974 -33.166  -5.259  1.00  0.00     0.070 C 
HETATM    2  C   UNL     1      47.603 -32.537  -5.260  1.00  0.00     0.037 A 
HETATM    3  N   UNL     1      47.017 -32.384  -6.509  1.00  0.00    -0.192 N 
HETATM    4  C   UNL     1      45.771 -31.912  -6.692  1.00  0.00     0.725 A 
HETATM    5  N   UNL     1      45.009 -31.571  -5.605  1.00  0.00    -0.084 N 
HETATM    6  N   UNL     1      43.762 -31.216  -5.983  1.00  0.00    -0.149 NA
HETATM    7  C   UNL     1      43.873 -31.289  -7.314  1.00  0.00     0.275 A 
HETATM    8  N   UNL     1      45.083 -31.721  -7.789  1.00  0.00    -0.054 NA
HETATM    9  C   UNL     1      45.457 -31.709  -4.213  1.00  0.00     0.203 A 
HETATM   10  C   UNL     1      46.918 -32.172  -4.149  1.00  0.00     0.062 A 
HETATM   11  H   UNL     1      47.542 -32.689  -7.325  1.00  0.00     0.184 HD
ENDROOT
BRANCH  10  12
HETATM   12  C   UNL     1      47.484 -32.230  -2.772  1.00  0.00     0.256 C 
HETATM   13  N   UNL     1      48.149 -31.067  -2.432  1.00  0.00    -0.323 N 
HETATM   14  H   UNL     1      48.285 -30.383  -3.163  1.00  0.00     0.169 HD
HETATM   15  O   UNL     1      47.280 -33.212  -2.076  1.00  0.00    -0.267 OA
BRANCH  13  16
HETATM   16  C   UNL     1      48.619 -30.688  -1.161  1.00  0.00     0.035 A 
HETATM   17  C   UNL     1      49.957 -30.731  -0.781  1.00  0.00     0.032 A 
HETATM   18  C   UNL     1      50.326 -30.397   0.527  1.00  0.00     0.039 A 
HETATM   19  C   UNL     1      49.370 -30.000   1.466  1.00  0.00     0.068 A 
HETATM   20  C   UNL     1      48.033 -29.939   1.082  1.00  0.00     0.039 A 
HETATM   21  C   UNL     1      47.660 -30.289  -0.221  1.00  0.00     0.032 A 
BRANCH  19  22
HETATM   22  O   UNL     1      49.865 -29.711   2.707  1.00  0.00    -0.356 OA
HETATM   23  C   UNL     1      49.002 -29.012   3.597  1.00  0.00     0.210 C 
ENDBRANCH  19  22
ENDBRANCH  13  16
ENDBRANCH  10  12
BRANCH   9  24
HETATM   24  C   UNL     1      45.148 -30.427  -3.427  1.00  0.00    -0.017 A 
HETATM   25  C   UNL     1      44.555 -30.470  -2.122  1.00  0.00    -0.017 A 
HETATM   26  C   UNL     1      44.371 -29.252  -1.418  1.00  0.00    -0.025 A 
HETATM   27  C   UNL     1      44.118 -31.653  -1.471  1.00  0.00     0.013 A 
HETATM   28  C   UNL     1      43.810 -29.252  -0.128  1.00  0.00     0.012 A 
HETATM   29  C   UNL     1      44.739 -28.037  -2.008  1.00  0.00     0.012 A 
HETATM   30  C   UNL     1      43.405 -30.436   0.482  1.00  0.00     0.001 A 
HETATM   31  C   UNL     1      43.553 -31.636  -0.193  1.00  0.00     0.001 A 
HETATM   32  C   UNL     1      45.263 -27.995  -3.295  1.00  0.00     0.002 A 
HETATM   33  C   UNL     1      45.452 -29.175  -4.004  1.00  0.00     0.010 A 
ENDBRANCH   9  24
TORSDOF 4
ENDMDL
MODEL 6
REMARK VINA RESULT:      -7.6      3.024      6.374
REMARK  4 active torsions:
REMARK  status: ('A' for Active; 'I' for Inactive)
REMARK    1  A    between atoms: C_9  and  C_10 
REMARK    2  A    between atoms: C_20  and  C_21 
REMARK       I    between atoms: C_21  and  N_22 
REMARK    3  A    between atoms: N_22  and  C_23 
REMARK    4  A    between atoms: C_26  and  O_27 
ROOT
HETATM    1  C   UNL     1      41.192 -11.165   0.465  1.00  0.00     0.070 C 
HETATM    2  C   UNL     1      41.249 -10.885   1.946  1.00  0.00     0.037 A 
HETATM    3  N   UNL     1      41.260  -9.542   2.300  1.00  0.00    -0.192 N 
HETATM    4  C   UNL     1      41.233  -9.109   3.573  1.00  0.00     0.725 A 
HETATM    5  N   UNL     1      41.173 -10.019   4.596  1.00  0.00    -0.084 N 
HETATM    6  N   UNL     1      41.053  -9.395   5.788  1.00  0.00    -0.149 NA
HETATM    7  C   UNL     1      41.129  -8.115   5.411  1.00  0.00     0.275 A 
HETATM    8  N   UNL     1      41.229  -7.896   4.062  1.00  0.00    -0.054 NA
HETATM    9  C   UNL     1      41.112 -11.474   4.400  1.00  0.00     0.203 A 
HETATM   10  C   UNL     1      41.239 -11.833   2.914  1.00  0.00     0.062 A 
HETATM   11  H   UNL     1      41.241  -8.851   1.554  1.00  0.00     0.184 HD
ENDROOT
BRANCH  10  12
HETATM   12  C   UNL     1      41.298 -13.297   2.640  1.00  0.00     0.256 C 
HETATM   13  N   UNL     1      42.590 -13.782   2.677  1.00  0.00    -0.323 N 
HETATM   14  H   UNL     1      43.336 -13.106   2.758  1.00  0.00     0.169 HD
HETATM   15  O   UNL     1      40.262 -13.921   2.472  1.00  0.00    -0.267 OA
BRANCH  13  16
HETATM   16  C   UNL     1      43.001 -15.129   2.674  1.00  0.00     0.035 A 
HETATM   17  C   UNL     1      43.024 -15.933   1.539  1.00  0.00     0.032 A 
HETATM   18  C   UNL     1      43.386 -17.282   1.642  1.00  0.00     0.039 A 
HETATM   19  C   UNL     1      43.743 -17.839   2.873  1.00  0.00     0.068 A 
HETATM   20  C   UNL     1      43.738 -17.031   4.007  1.00  0.00     0.039 A 
HETATM   21  C   UNL     1      43.361 -15.687   3.908  1.00  0.00     0.032 A 
BRANCH  19  22
HETATM   22  O   UNL     1      44.065 -19.167   2.833  1.00  0.00    -0.356 OA
HETATM   23  C   UNL     1      43.939 -19.897   4.048  1.00  0.00     0.210 C 
ENDBRANCH  19  22
ENDBRANCH  13  16
ENDBRANCH  10  12
BRANCH   9  24
HETATM   24  C   UNL     1      42.116 -12.177   5.326  1.00  0.00    -0.017 A 
HETATM   25  C   UNL     1      41.814 -13.436   5.942  1.00  0.00    -0.017 A 
HETATM   26  C   UNL     1      42.818 -14.069   6.721  1.00  0.00    -0.025 A 
HETATM   27  C   UNL     1      40.567 -14.106   5.845  1.00  0.00     0.013 A 
HETATM   28  C   UNL     1      42.570 -15.314   7.327  1.00  0.00     0.012 A 
HETATM   29  C   UNL     1      44.063 -13.453   6.898  1.00  0.00     0.012 A 
HETATM   30  C   UNL     1      41.337 -15.945   7.197  1.00  0.00     0.001 A 
HETATM   31  C   UNL     1      40.333 -15.338   6.461  1.00  0.00     0.001 A 
HETATM   32  C   UNL     1      44.331 -12.207   6.344  1.00  0.00     0.002 A 
HETATM   33  C   UNL     1      43.363 -11.567   5.578  1.00  0.00     0.010 A 
ENDBRANCH   9  24
TORSDOF 4
ENDMDL
MODEL 7
REMARK VINA RESULT:      -7.4      2.816      6.767
REMARK  4 active torsions:
REMARK  status: ('A' for Active; 'I' for Inactive)
REMARK    1  A    between atoms: C_9  and  C_10 
REMARK    2  A    between atoms: C_20  and  C_21 
REMARK       I    between atoms: C_21  and  N_22 
REMARK    3  A    between atoms: N_22  and  C_23 
REMARK    4  A    between atoms: C_26  and  O_27 
ROOT
HETATM    1  C   UNL     1      40.165 -14.210  -1.367  1.00  0.00     0.070 C 
HETATM    2  C   UNL     1      40.110 -12.965  -0.517  1.00  0.00     0.037 A 
HETATM    3  N   UNL     1      39.957 -11.774  -1.213  1.00  0.00    -0.192 N 
HETATM    4  C   UNL     1      39.814 -10.577  -0.615  1.00  0.00     0.725 A 
HETATM    5  N   UNL     1      39.797 -10.502   0.753  1.00  0.00    -0.084 N 
HETATM    6  N   UNL     1      39.546  -9.239   1.162  1.00  0.00    -0.149 NA
HETATM    7  C   UNL     1      39.505  -8.598  -0.011  1.00  0.00     0.275 A 
HETATM    8  N   UNL     1      39.654  -9.383  -1.124  1.00  0.00    -0.054 NA
HETATM    9  C   UNL     1      39.904 -11.666   1.642  1.00  0.00     0.203 A 
HETATM   10  C   UNL     1      40.149 -12.950   0.838  1.00  0.00     0.062 A 
HETATM   11  H   UNL     1      39.905 -11.816  -2.228  1.00  0.00     0.184 HD
ENDROOT
BRANCH  10  12
HETATM   12  C   UNL     1      40.380 -14.162   1.673  1.00  0.00     0.256 C 
HETATM   13  N   UNL     1      41.705 -14.551   1.672  1.00  0.00    -0.323 N 
HETATM   14  H   UNL     1      42.327 -14.072   1.036  1.00  0.00     0.169 HD
HETATM   15  O   UNL     1      39.451 -14.650   2.297  1.00  0.00    -0.267 OA
BRANCH  13  16
HETATM   16  C   UNL     1      42.319 -15.509   2.501  1.00  0.00     0.035 A 
HETATM   17  C   UNL     1      42.491 -16.845   2.152  1.00  0.00     0.032 A 
HETATM   18  C   UNL     1      43.053 -17.742   3.067  1.00  0.00     0.039 A 
HETATM   19  C   UNL     1      43.464 -17.316   4.333  1.00  0.00     0.068 A 
HETATM   20  C   UNL     1      43.310 -15.976   4.678  1.00  0.00     0.039 A 
HETATM   21  C   UNL     1      42.732 -15.081   3.770  1.00  0.00     0.032 A 
BRANCH  19  22
HETATM   22  O   UNL     1      43.988 -18.296   5.130  1.00  0.00    -0.356 OA
HETATM   23  C   UNL     1      44.453 -19.473   4.481  1.00  0.00     0.210 C 
ENDBRANCH  19  22
ENDBRANCH  13  16
ENDBRANCH  10  12
BRANCH   9  24
HETATM   24  C   UNL     1      40.924 -11.393   2.755  1.00  0.00    -0.017 A 
HETATM   25  C   UNL     1      40.513 -11.138   4.105  1.00  0.00    -0.017 A 
HETATM   26  C   UNL     1      41.512 -10.974   5.101  1.00  0.00    -0.025 A 
HETATM   27  C   UNL     1      39.165 -11.023   4.531  1.00  0.00     0.013 A 
HETATM   28  C   UNL     1      41.151 -10.742   6.440  1.00  0.00     0.012 A 
HETATM   29  C   UNL     1      42.867 -11.034   4.753  1.00  0.00     0.012 A 
HETATM   30  C   UNL     1      39.816 -10.648   6.821  1.00  0.00     0.001 A 
HETATM   31  C   UNL     1      38.822 -10.782   5.865  1.00  0.00     0.001 A 
HETATM   32  C   UNL     1      43.260 -11.226   3.434  1.00  0.00     0.002 A 
HETATM   33  C   UNL     1      42.301 -11.390   2.442  1.00  0.00     0.010 A 
ENDBRANCH   9  24
TORSDOF 4
ENDMDL
MODEL 8
REMARK VINA RESULT:      -7.3      2.460      3.456
REMARK  4 active torsions:
REMARK  status: ('A' for Active; 'I' for Inactive)
REMARK    1  A    between atoms: C_9  and  C_10 
REMARK    2  A    between atoms: C_20  and  C_21 
REMARK       I    between atoms: C_21  and  N_22 
REMARK    3  A    between atoms: N_22  and  C_23 
REMARK    4  A    between atoms: C_26  and  O_27 
ROOT
HETATM    1  C   UNL     1      42.520 -15.892   4.175  1.00  0.00     0.070 C 
HETATM    2  C   UNL     1      42.521 -14.476   4.696  1.00  0.00     0.037 A 
HETATM    3  N   UNL     1      43.352 -14.241   5.783  1.00  0.00    -0.192 N 
HETATM    4  C   UNL     1      43.535 -13.024   6.329  1.00  0.00     0.725 A 
HETATM    5  N   UNL     1      42.893 -11.939   5.792  1.00  0.00    -0.084 N 
HETATM    6  N   UNL     1      43.278 -10.800   6.409  1.00  0.00    -0.149 NA
HETATM    7  C   UNL     1      44.087 -11.288   7.355  1.00  0.00     0.275 A 
HETATM    8  N   UNL     1      44.280 -12.644   7.334  1.00  0.00    -0.054 NA
HETATM    9  C   UNL     1      42.013 -12.001   4.618  1.00  0.00     0.203 A 
HETATM   10  C   UNL     1      41.822 -13.450   4.151  1.00  0.00     0.062 A 
HETATM   11  H   UNL     1      43.885 -15.022   6.156  1.00  0.00     0.184 HD
ENDROOT
BRANCH  10  12
HETATM   12  C   UNL     1      40.853 -13.611   3.031  1.00  0.00     0.256 C 
HETATM   13  N   UNL     1      41.373 -13.179   1.826  1.00  0.00    -0.323 N 
HETATM   14  H   UNL     1      42.265 -12.705   1.851  1.00  0.00     0.169 HD
HETATM   15  O   UNL     1      39.770 -14.132   3.241  1.00  0.00    -0.267 OA
BRANCH  13  16
HETATM   16  C   UNL     1      40.833 -13.371   0.540  1.00  0.00     0.035 A 
HETATM   17  C   UNL     1      40.245 -14.557   0.112  1.00  0.00     0.032 A 
HETATM   18  C   UNL     1      39.792 -14.679  -1.207  1.00  0.00     0.039 A 
HETATM   19  C   UNL     1      39.907 -13.617  -2.108  1.00  0.00     0.068 A 
HETATM   20  C   UNL     1      40.479 -12.423  -1.676  1.00  0.00     0.039 A 
HETATM   21  C   UNL     1      40.947 -12.305  -0.362  1.00  0.00     0.032 A 
BRANCH  19  22
HETATM   22  O   UNL     1      39.435 -13.873  -3.365  1.00  0.00    -0.356 OA
HETATM   23  C   UNL     1      38.271 -14.686  -3.462  1.00  0.00     0.210 C 
ENDBRANCH  19  22
ENDBRANCH  13  16
ENDBRANCH  10  12
BRANCH   9  24
HETATM   24  C   UNL     1      40.713 -11.230   4.888  1.00  0.00    -0.017 A 
HETATM   25  C   UNL     1      40.246 -10.209   3.995  1.00  0.00    -0.017 A 
HETATM   26  C   UNL     1      38.996  -9.593   4.262  1.00  0.00    -0.025 A 
HETATM   27  C   UNL     1      40.952  -9.749   2.853  1.00  0.00     0.013 A 
HETATM   28  C   UNL     1      38.493  -8.601   3.401  1.00  0.00     0.012 A 
HETATM   29  C   UNL     1      38.256  -9.964   5.392  1.00  0.00     0.012 A 
HETATM   30  C   UNL     1      39.210  -8.185   2.283  1.00  0.00     0.001 A 
HETATM   31  C   UNL     1      40.444  -8.755   2.013  1.00  0.00     0.001 A 
HETATM   32  C   UNL     1      38.739 -10.914   6.283  1.00  0.00     0.002 A 
HETATM   33  C   UNL     1      39.961 -11.532   6.043  1.00  0.00     0.010 A 
ENDBRANCH   9  24
TORSDOF 4
ENDMDL
MODEL 9
REMARK VINA RESULT:      -7.3      3.612      7.891
REMARK  4 active torsions:
REMARK  status: ('A' for Active; 'I' for Inactive)
REMARK    1  A    between atoms: C_9  and  C_10 
REMARK    2  A    between atoms: C_20  and  C_21 
REMARK       I    between atoms: C_21  and  N_22 
REMARK    3  A    between atoms: N_22  and  C_23 
REMARK    4  A    between atoms: C_26  and  O_27 
ROOT
HETATM    1  C   UNL     1      39.002 -14.650  -2.671  1.00  0.00     0.070 C 
HETATM    2  C   UNL     1      38.428 -13.334  -2.207  1.00  0.00     0.037 A 
HETATM    3  N   UNL     1      37.439 -12.794  -3.018  1.00  0.00    -0.192 N 
HETATM    4  C   UNL     1      36.766 -11.669  -2.720  1.00  0.00     0.725 A 
HETATM    5  N   UNL     1      37.037 -11.008  -1.550  1.00  0.00    -0.084 N 
HETATM    6  N   UNL     1      36.195  -9.965  -1.382  1.00  0.00    -0.149 NA
HETATM    7  C   UNL     1      35.503 -10.012  -2.524  1.00  0.00     0.275 A 
HETATM    8  N   UNL     1      35.814 -11.047  -3.367  1.00  0.00    -0.054 NA
HETATM    9  C   UNL     1      38.020 -11.462  -0.558  1.00  0.00     0.203 A 
HETATM   10  C   UNL     1      38.774 -12.700  -1.060  1.00  0.00     0.062 A 
HETATM   11  H   UNL     1      37.180 -13.303  -3.860  1.00  0.00     0.184 HD
ENDROOT
BRANCH  10  12
HETATM   12  C   UNL     1      39.869 -13.159  -0.159  1.00  0.00     0.256 C 
HETATM   13  N   UNL     1      39.386 -13.832   0.947  1.00  0.00    -0.323 N 
HETATM   14  H   UNL     1      38.385 -13.832   1.087  1.00  0.00     0.169 HD
HETATM   15  O   UNL     1      41.032 -12.968  -0.476  1.00  0.00    -0.267 OA
BRANCH  13  16
HETATM   16  C   UNL     1      40.122 -14.577   1.887  1.00  0.00     0.035 A 
HETATM   17  C   UNL     1      40.736 -15.794   1.607  1.00  0.00     0.032 A 
HETATM   18  C   UNL     1      41.392 -16.498   2.623  1.00  0.00     0.039 A 
HETATM   19  C   UNL     1      41.457 -15.992   3.924  1.00  0.00     0.068 A 
HETATM   20  C   UNL     1      40.859 -14.766   4.202  1.00  0.00     0.039 A 
HETATM   21  C   UNL     1      40.187 -14.068   3.191  1.00  0.00     0.032 A 
BRANCH  19  22
HETATM   22  O   UNL     1      42.120 -16.785   4.819  1.00  0.00    -0.356 OA
HETATM   23  C   UNL     1      43.322 -17.398   4.369  1.00  0.00     0.210 C 
ENDBRANCH  19  22
ENDBRANCH  13  16
ENDBRANCH  10  12
BRANCH   9  24
HETATM   24  C   UNL     1      38.912 -10.291  -0.120  1.00  0.00    -0.017 A 
HETATM   25  C   UNL     1      39.076  -9.948   1.262  1.00  0.00    -0.017 A 
HETATM   26  C   UNL     1      39.979  -8.906   1.601  1.00  0.00    -0.025 A 
HETATM   27  C   UNL     1      38.387 -10.568   2.336  1.00  0.00     0.013 A 
HETATM   28  C   UNL     1      40.183  -8.551   2.947  1.00  0.00     0.012 A 
HETATM   29  C   UNL     1      40.668  -8.218   0.595  1.00  0.00     0.012 A 
HETATM   30  C   UNL     1      39.497  -9.192   3.974  1.00  0.00     0.001 A 
HETATM   31  C   UNL     1      38.593 -10.196   3.668  1.00  0.00     0.001 A 
HETATM   32  C   UNL     1      40.464  -8.518  -0.747  1.00  0.00     0.002 A 
HETATM   33  C   UNL     1      39.585  -9.534  -1.103  1.00  0.00     0.010 A 
ENDBRANCH   9  24
TORSDOF 4
ENDMDL
MODEL 10
REMARK VINA RESULT:      -7.2      9.087     11.719
REMARK  4 active torsions:
REMARK  status: ('A' for Active; 'I' for Inactive)
REMARK    1  A    between atoms: C_9  and  C_10 
REMARK    2  A    between atoms: C_20  and  C_21 
REMARK       I    between atoms: C_21  and  N_22 
REMARK    3  A    between atoms: N_22  and  C_23 
REMARK    4  A    between atoms: C_26  and  O_27 
ROOT
HETATM    1  C   UNL     1      41.627  -5.977   7.093  1.00  0.00     0.070 C 
HETATM    2  C   UNL     1      42.105  -7.078   8.007  1.00  0.00     0.037 A 
HETATM    3  N   UNL     1      42.709  -8.158   7.376  1.00  0.00    -0.192 N 
HETATM    4  C   UNL     1      43.260  -9.192   8.038  1.00  0.00     0.725 A 
HETATM    5  N   UNL     1      43.254  -9.198   9.408  1.00  0.00    -0.084 N 
HETATM    6  N   UNL     1      43.937 -10.261   9.886  1.00  0.00    -0.149 NA
HETATM    7  C   UNL     1      44.252 -10.890   8.749  1.00  0.00     0.275 A 
HETATM    8  N   UNL     1      43.865 -10.263   7.594  1.00  0.00    -0.054 NA
HETATM    9  C   UNL     1      42.697  -8.119  10.233  1.00  0.00     0.203 A 
HETATM   10  C   UNL     1      42.026  -7.050   9.360  1.00  0.00     0.062 A 
HETATM   11  H   UNL     1      42.778  -8.142   6.362  1.00  0.00     0.184 HD
ENDROOT
BRANCH  10  12
HETATM   12  C   UNL     1      41.338  -5.974  10.126  1.00  0.00     0.256 C 
HETATM   13  N   UNL     1      39.990  -6.231  10.289  1.00  0.00    -0.323 N 
HETATM   14  H   UNL     1      39.606  -7.019   9.787  1.00  0.00     0.169 HD
HETATM   15  O   UNL     1      41.986  -5.041  10.571  1.00  0.00    -0.267 OA
BRANCH  13  16
HETATM   16  C   UNL     1      39.082  -5.553  11.124  1.00  0.00     0.035 A 
HETATM   17  C   UNL     1      38.491  -4.335  10.805  1.00  0.00     0.032 A 
HETATM   18  C   UNL     1      37.649  -3.701  11.727  1.00  0.00     0.039 A 
HETATM   19  C   UNL     1      37.375  -4.280  12.968  1.00  0.00     0.068 A 
HETATM   20  C   UNL     1      37.951  -5.508  13.282  1.00  0.00     0.039 A 
HETATM   21  C   UNL     1      38.807  -6.135  12.369  1.00  0.00     0.032 A 
BRANCH  19  22
HETATM   22  O   UNL     1      36.546  -3.551  13.775  1.00  0.00    -0.356 OA
HETATM   23  C   UNL     1      36.806  -3.594  15.173  1.00  0.00     0.210 C 
ENDBRANCH  19  22
ENDBRANCH  13  16
ENDBRANCH  10  12
BRANCH   9  24
HETATM   24  C   UNL     1      41.809  -8.702  11.341  1.00  0.00    -0.017 A 
HETATM   25  C   UNL     1      41.958  -8.305  12.711  1.00  0.00    -0.017 A 
HETATM   26  C   UNL     1      41.051  -8.822  13.672  1.00  0.00    -0.025 A 
HETATM   27  C   UNL     1      42.967  -7.431  13.194  1.00  0.00     0.013 A 
HETATM   28  C   UNL     1      41.151  -8.444  15.023  1.00  0.00     0.012 A 
HETATM   29  C   UNL     1      40.052  -9.723  13.281  1.00  0.00     0.012 A 
HETATM   30  C   UNL     1      42.147  -7.573  15.455  1.00  0.00     0.001 A 
HETATM   31  C   UNL     1      43.059  -7.072  14.541  1.00  0.00     0.001 A 
HETATM   32  C   UNL     1      39.945 -10.147  11.962  1.00  0.00     0.002 A 
HETATM   33  C   UNL     1      40.823  -9.654  11.003  1.00  0.00     0.010 A 
ENDBRANCH   9  24
TORSDOF 4
ENDMDL
