MODEL 1
REMARK VINA RESULT:      -8.1      0.000      0.000
REMARK  5 active torsions:
REMARK  status: ('A' for Active; 'I' for Inactive)
REMARK    1  A    between atoms: C_2  and  O_3 
REMARK    2  A    between atoms: C_4  and  C_5 
REMARK    3  A    between atoms: C_5  and  O_6 
REMARK    4  A    between atoms: C_9  and  C_10 
REMARK    5  A    between atoms: C_22  and  O_23 
ROOT
HETATM    1  C   UNL     1      40.137 -13.629   3.972  1.00  0.00     0.047 C 
HETATM    2  C   UNL     1      40.679 -15.073   4.019  1.00  0.00     0.073 C 
HETATM    3  C   UNL     1      42.067 -15.257   3.282  1.00  0.00     0.133 C 
HETATM    4  C   UNL     1      43.246 -15.941   4.034  1.00  0.00     0.074 C 
HETATM    5  C   UNL     1      43.074 -15.933   5.503  1.00  0.00     0.030 A 
HETATM    6  C   UNL     1      41.868 -15.748   6.133  1.00  0.00     0.042 A 
HETATM    7  N   UNL     1      42.114 -15.777   7.477  1.00  0.00    -0.279 N 
HETATM    8  H   UNL     1      41.459 -15.678   8.246  1.00  0.00     0.189 HD
HETATM    9  N   UNL     1      43.420 -15.964   7.765  1.00  0.00    -0.149 NA
HETATM   10  C   UNL     1      43.973 -16.046   6.562  1.00  0.00     0.190 A 
HETATM   11  C   UNL     1      40.554 -15.582   5.491  1.00  0.00     0.097 C 
ENDROOT
BRANCH   4  12
HETATM   12  C   UNL     1      43.428 -17.401   3.622  1.00  0.00    -0.047 A 
HETATM   13  C   UNL     1      43.793 -18.417   4.520  1.00  0.00     0.027 A 
HETATM   14  C   UNL     1      43.904 -19.740   4.087  1.00  0.00     0.011 A 
HETATM   15 BR   UNL     1      44.407 -21.086   5.316  1.00  0.00    -0.051 Br
HETATM   16  C   UNL     1      43.647 -20.079   2.761  1.00  0.00     0.019 A 
HETATM   17  C   UNL     1      43.280 -19.085   1.858  1.00  0.00     0.002 A 
HETATM   18  C   UNL     1      43.171 -17.759   2.285  1.00  0.00     0.008 A 
ENDBRANCH   4  12
BRANCH   3  19
HETATM   19  C   UNL     1      42.620 -13.936   2.779  1.00  0.00     0.266 C 
HETATM   20  O   UNL     1      42.484 -13.508   1.640  1.00  0.00    -0.265 OA
BRANCH  19  21
HETATM   21  O   UNL     1      43.281 -13.286   3.778  1.00  0.00    -0.326 OA
HETATM   22  C   UNL     1      43.594 -11.923   3.490  1.00  0.00     0.213 C 
ENDBRANCH  19  21
ENDBRANCH   3  19
BRANCH   2  23
HETATM   23  O   UNL     1      39.701 -15.820   3.248  1.00  0.00    -0.389 OA
HETATM   24  H   UNL     1      38.843 -15.364   3.311  1.00  0.00     0.210 HD
ENDBRANCH   2  23
BRANCH  10  25
HETATM   25  O   UNL     1      45.290 -16.221   6.550  1.00  0.00    -0.343 OA
HETATM   26  H   UNL     1      45.485 -16.640   7.404  1.00  0.00     0.219 HD
ENDBRANCH  10  25
TORSDOF 5
ENDMDL
MODEL 2
REMARK VINA RESULT:      -7.8      2.144      3.177
REMARK  5 active torsions:
REMARK  status: ('A' for Active; 'I' for Inactive)
REMARK    1  A    between atoms: C_2  and  O_3 
REMARK    2  A    between atoms: C_4  and  C_5 
REMARK    3  A    between atoms: C_5  and  O_6 
REMARK    4  A    between atoms: C_9  and  C_10 
REMARK    5  A    between atoms: C_22  and  O_23 
ROOT
HETATM    1  C   UNL     1      42.045 -10.404   3.669  1.00  0.00     0.047 C 
HETATM    2  C   UNL     1      41.978 -11.907   3.329  1.00  0.00     0.073 C 
HETATM    3  C   UNL     1      43.214 -12.738   3.867  1.00  0.00     0.133 C 
HETATM    4  C   UNL     1      42.961 -14.023   4.709  1.00  0.00     0.074 C 
HETATM    5  C   UNL     1      41.604 -14.071   5.294  1.00  0.00     0.030 A 
HETATM    6  C   UNL     1      40.544 -13.328   4.835  1.00  0.00     0.042 A 
HETATM    7  N   UNL     1      39.477 -13.620   5.637  1.00  0.00    -0.279 N 
HETATM    8  H   UNL     1      38.529 -13.262   5.590  1.00  0.00     0.189 HD
HETATM    9  N   UNL     1      39.781 -14.512   6.604  1.00  0.00    -0.149 NA
HETATM   10  C   UNL     1      41.065 -14.758   6.379  1.00  0.00     0.190 A 
HETATM   11  C   UNL     1      40.543 -12.414   3.681  1.00  0.00     0.097 C 
ENDROOT
BRANCH   4  12
HETATM   12  C   UNL     1      43.131 -15.298   3.886  1.00  0.00    -0.047 A 
HETATM   13  C   UNL     1      43.539 -16.524   4.438  1.00  0.00     0.027 A 
HETATM   14  C   UNL     1      43.636 -17.664   3.637  1.00  0.00     0.011 A 
HETATM   15 BR   UNL     1      44.197 -19.299   4.405  1.00  0.00    -0.051 Br
HETATM   16  C   UNL     1      43.322 -17.611   2.282  1.00  0.00     0.019 A 
HETATM   17  C   UNL     1      42.912 -16.406   1.720  1.00  0.00     0.002 A 
HETATM   18  C   UNL     1      42.817 -15.260   2.514  1.00  0.00     0.008 A 
ENDBRANCH   4  12
BRANCH   3  19
HETATM   19  C   UNL     1      44.149 -11.883   4.703  1.00  0.00     0.266 C 
HETATM   20  O   UNL     1      45.079 -11.223   4.258  1.00  0.00    -0.265 OA
BRANCH  19  21
HETATM   21  O   UNL     1      43.800 -11.944   6.018  1.00  0.00    -0.326 OA
HETATM   22  C   UNL     1      44.838 -11.564   6.922  1.00  0.00     0.213 C 
ENDBRANCH  19  21
ENDBRANCH   3  19
BRANCH   2  23
HETATM   23  O   UNL     1      42.070 -11.925   1.880  1.00  0.00    -0.389 OA
HETATM   24  H   UNL     1      41.992 -11.010   1.554  1.00  0.00     0.210 HD
ENDBRANCH   2  23
BRANCH  10  25
HETATM   25  O   UNL     1      41.637 -15.615   7.217  1.00  0.00    -0.343 OA
HETATM   26  H   UNL     1      42.345 -15.101   7.641  1.00  0.00     0.219 HD
ENDBRANCH  10  25
TORSDOF 5
ENDMDL
MODEL 3
REMARK VINA RESULT:      -7.7      2.936      4.173
REMARK  5 active torsions:
REMARK  status: ('A' for Active; 'I' for Inactive)
REMARK    1  A    between atoms: C_2  and  O_3 
REMARK    2  A    between atoms: C_4  and  C_5 
REMARK    3  A    between atoms: C_5  and  O_6 
REMARK    4  A    between atoms: C_9  and  C_10 
REMARK    5  A    between atoms: C_22  and  O_23 
ROOT
HETATM    1  C   UNL     1      38.552 -11.639   1.913  1.00  0.00     0.047 C 
HETATM    2  C   UNL     1      39.495 -12.668   2.571  1.00  0.00     0.073 C 
HETATM    3  C   UNL     1      40.645 -13.183   1.613  1.00  0.00     0.133 C 
HETATM    4  C   UNL     1      42.123 -13.134   2.099  1.00  0.00     0.074 C 
HETATM    5  C   UNL     1      42.329 -12.192   3.220  1.00  0.00     0.030 A 
HETATM    6  C   UNL     1      41.321 -11.732   4.030  1.00  0.00     0.042 A 
HETATM    7  N   UNL     1      41.892 -10.869   4.923  1.00  0.00    -0.279 N 
HETATM    8  H   UNL     1      41.451 -10.346   5.673  1.00  0.00     0.189 HD
HETATM    9  N   UNL     1      43.222 -10.732   4.738  1.00  0.00    -0.149 NA
HETATM   10  C   UNL     1      43.455 -11.530   3.705  1.00  0.00     0.190 A 
HETATM   11  C   UNL     1      39.901 -12.115   3.975  1.00  0.00     0.097 C 
ENDROOT
BRANCH   4  12
HETATM   12  C   UNL     1      42.624 -14.497   2.571  1.00  0.00    -0.047 A 
HETATM   13  C   UNL     1      42.852 -14.810   3.921  1.00  0.00     0.027 A 
HETATM   14  C   UNL     1      43.272 -16.089   4.292  1.00  0.00     0.011 A 
HETATM   15 BR   UNL     1      43.580 -16.479   6.116  1.00  0.00    -0.051 Br
HETATM   16  C   UNL     1      43.465 -17.080   3.333  1.00  0.00     0.019 A 
HETATM   17  C   UNL     1      43.239 -16.789   1.991  1.00  0.00     0.002 A 
HETATM   18  C   UNL     1      42.823 -15.510   1.614  1.00  0.00     0.008 A 
ENDBRANCH   4  12
BRANCH   3  19
HETATM   19  C   UNL     1      40.632 -12.463   0.276  1.00  0.00     0.266 C 
HETATM   20  O   UNL     1      41.227 -11.420   0.038  1.00  0.00    -0.265 OA
BRANCH  19  21
HETATM   21  O   UNL     1      39.876 -13.149  -0.626  1.00  0.00    -0.326 OA
HETATM   22  C   UNL     1      39.880 -14.565  -0.443  1.00  0.00     0.213 C 
ENDBRANCH  19  21
ENDBRANCH   3  19
BRANCH   2  23
HETATM   23  O   UNL     1      38.626 -13.804   2.819  1.00  0.00    -0.389 OA
HETATM   24  H   UNL     1      38.802 -14.482   2.142  1.00  0.00     0.210 HD
ENDBRANCH   2  23
BRANCH  10  25
HETATM   25  O   UNL     1      44.717 -11.577   3.292  1.00  0.00    -0.343 OA
HETATM   26  H   UNL     1      44.754 -12.362   2.720  1.00  0.00     0.219 HD
ENDBRANCH  10  25
TORSDOF 5
ENDMDL
MODEL 4
REMARK VINA RESULT:      -7.2      2.780      3.892
REMARK  5 active torsions:
REMARK  status: ('A' for Active; 'I' for Inactive)
REMARK    1  A    between atoms: C_2  and  O_3 
REMARK    2  A    between atoms: C_4  and  C_5 
REMARK    3  A    between atoms: C_5  and  O_6 
REMARK    4  A    between atoms: C_9  and  C_10 
REMARK    5  A    between atoms: C_22  and  O_23 
ROOT
HETATM    1  C   UNL     1      39.121 -11.729   5.789  1.00  0.00     0.047 C 
HETATM    2  C   UNL     1      40.173 -12.815   5.484  1.00  0.00     0.073 C 
HETATM    3  C   UNL     1      40.506 -12.966   3.944  1.00  0.00     0.133 C 
HETATM    4  C   UNL     1      41.991 -12.927   3.477  1.00  0.00     0.074 C 
HETATM    5  C   UNL     1      42.891 -12.301   4.469  1.00  0.00     0.030 A 
HETATM    6  C   UNL     1      42.582 -12.152   5.799  1.00  0.00     0.042 A 
HETATM    7  N   UNL     1      43.639 -11.512   6.382  1.00  0.00    -0.279 N 
HETATM    8  H   UNL     1      43.761 -11.242   7.353  1.00  0.00     0.189 HD
HETATM    9  N   UNL     1      44.624 -11.225   5.505  1.00  0.00    -0.149 NA
HETATM   10  C   UNL     1      44.145 -11.701   4.364  1.00  0.00     0.190 A 
HETATM   11  C   UNL     1      41.363 -12.620   6.478  1.00  0.00     0.097 C 
ENDROOT
BRANCH   4  12
HETATM   12  C   UNL     1      42.547 -14.322   3.197  1.00  0.00    -0.047 A 
HETATM   13  C   UNL     1      42.812 -15.263   4.206  1.00  0.00     0.027 A 
HETATM   14  C   UNL     1      43.283 -16.537   3.880  1.00  0.00     0.011 A 
HETATM   15 BR   UNL     1      43.640 -17.781   5.259  1.00  0.00    -0.051 Br
HETATM   16  C   UNL     1      43.490 -16.902   2.552  1.00  0.00     0.019 A 
HETATM   17  C   UNL     1      43.228 -15.983   1.541  1.00  0.00     0.002 A 
HETATM   18  C   UNL     1      42.761 -14.705   1.860  1.00  0.00     0.008 A 
ENDBRANCH   4  12
BRANCH   3  19
HETATM   19  C   UNL     1      39.790 -11.922   3.105  1.00  0.00     0.266 C 
HETATM   20  O   UNL     1      40.199 -10.786   2.903  1.00  0.00    -0.265 OA
BRANCH  19  21
HETATM   21  O   UNL     1      38.632 -12.433   2.600  1.00  0.00    -0.326 OA
HETATM   22  C   UNL     1      37.960 -11.572   1.680  1.00  0.00     0.213 C 
ENDBRANCH  19  21
ENDBRANCH   3  19
BRANCH   2  23
HETATM   23  O   UNL     1      39.508 -14.042   5.883  1.00  0.00    -0.389 OA
HETATM   24  H   UNL     1      38.923 -14.327   5.158  1.00  0.00     0.210 HD
ENDBRANCH   2  23
BRANCH  10  25
HETATM   25  O   UNL     1      44.926 -11.536   3.303  1.00  0.00    -0.343 OA
HETATM   26  H   UNL     1      45.649 -10.970   3.622  1.00  0.00     0.219 HD
ENDBRANCH  10  25
TORSDOF 5
ENDMDL
MODEL 5
REMARK VINA RESULT:      -7.0      3.455      5.785
REMARK  5 active torsions:
REMARK  status: ('A' for Active; 'I' for Inactive)
REMARK    1  A    between atoms: C_2  and  O_3 
REMARK    2  A    between atoms: C_4  and  C_5 
REMARK    3  A    between atoms: C_5  and  O_6 
REMARK    4  A    between atoms: C_9  and  C_10 
REMARK    5  A    between atoms: C_22  and  O_23 
ROOT
HETATM    1  C   UNL     1      42.660 -16.794   1.528  1.00  0.00     0.047 C 
HETATM    2  C   UNL     1      42.766 -15.488   2.341  1.00  0.00     0.073 C 
HETATM    3  C   UNL     1      41.467 -14.586   2.270  1.00  0.00     0.133 C 
HETATM    4  C   UNL     1      40.814 -14.083   3.590  1.00  0.00     0.074 C 
HETATM    5  C   UNL     1      41.215 -14.878   4.771  1.00  0.00     0.030 A 
HETATM    6  C   UNL     1      42.331 -15.677   4.814  1.00  0.00     0.042 A 
HETATM    7  N   UNL     1      42.351 -16.265   6.048  1.00  0.00    -0.279 N 
HETATM    8  H   UNL     1      43.031 -16.912   6.433  1.00  0.00     0.189 HD
HETATM    9  N   UNL     1      41.303 -15.899   6.816  1.00  0.00    -0.149 NA
HETATM   10  C   UNL     1      40.634 -15.075   6.022  1.00  0.00     0.190 A 
HETATM   11  C   UNL     1      43.335 -15.847   3.752  1.00  0.00     0.097 C 
ENDROOT
BRANCH   4  12
HETATM   12  C   UNL     1      41.170 -12.630   3.897  1.00  0.00    -0.047 A 
HETATM   13  C   UNL     1      40.257 -11.709   4.438  1.00  0.00     0.027 A 
HETATM   14  C   UNL     1      40.658 -10.404   4.733  1.00  0.00     0.011 A 
HETATM   15 BR   UNL     1      39.405  -9.183   5.451  1.00  0.00    -0.051 Br
HETATM   16  C   UNL     1      41.969  -9.993   4.507  1.00  0.00     0.019 A 
HETATM   17  C   UNL     1      42.887 -10.894   3.976  1.00  0.00     0.002 A 
HETATM   18  C   UNL     1      42.492 -12.200   3.675  1.00  0.00     0.008 A 
ENDBRANCH   4  12
BRANCH   3  19
HETATM   19  C   UNL     1      40.350 -15.263   1.497  1.00  0.00     0.266 C 
HETATM   20  O   UNL     1      39.538 -16.043   1.978  1.00  0.00    -0.265 OA
BRANCH  19  21
HETATM   21  O   UNL     1      40.370 -14.870   0.192  1.00  0.00    -0.326 OA
HETATM   22  C   UNL     1      40.600 -13.474  -0.000  1.00  0.00     0.213 C 
ENDBRANCH  19  21
ENDBRANCH   3  19
BRANCH   2  23
HETATM   23  O   UNL     1      43.815 -14.754   1.656  1.00  0.00    -0.389 OA
HETATM   24  H   UNL     1      44.539 -14.590   2.286  1.00  0.00     0.210 HD
ENDBRANCH   2  23
BRANCH  10  25
HETATM   25  O   UNL     1      39.520 -14.565   6.536  1.00  0.00    -0.343 OA
HETATM   26  H   UNL     1      38.846 -14.720   5.852  1.00  0.00     0.219 HD
ENDBRANCH  10  25
TORSDOF 5
ENDMDL
MODEL 6
REMARK VINA RESULT:      -6.9      3.150      4.811
REMARK  5 active torsions:
REMARK  status: ('A' for Active; 'I' for Inactive)
REMARK    1  A    between atoms: C_2  and  O_3 
REMARK    2  A    between atoms: C_4  and  C_5 
REMARK    3  A    between atoms: C_5  and  O_6 
REMARK    4  A    between atoms: C_9  and  C_10 
REMARK    5  A    between atoms: C_22  and  O_23 
ROOT
HETATM    1  C   UNL     1      41.455 -10.586   3.576  1.00  0.00     0.047 C 
HETATM    2  C   UNL     1      42.128 -11.968   3.447  1.00  0.00     0.073 C 
HETATM    3  C   UNL     1      41.405 -13.109   4.272  1.00  0.00     0.133 C 
HETATM    4  C   UNL     1      41.014 -14.436   3.558  1.00  0.00     0.074 C 
HETATM    5  C   UNL     1      40.954 -14.303   2.087  1.00  0.00     0.030 A 
HETATM    6  C   UNL     1      41.565 -13.294   1.383  1.00  0.00     0.042 A 
HETATM    7  N   UNL     1      41.263 -13.492   0.064  1.00  0.00    -0.279 N 
HETATM    8  H   UNL     1      41.548 -12.945  -0.742  1.00  0.00     0.189 HD
HETATM    9  N   UNL     1      40.480 -14.572  -0.135  1.00  0.00    -0.149 NA
HETATM   10  C   UNL     1      40.303 -15.034   1.095  1.00  0.00     0.190 A 
HETATM   11  C   UNL     1      42.411 -12.223   1.932  1.00  0.00     0.097 C 
ENDROOT
BRANCH   4  12
HETATM   12  C   UNL     1      41.996 -15.567   3.857  1.00  0.00    -0.047 A 
HETATM   13  C   UNL     1      42.147 -16.696   3.035  1.00  0.00     0.027 A 
HETATM   14  C   UNL     1      43.093 -17.677   3.343  1.00  0.00     0.011 A 
HETATM   15 BR   UNL     1      43.267 -19.190   2.224  1.00  0.00    -0.051 Br
HETATM   16  C   UNL     1      43.910 -17.550   4.464  1.00  0.00     0.019 A 
HETATM   17  C   UNL     1      43.777 -16.436   5.287  1.00  0.00     0.002 A 
HETATM   18  C   UNL     1      42.829 -15.453   4.986  1.00  0.00     0.008 A 
ENDBRANCH   4  12
BRANCH   3  19
HETATM   19  C   UNL     1      40.130 -12.611   4.929  1.00  0.00     0.266 C 
HETATM   20  O   UNL     1      39.037 -12.553   4.380  1.00  0.00    -0.265 OA
BRANCH  19  21
HETATM   21  O   UNL     1      40.371 -12.250   6.220  1.00  0.00    -0.326 OA
HETATM   22  C   UNL     1      39.573 -11.161   6.687  1.00  0.00     0.213 C 
ENDBRANCH  19  21
ENDBRANCH   3  19
BRANCH   2  23
HETATM   23  O   UNL     1      43.423 -11.766   4.073  1.00  0.00    -0.389 OA
HETATM   24  H   UNL     1      43.285 -11.339   4.938  1.00  0.00     0.210 HD
ENDBRANCH   2  23
BRANCH  10  25
HETATM   25  O   UNL     1      39.538 -16.115   1.196  1.00  0.00    -0.343 OA
HETATM   26  H   UNL     1      38.752 -15.810   1.681  1.00  0.00     0.219 HD
ENDBRANCH  10  25
TORSDOF 5
ENDMDL
MODEL 7
REMARK VINA RESULT:      -6.9      3.790      5.701
REMARK  5 active torsions:
REMARK  status: ('A' for Active; 'I' for Inactive)
REMARK    1  A    between atoms: C_2  and  O_3 
REMARK    2  A    between atoms: C_4  and  C_5 
REMARK    3  A    between atoms: C_5  and  O_6 
REMARK    4  A    between atoms: C_9  and  C_10 
REMARK    5  A    between atoms: C_22  and  O_23 
ROOT
HETATM    1  C   UNL     1      41.764 -15.690   7.209  1.00  0.00     0.047 C 
HETATM    2  C   UNL     1      41.127 -15.095   5.936  1.00  0.00     0.073 C 
HETATM    3  C   UNL     1      41.845 -13.783   5.417  1.00  0.00     0.133 C 
HETATM    4  C   UNL     1      42.291 -13.696   3.928  1.00  0.00     0.074 C 
HETATM    5  C   UNL     1      42.401 -15.021   3.281  1.00  0.00     0.030 A 
HETATM    6  C   UNL     1      41.794 -16.158   3.753  1.00  0.00     0.042 A 
HETATM    7  N   UNL     1      42.147 -17.176   2.913  1.00  0.00    -0.279 N 
HETATM    8  H   UNL     1      41.880 -18.155   2.951  1.00  0.00     0.189 HD
HETATM    9  N   UNL     1      42.961 -16.770   1.916  1.00  0.00    -0.149 NA
HETATM   10  C   UNL     1      43.104 -15.475   2.166  1.00  0.00     0.190 A 
HETATM   11  C   UNL     1      40.904 -16.262   4.922  1.00  0.00     0.097 C 
ENDROOT
BRANCH   4  12
HETATM   12  C   UNL     1      41.324 -12.872   3.080  1.00  0.00    -0.047 A 
HETATM   13  C   UNL     1      41.744 -11.971   2.087  1.00  0.00     0.027 A 
HETATM   14  C   UNL     1      40.807 -11.277   1.318  1.00  0.00     0.011 A 
HETATM   15 BR   UNL     1      41.400 -10.064  -0.005  1.00  0.00    -0.051 Br
HETATM   16  C   UNL     1      39.442 -11.470   1.514  1.00  0.00     0.019 A 
HETATM   17  C   UNL     1      39.009 -12.362   2.491  1.00  0.00     0.002 A 
HETATM   18  C   UNL     1      39.941 -13.056   3.267  1.00  0.00     0.008 A 
ENDBRANCH   4  12
BRANCH   3  19
HETATM   19  C   UNL     1      43.085 -13.457   6.231  1.00  0.00     0.266 C 
HETATM   20  O   UNL     1      44.032 -14.215   6.399  1.00  0.00    -0.265 OA
BRANCH  19  21
HETATM   21  O   UNL     1      43.000 -12.196   6.740  1.00  0.00    -0.326 OA
HETATM   22  C   UNL     1      44.120 -11.803   7.533  1.00  0.00     0.213 C 
ENDBRANCH  19  21
ENDBRANCH   3  19
BRANCH   2  23
HETATM   23  O   UNL     1      39.807 -14.690   6.385  1.00  0.00    -0.389 OA
HETATM   24  H   UNL     1      39.373 -15.456   6.801  1.00  0.00     0.210 HD
ENDBRANCH   2  23
BRANCH  10  25
HETATM   25  O   UNL     1      43.889 -14.813   1.324  1.00  0.00    -0.343 OA
HETATM   26  H   UNL     1      44.012 -13.944   1.742  1.00  0.00     0.219 HD
ENDBRANCH  10  25
TORSDOF 5
ENDMDL
MODEL 8
REMARK VINA RESULT:      -6.8      2.509      3.569
REMARK  5 active torsions:
REMARK  status: ('A' for Active; 'I' for Inactive)
REMARK    1  A    between atoms: C_2  and  O_3 
REMARK    2  A    between atoms: C_4  and  C_5 
REMARK    3  A    between atoms: C_5  and  O_6 
REMARK    4  A    between atoms: C_9  and  C_10 
REMARK    5  A    between atoms: C_22  and  O_23 
ROOT
HETATM    1  C   UNL     1      38.982 -11.901   2.402  1.00  0.00     0.047 C 
HETATM    2  C   UNL     1      39.730 -13.000   3.185  1.00  0.00     0.073 C 
HETATM    3  C   UNL     1      41.156 -13.347   2.593  1.00  0.00     0.133 C 
HETATM    4  C   UNL     1      42.395 -13.345   3.535  1.00  0.00     0.074 C 
HETATM    5  C   UNL     1      42.171 -12.579   4.780  1.00  0.00     0.030 A 
HETATM    6  C   UNL     1      40.929 -12.262   5.273  1.00  0.00     0.042 A 
HETATM    7  N   UNL     1      41.127 -11.533   6.411  1.00  0.00    -0.279 N 
HETATM    8  H   UNL     1      40.437 -11.136   7.041  1.00  0.00     0.189 HD
HETATM    9  N   UNL     1      42.435 -11.348   6.690  1.00  0.00    -0.149 NA
HETATM   10  C   UNL     1      43.037 -11.978   5.691  1.00  0.00     0.190 A 
HETATM   11  C   UNL     1      39.629 -12.657   4.706  1.00  0.00     0.097 C 
ENDROOT
BRANCH   4  12
HETATM   12  C   UNL     1      42.806 -14.755   3.955  1.00  0.00    -0.047 A 
HETATM   13  C   UNL     1      42.831 -15.847   3.071  1.00  0.00     0.027 A 
HETATM   14  C   UNL     1      43.256 -17.104   3.509  1.00  0.00     0.011 A 
HETATM   15 BR   UNL     1      43.271 -18.557   2.300  1.00  0.00    -0.051 Br
HETATM   16  C   UNL     1      43.670 -17.297   4.824  1.00  0.00     0.019 A 
HETATM   17  C   UNL     1      43.655 -16.225   5.712  1.00  0.00     0.002 A 
HETATM   18  C   UNL     1      43.228 -14.966   5.281  1.00  0.00     0.008 A 
ENDBRANCH   4  12
BRANCH   3  19
HETATM   19  C   UNL     1      41.526 -12.434   1.436  1.00  0.00     0.266 C 
HETATM   20  O   UNL     1      42.051 -11.335   1.552  1.00  0.00    -0.265 OA
BRANCH  19  21
HETATM   21  O   UNL     1      41.200 -13.018   0.249  1.00  0.00    -0.326 OA
HETATM   22  C   UNL     1      40.953 -12.097  -0.813  1.00  0.00     0.213 C 
ENDBRANCH  19  21
ENDBRANCH   3  19
BRANCH   2  23
HETATM   23  O   UNL     1      38.902 -14.175   2.979  1.00  0.00    -0.389 OA
HETATM   24  H   UNL     1      38.040 -14.025   3.407  1.00  0.00     0.210 HD
ENDBRANCH   2  23
BRANCH  10  25
HETATM   25  O   UNL     1      44.365 -11.941   5.709  1.00  0.00    -0.343 OA
HETATM   26  H   UNL     1      44.629 -12.862   5.871  1.00  0.00     0.219 HD
ENDBRANCH  10  25
TORSDOF 5
ENDMDL
MODEL 9
REMARK VINA RESULT:      -6.7     13.570     15.460
REMARK  5 active torsions:
REMARK  status: ('A' for Active; 'I' for Inactive)
REMARK    1  A    between atoms: C_2  and  O_3 
REMARK    2  A    between atoms: C_4  and  C_5 
REMARK    3  A    between atoms: C_5  and  O_6 
REMARK    4  A    between atoms: C_9  and  C_10 
REMARK    5  A    between atoms: C_22  and  O_23 
ROOT
HETATM    1  C   UNL     1      48.102 -29.261   3.020  1.00  0.00     0.047 C 
HETATM    2  C   UNL     1      47.226 -28.886   1.807  1.00  0.00     0.073 C 
HETATM    3  C   UNL     1      47.449 -29.818   0.547  1.00  0.00     0.133 C 
HETATM    4  C   UNL     1      46.219 -30.480  -0.139  1.00  0.00     0.074 C 
HETATM    5  C   UNL     1      45.028 -30.528   0.736  1.00  0.00     0.030 A 
HETATM    6  C   UNL     1      44.855 -29.732   1.841  1.00  0.00     0.042 A 
HETATM    7  N   UNL     1      43.658 -30.083   2.400  1.00  0.00    -0.279 N 
HETATM    8  H   UNL     1      43.205 -29.701   3.225  1.00  0.00     0.189 HD
HETATM    9  N   UNL     1      43.037 -31.073   1.725  1.00  0.00    -0.149 NA
HETATM   10  C   UNL     1      43.885 -31.326   0.737  1.00  0.00     0.190 A 
HETATM   11  C   UNL     1      45.765 -28.678   2.319  1.00  0.00     0.097 C 
ENDROOT
BRANCH   4  12
HETATM   12  C   UNL     1      45.800 -29.747  -1.412  1.00  0.00    -0.047 A 
HETATM   13  C   UNL     1      45.326 -30.403  -2.560  1.00  0.00     0.027 A 
HETATM   14  C   UNL     1      44.921 -29.670  -3.678  1.00  0.00     0.011 A 
HETATM   15 BR   UNL     1      44.295 -30.580  -5.214  1.00  0.00    -0.051 Br
HETATM   16  C   UNL     1      44.970 -28.279  -3.674  1.00  0.00     0.019 A 
HETATM   17  C   UNL     1      45.434 -27.613  -2.543  1.00  0.00     0.002 A 
HETATM   18  C   UNL     1      45.844 -28.340  -1.423  1.00  0.00     0.008 A 
ENDBRANCH   4  12
BRANCH   3  19
HETATM   19  C   UNL     1      48.407 -30.957   0.848  1.00  0.00     0.266 C 
HETATM   20  O   UNL     1      48.083 -32.036   1.329  1.00  0.00    -0.265 OA
BRANCH  19  21
HETATM   21  O   UNL     1      49.678 -30.614   0.497  1.00  0.00    -0.326 OA
HETATM   22  C   UNL     1      49.784 -29.962  -0.769  1.00  0.00     0.213 C 
ENDBRANCH  19  21
ENDBRANCH   3  19
BRANCH   2  23
HETATM   23  O   UNL     1      47.717 -27.571   1.437  1.00  0.00    -0.389 OA
HETATM   24  H   UNL     1      47.398 -27.362   0.541  1.00  0.00     0.210 HD
ENDBRANCH   2  23
BRANCH  10  25
HETATM   25  O   UNL     1      43.520 -32.295  -0.095  1.00  0.00    -0.343 OA
HETATM   26  H   UNL     1      42.653 -32.010  -0.431  1.00  0.00     0.219 HD
ENDBRANCH  10  25
TORSDOF 5
ENDMDL
MODEL 10
REMARK VINA RESULT:      -6.5      9.456     11.366
REMARK  5 active torsions:
REMARK  status: ('A' for Active; 'I' for Inactive)
REMARK    1  A    between atoms: C_2  and  O_3 
REMARK    2  A    between atoms: C_4  and  C_5 
REMARK    3  A    between atoms: C_5  and  O_6 
REMARK    4  A    between atoms: C_9  and  C_10 
REMARK    5  A    between atoms: C_22  and  O_23 
ROOT
HETATM    1  C   UNL     1      41.183  -8.542  14.913  1.00  0.00     0.047 C 
HETATM    2  C   UNL     1      41.092  -8.630  13.376  1.00  0.00     0.073 C 
HETATM    3  C   UNL     1      41.901  -7.496  12.623  1.00  0.00     0.133 C 
HETATM    4  C   UNL     1      42.909  -7.892  11.505  1.00  0.00     0.074 C 
HETATM    5  C   UNL     1      43.330  -9.307  11.584  1.00  0.00     0.030 A 
HETATM    6  C   UNL     1      42.634 -10.278  12.259  1.00  0.00     0.042 A 
HETATM    7  N   UNL     1      43.343 -11.439  12.128  1.00  0.00    -0.279 N 
HETATM    8  H   UNL     1      43.126 -12.361  12.493  1.00  0.00     0.189 HD
HETATM    9  N   UNL     1      44.473 -11.281  11.407  1.00  0.00    -0.149 NA
HETATM   10  C   UNL     1      44.444  -9.991  11.101  1.00  0.00     0.190 A 
HETATM   11  C   UNL     1      41.352 -10.114  12.964  1.00  0.00     0.097 C 
ENDROOT
BRANCH   4  12
HETATM   12  C   UNL     1      42.334  -7.681  10.105  1.00  0.00    -0.047 A 
HETATM   13  C   UNL     1      41.367  -8.524   9.534  1.00  0.00     0.027 A 
HETATM   14  C   UNL     1      40.852  -8.253   8.264  1.00  0.00     0.011 A 
HETATM   15 BR   UNL     1      39.556  -9.409   7.516  1.00  0.00    -0.051 Br
HETATM   16  C   UNL     1      41.280  -7.140   7.545  1.00  0.00     0.019 A 
HETATM   17  C   UNL     1      42.235  -6.292   8.098  1.00  0.00     0.002 A 
HETATM   18  C   UNL     1      42.757  -6.560   9.366  1.00  0.00     0.008 A 
ENDBRANCH   4  12
BRANCH   3  19
HETATM   19  C   UNL     1      42.687  -6.627  13.589  1.00  0.00     0.266 C 
HETATM   20  O   UNL     1      43.754  -6.939  14.102  1.00  0.00    -0.265 OA
BRANCH  19  21
HETATM   21  O   UNL     1      42.043  -5.443  13.794  1.00  0.00    -0.326 OA
HETATM   22  C   UNL     1      42.343  -4.434  12.830  1.00  0.00     0.213 C 
ENDBRANCH  19  21
ENDBRANCH   3  19
BRANCH   2  23
HETATM   23  O   UNL     1      39.687  -8.376  13.112  1.00  0.00    -0.389 OA
HETATM   24  H   UNL     1      39.538  -8.430  12.151  1.00  0.00     0.210 HD
ENDBRANCH   2  23
BRANCH  10  25
HETATM   25  O   UNL     1      45.474  -9.551  10.387  1.00  0.00    -0.343 OA
HETATM   26  H   UNL     1      45.076  -8.946   9.738  1.00  0.00     0.219 HD
ENDBRANCH  10  25
TORSDOF 5
ENDMDL
