MODEL 1
REMARK VINA RESULT:      -8.6      0.000      0.000
REMARK  7 active torsions:
REMARK  status: ('A' for Active; 'I' for Inactive)
REMARK    1  A    between atoms: C_2  and  N_3 
REMARK    2  A    between atoms: C_2  and  C_10 
REMARK    3  A    between atoms: C_10  and  N_11 
REMARK       I    between atoms: N_11  and  C_12 
REMARK       I    between atoms: C_12  and  N_13 
REMARK    4  A    between atoms: N_13  and  C_14 
REMARK    5  A    between atoms: C_14  and  C_15 
REMARK    6  A    between atoms: C_18  and  N_19 
REMARK       I    between atoms: N_19  and  C_20 
REMARK    7  A    between atoms: C_20  and  C_21 
ROOT
HETATM    1  N   UNL     1      43.733 -13.661   6.308  1.00  0.00    -0.341 N 
HETATM    2  C   UNL     1      43.946 -12.306   6.303  1.00  0.00     0.316 C 
HETATM    3  N   UNL     1      45.043 -11.946   7.026  1.00  0.00    -0.339 N 
HETATM    4  O   UNL     1      43.184 -11.526   5.748  1.00  0.00    -0.248 OA
HETATM    5  H   UNL     1      44.535 -14.241   6.518  1.00  0.00     0.164 HD
HETATM    6  H   UNL     1      45.712 -12.639   7.319  1.00  0.00     0.164 HD
ENDROOT
BRANCH   3   7
HETATM    7  C   UNL     1      45.422 -10.556   7.188  1.00  0.00     0.162 C 
BRANCH   7   8
HETATM    8  C   UNL     1      44.900  -9.902   8.445  1.00  0.00    -0.040 A 
HETATM    9  C   UNL     1      44.067  -8.777   8.444  1.00  0.00     0.011 A 
HETATM   10  C   UNL     1      43.570  -8.242   9.641  1.00  0.00     0.030 A 
HETATM   11  C   UNL     1      43.884  -8.833  10.865  1.00  0.00     0.035 A 
HETATM   12  C   UNL     1      44.714  -9.956  10.876  1.00  0.00     0.030 A 
HETATM   13  C   UNL     1      45.215 -10.485   9.681  1.00  0.00     0.011 A 
BRANCH  11  14
HETATM   14  N   UNL     1      43.395  -8.384  12.105  1.00  0.00    -0.321 N 
HETATM   15  C   UNL     1      42.413  -8.946  12.900  1.00  0.00     0.279 C 
HETATM   16  O   UNL     1      41.746  -9.936  12.616  1.00  0.00    -0.265 OA
HETATM   17  H   UNL     1      43.823  -7.550  12.496  1.00  0.00     0.169 HD
BRANCH  15  18
HETATM   18  C   UNL     1      42.238  -8.229  14.152  1.00  0.00     0.142 A 
HETATM   19  O   UNL     1      41.317  -8.682  15.064  1.00  0.00    -0.317 OA
HETATM   20  C   UNL     1      41.347  -7.830  16.121  1.00  0.00     0.143 A 
HETATM   21  C   UNL     1      42.273  -6.836  15.914  1.00  0.00     0.027 A 
HETATM   22  C   UNL     1      42.849  -7.091  14.646  1.00  0.00     0.045 A 
ENDBRANCH  15  18
ENDBRANCH  11  14
ENDBRANCH   7   8
ENDBRANCH   3   7
BRANCH   1  23
HETATM   23  C   UNL     1      42.637 -14.231   5.542  1.00  0.00     0.162 C 
BRANCH  23  24
HETATM   24  C   UNL     1      42.317 -15.748   5.823  1.00  0.00     0.136 C 
HETATM   25  C   UNL     1      40.818 -16.068   5.788  1.00  0.00     0.048 C 
HETATM   26  C   UNL     1      42.896 -16.112   7.207  1.00  0.00     0.048 C 
BRANCH  24  27
HETATM   27  N   UNL     1      43.065 -16.635   4.737  1.00  0.00    -0.061 N 
HETATM   28  H   UNL     1      43.898 -16.090   4.476  1.00  0.00     0.280 HD
HETATM   29  C   UNL     1      43.585 -17.974   5.250  1.00  0.00     0.236 C 
HETATM   30  C   UNL     1      44.481 -18.619   4.200  1.00  0.00     0.028 C 
HETATM   31  C   UNL     1      43.752 -18.808   2.878  1.00  0.00     0.003 C 
HETATM   32  C   UNL     1      43.162 -17.493   2.397  1.00  0.00     0.028 C 
HETATM   33  C   UNL     1      42.271 -16.850   3.452  1.00  0.00     0.236 C 
ENDBRANCH  24  27
ENDBRANCH  23  24
ENDBRANCH   1  23
TORSDOF 7
ENDMDL
MODEL 2
REMARK VINA RESULT:      -8.5      1.257      1.878
REMARK  7 active torsions:
REMARK  status: ('A' for Active; 'I' for Inactive)
REMARK    1  A    between atoms: C_2  and  N_3 
REMARK    2  A    between atoms: C_2  and  C_10 
REMARK    3  A    between atoms: C_10  and  N_11 
REMARK       I    between atoms: N_11  and  C_12 
REMARK       I    between atoms: C_12  and  N_13 
REMARK    4  A    between atoms: N_13  and  C_14 
REMARK    5  A    between atoms: C_14  and  C_15 
REMARK    6  A    between atoms: C_18  and  N_19 
REMARK       I    between atoms: N_19  and  C_20 
REMARK    7  A    between atoms: C_20  and  C_21 
ROOT
HETATM    1  N   UNL     1      42.918 -12.959   4.800  1.00  0.00    -0.341 N 
HETATM    2  C   UNL     1      43.789 -12.726   5.834  1.00  0.00     0.316 C 
HETATM    3  N   UNL     1      44.349 -11.485   5.777  1.00  0.00    -0.339 N 
HETATM    4  O   UNL     1      44.057 -13.578   6.669  1.00  0.00    -0.248 OA
HETATM    5  H   UNL     1      42.531 -12.142   4.346  1.00  0.00     0.164 HD
HETATM    6  H   UNL     1      43.969 -10.780   5.166  1.00  0.00     0.164 HD
ENDROOT
BRANCH   3   7
HETATM    7  C   UNL     1      45.332 -11.051   6.749  1.00  0.00     0.162 C 
BRANCH   7   8
HETATM    8  C   UNL     1      44.756 -10.375   7.971  1.00  0.00    -0.040 A 
HETATM    9  C   UNL     1      43.437  -9.911   8.049  1.00  0.00     0.011 A 
HETATM   10  C   UNL     1      42.942  -9.336   9.228  1.00  0.00     0.030 A 
HETATM   11  C   UNL     1      43.750  -9.230  10.360  1.00  0.00     0.035 A 
HETATM   12  C   UNL     1      45.066  -9.691  10.291  1.00  0.00     0.030 A 
HETATM   13  C   UNL     1      45.563 -10.258   9.112  1.00  0.00     0.011 A 
BRANCH  11  14
HETATM   14  N   UNL     1      43.317  -8.705  11.591  1.00  0.00    -0.321 N 
HETATM   15  C   UNL     1      42.796  -9.378  12.681  1.00  0.00     0.279 C 
HETATM   16  O   UNL     1      42.569 -10.583  12.732  1.00  0.00    -0.265 OA
HETATM   17  H   UNL     1      43.413  -7.702  11.725  1.00  0.00     0.169 HD
BRANCH  15  18
HETATM   18  C   UNL     1      42.535  -8.493  13.804  1.00  0.00     0.142 A 
HETATM   19  O   UNL     1      41.542  -8.814  14.696  1.00  0.00    -0.317 OA
HETATM   20  C   UNL     1      41.501  -7.822  15.624  1.00  0.00     0.143 A 
HETATM   21  C   UNL     1      42.452  -6.867  15.351  1.00  0.00     0.027 A 
HETATM   22  C   UNL     1      43.120  -7.298  14.180  1.00  0.00     0.045 A 
ENDBRANCH  15  18
ENDBRANCH  11  14
ENDBRANCH   7   8
ENDBRANCH   3   7
BRANCH   1  23
HETATM   23  C   UNL     1      42.186 -14.213   4.730  1.00  0.00     0.162 C 
BRANCH  23  24
HETATM   24  C   UNL     1      42.185 -14.932   3.329  1.00  0.00     0.136 C 
HETATM   25  C   UNL     1      43.103 -14.257   2.302  1.00  0.00     0.048 C 
HETATM   26  C   UNL     1      40.735 -14.952   2.800  1.00  0.00     0.048 C 
BRANCH  24  27
HETATM   27  N   UNL     1      42.648 -16.438   3.529  1.00  0.00    -0.061 N 
HETATM   28  H   UNL     1      41.800 -16.941   3.826  1.00  0.00     0.280 HD
HETATM   29  C   UNL     1      43.125 -17.138   2.261  1.00  0.00     0.236 C 
HETATM   30  C   UNL     1      43.310 -18.626   2.527  1.00  0.00     0.028 C 
HETATM   31  C   UNL     1      44.287 -18.877   3.666  1.00  0.00     0.003 C 
HETATM   32  C   UNL     1      43.863 -18.121   4.914  1.00  0.00     0.028 C 
HETATM   33  C   UNL     1      43.675 -16.634   4.642  1.00  0.00     0.236 C 
ENDBRANCH  24  27
ENDBRANCH  23  24
ENDBRANCH   1  23
TORSDOF 7
ENDMDL
MODEL 3
REMARK VINA RESULT:      -8.4      1.218      1.804
REMARK  7 active torsions:
REMARK  status: ('A' for Active; 'I' for Inactive)
REMARK    1  A    between atoms: C_2  and  N_3 
REMARK    2  A    between atoms: C_2  and  C_10 
REMARK    3  A    between atoms: C_10  and  N_11 
REMARK       I    between atoms: N_11  and  C_12 
REMARK       I    between atoms: C_12  and  N_13 
REMARK    4  A    between atoms: N_13  and  C_14 
REMARK    5  A    between atoms: C_14  and  C_15 
REMARK    6  A    between atoms: C_18  and  N_19 
REMARK       I    between atoms: N_19  and  C_20 
REMARK    7  A    between atoms: C_20  and  C_21 
ROOT
HETATM    1  N   UNL     1      43.132 -13.447   6.815  1.00  0.00    -0.341 N 
HETATM    2  C   UNL     1      43.975 -12.419   7.153  1.00  0.00     0.316 C 
HETATM    3  N   UNL     1      43.560 -11.743   8.261  1.00  0.00    -0.339 N 
HETATM    4  O   UNL     1      44.954 -12.128   6.480  1.00  0.00    -0.248 OA
HETATM    5  H   UNL     1      42.542 -13.805   7.554  1.00  0.00     0.164 HD
HETATM    6  H   UNL     1      42.845 -12.129   8.856  1.00  0.00     0.164 HD
ENDROOT
BRANCH   3   7
HETATM    7  C   UNL     1      44.283 -10.593   8.763  1.00  0.00     0.162 C 
BRANCH   7   8
HETATM    8  C   UNL     1      43.799 -10.075  10.097  1.00  0.00    -0.040 A 
HETATM    9  C   UNL     1      43.516 -10.901  11.191  1.00  0.00     0.011 A 
HETATM   10  C   UNL     1      43.119 -10.360  12.422  1.00  0.00     0.030 A 
HETATM   11  C   UNL     1      43.012  -8.980  12.590  1.00  0.00     0.035 A 
HETATM   12  C   UNL     1      43.294  -8.148  11.503  1.00  0.00     0.030 A 
HETATM   13  C   UNL     1      43.683  -8.688  10.272  1.00  0.00     0.011 A 
BRANCH  11  14
HETATM   14  N   UNL     1      42.661  -8.357  13.800  1.00  0.00    -0.321 N 
HETATM   15  C   UNL     1      41.496  -8.494  14.535  1.00  0.00     0.279 C 
HETATM   16  O   UNL     1      40.523  -9.165  14.208  1.00  0.00    -0.265 OA
HETATM   17  H   UNL     1      43.348  -7.738  14.219  1.00  0.00     0.169 HD
BRANCH  15  18
HETATM   18  C   UNL     1      41.535  -7.741  15.777  1.00  0.00     0.142 A 
HETATM   19  O   UNL     1      40.759  -8.147  16.834  1.00  0.00    -0.317 OA
HETATM   20  C   UNL     1      40.972  -7.268  17.848  1.00  0.00     0.143 A 
HETATM   21  C   UNL     1      41.873  -6.303  17.469  1.00  0.00     0.027 A 
HETATM   22  C   UNL     1      42.238  -6.605  16.135  1.00  0.00     0.045 A 
ENDBRANCH  15  18
ENDBRANCH  11  14
ENDBRANCH   7   8
ENDBRANCH   3   7
BRANCH   1  23
HETATM   23  C   UNL     1      43.448 -14.311   5.689  1.00  0.00     0.162 C 
BRANCH  23  24
HETATM   24  C   UNL     1      43.286 -15.857   5.943  1.00  0.00     0.136 C 
HETATM   25  C   UNL     1      41.942 -16.228   6.582  1.00  0.00     0.048 C 
HETATM   26  C   UNL     1      44.443 -16.318   6.854  1.00  0.00     0.048 C 
BRANCH  24  27
HETATM   27  N   UNL     1      43.430 -16.618   4.556  1.00  0.00    -0.061 N 
HETATM   28  H   UNL     1      44.192 -16.132   4.063  1.00  0.00     0.280 HD
HETATM   29  C   UNL     1      43.867 -18.075   4.665  1.00  0.00     0.236 C 
HETATM   30  C   UNL     1      44.201 -18.622   3.283  1.00  0.00     0.028 C 
HETATM   31  C   UNL     1      43.024 -18.495   2.328  1.00  0.00     0.003 C 
HETATM   32  C   UNL     1      42.530 -17.059   2.271  1.00  0.00     0.028 C 
HETATM   33  C   UNL     1      42.202 -16.515   3.656  1.00  0.00     0.236 C 
ENDBRANCH  24  27
ENDBRANCH  23  24
ENDBRANCH   1  23
TORSDOF 7
ENDMDL
MODEL 4
REMARK VINA RESULT:      -8.0      2.949      3.668
REMARK  7 active torsions:
REMARK  status: ('A' for Active; 'I' for Inactive)
REMARK    1  A    between atoms: C_2  and  N_3 
REMARK    2  A    between atoms: C_2  and  C_10 
REMARK    3  A    between atoms: C_10  and  N_11 
REMARK       I    between atoms: N_11  and  C_12 
REMARK       I    between atoms: C_12  and  N_13 
REMARK    4  A    between atoms: N_13  and  C_14 
REMARK    5  A    between atoms: C_14  and  C_15 
REMARK    6  A    between atoms: C_18  and  N_19 
REMARK       I    between atoms: N_19  and  C_20 
REMARK    7  A    between atoms: C_20  and  C_21 
ROOT
HETATM    1  N   UNL     1      42.910 -12.654   3.997  1.00  0.00    -0.341 N 
HETATM    2  C   UNL     1      43.984 -11.913   4.420  1.00  0.00     0.316 C 
HETATM    3  N   UNL     1      44.154 -11.962   5.771  1.00  0.00    -0.339 N 
HETATM    4  O   UNL     1      44.661 -11.245   3.651  1.00  0.00    -0.248 OA
HETATM    5  H   UNL     1      42.599 -13.389   4.618  1.00  0.00     0.164 HD
HETATM    6  H   UNL     1      43.670 -12.651   6.322  1.00  0.00     0.164 HD
ENDROOT
BRANCH   3   7
HETATM    7  C   UNL     1      45.205 -11.212   6.430  1.00  0.00     0.162 C 
BRANCH   7   8
HETATM    8  C   UNL     1      44.834 -10.667   7.789  1.00  0.00    -0.040 A 
HETATM    9  C   UNL     1      45.766 -10.426   8.806  1.00  0.00     0.011 A 
HETATM   10  C   UNL     1      45.371  -9.870  10.031  1.00  0.00     0.030 A 
HETATM   11  C   UNL     1      44.038  -9.529  10.259  1.00  0.00     0.035 A 
HETATM   12  C   UNL     1      43.102  -9.766   9.249  1.00  0.00     0.030 A 
HETATM   13  C   UNL     1      43.495 -10.327   8.029  1.00  0.00     0.011 A 
BRANCH  11  14
HETATM   14  N   UNL     1      43.568  -8.931  11.442  1.00  0.00    -0.321 N 
HETATM   15  C   UNL     1      42.844  -9.506  12.471  1.00  0.00     0.279 C 
HETATM   16  O   UNL     1      42.434 -10.663  12.494  1.00  0.00    -0.265 OA
HETATM   17  H   UNL     1      43.799  -7.953  11.590  1.00  0.00     0.169 HD
BRANCH  15  18
HETATM   18  C   UNL     1      42.608  -8.580  13.565  1.00  0.00     0.142 A 
HETATM   19  O   UNL     1      41.722  -8.923  14.558  1.00  0.00    -0.317 OA
HETATM   20  C   UNL     1      41.679  -7.884  15.432  1.00  0.00     0.143 A 
HETATM   21  C   UNL     1      42.523  -6.878  15.028  1.00  0.00     0.027 A 
HETATM   22  C   UNL     1      43.122  -7.323  13.826  1.00  0.00     0.045 A 
ENDBRANCH  15  18
ENDBRANCH  11  14
ENDBRANCH   7   8
ENDBRANCH   3   7
BRANCH   1  23
HETATM   23  C   UNL     1      42.609 -12.761   2.579  1.00  0.00     0.162 C 
BRANCH  23  24
HETATM   24  C   UNL     1      42.190 -14.192   2.071  1.00  0.00     0.136 C 
HETATM   25  C   UNL     1      41.310 -14.955   3.069  1.00  0.00     0.048 C 
HETATM   26  C   UNL     1      43.477 -14.997   1.788  1.00  0.00     0.048 C 
BRANCH  24  27
HETATM   27  N   UNL     1      41.406 -14.036   0.698  1.00  0.00    -0.061 N 
HETATM   28  H   UNL     1      42.051 -14.394  -0.020  1.00  0.00     0.280 HD
HETATM   29  C   UNL     1      40.142 -14.880   0.581  1.00  0.00     0.236 C 
HETATM   30  C   UNL     1      39.616 -14.833  -0.848  1.00  0.00     0.028 C 
HETATM   31  C   UNL     1      39.341 -13.406  -1.299  1.00  0.00     0.003 C 
HETATM   32  C   UNL     1      40.573 -12.536  -1.113  1.00  0.00     0.028 C 
HETATM   33  C   UNL     1      41.098 -12.591   0.316  1.00  0.00     0.236 C 
ENDBRANCH  24  27
ENDBRANCH  23  24
ENDBRANCH   1  23
TORSDOF 7
ENDMDL
MODEL 5
REMARK VINA RESULT:      -7.9      3.417     10.744
REMARK  7 active torsions:
REMARK  status: ('A' for Active; 'I' for Inactive)
REMARK    1  A    between atoms: C_2  and  N_3 
REMARK    2  A    between atoms: C_2  and  C_10 
REMARK    3  A    between atoms: C_10  and  N_11 
REMARK       I    between atoms: N_11  and  C_12 
REMARK       I    between atoms: C_12  and  N_13 
REMARK    4  A    between atoms: N_13  and  C_14 
REMARK    5  A    between atoms: C_14  and  C_15 
REMARK    6  A    between atoms: C_18  and  N_19 
REMARK       I    between atoms: N_19  and  C_20 
REMARK    7  A    between atoms: C_20  and  C_21 
ROOT
HETATM    1  N   UNL     1      39.957  -9.962   8.423  1.00  0.00    -0.341 N 
HETATM    2  C   UNL     1      39.472 -10.611   7.317  1.00  0.00     0.316 C 
HETATM    3  N   UNL     1      40.325 -10.548   6.256  1.00  0.00    -0.339 N 
HETATM    4  O   UNL     1      38.366 -11.132   7.297  1.00  0.00    -0.248 OA
HETATM    5  H   UNL     1      40.959  -9.827   8.461  1.00  0.00     0.164 HD
HETATM    6  H   UNL     1      41.278 -10.249   6.384  1.00  0.00     0.164 HD
ENDROOT
BRANCH   3   7
HETATM    7  C   UNL     1      39.985 -11.131   4.974  1.00  0.00     0.162 C 
BRANCH   7   8
HETATM    8  C   UNL     1      40.555 -12.509   4.736  1.00  0.00    -0.040 A 
HETATM    9  C   UNL     1      40.309 -13.604   5.574  1.00  0.00     0.011 A 
HETATM   10  C   UNL     1      40.824 -14.873   5.275  1.00  0.00     0.030 A 
HETATM   11  C   UNL     1      41.582 -15.078   4.123  1.00  0.00     0.035 A 
HETATM   12  C   UNL     1      41.832 -13.992   3.281  1.00  0.00     0.030 A 
HETATM   13  C   UNL     1      41.324 -12.723   3.583  1.00  0.00     0.011 A 
BRANCH  11  14
HETATM   14  N   UNL     1      42.099 -16.326   3.731  1.00  0.00    -0.321 N 
HETATM   15  C   UNL     1      43.207 -16.993   4.220  1.00  0.00     0.279 C 
HETATM   16  O   UNL     1      43.979 -16.564   5.073  1.00  0.00    -0.265 OA
HETATM   17  H   UNL     1      41.593 -16.830   3.009  1.00  0.00     0.169 HD
BRANCH  15  18
HETATM   18  C   UNL     1      43.379 -18.301   3.611  1.00  0.00     0.142 A 
HETATM   19  O   UNL     1      43.867 -19.337   4.368  1.00  0.00    -0.317 OA
HETATM   20  C   UNL     1      43.942 -20.425   3.558  1.00  0.00     0.143 A 
HETATM   21  C   UNL     1      43.508 -20.114   2.291  1.00  0.00     0.027 A 
HETATM   22  C   UNL     1      43.144 -18.747   2.323  1.00  0.00     0.045 A 
ENDBRANCH  15  18
ENDBRANCH  11  14
ENDBRANCH   7   8
ENDBRANCH   3   7
BRANCH   1  23
HETATM   23  C   UNL     1      39.204  -9.972   9.666  1.00  0.00     0.162 C 
BRANCH  23  24
HETATM   24  C   UNL     1      39.985  -9.494  10.948  1.00  0.00     0.136 C 
HETATM   25  C   UNL     1      39.608 -10.275  12.213  1.00  0.00     0.048 C 
HETATM   26  C   UNL     1      39.695  -7.992  11.155  1.00  0.00     0.048 C 
BRANCH  24  27
HETATM   27  N   UNL     1      41.544  -9.653  10.683  1.00  0.00    -0.061 N 
HETATM   28  H   UNL     1      41.615 -10.336   9.916  1.00  0.00     0.280 HD
HETATM   29  C   UNL     1      42.242  -8.392  10.186  1.00  0.00     0.236 C 
HETATM   30  C   UNL     1      43.661  -8.725   9.742  1.00  0.00     0.028 C 
HETATM   31  C   UNL     1      44.466  -9.366  10.862  1.00  0.00     0.003 C 
HETATM   32  C   UNL     1      43.740 -10.580  11.419  1.00  0.00     0.028 C 
HETATM   33  C   UNL     1      42.320 -10.243  11.857  1.00  0.00     0.236 C 
ENDBRANCH  24  27
ENDBRANCH  23  24
ENDBRANCH   1  23
TORSDOF 7
ENDMDL
MODEL 6
REMARK VINA RESULT:      -7.8      4.049      7.174
REMARK  7 active torsions:
REMARK  status: ('A' for Active; 'I' for Inactive)
REMARK    1  A    between atoms: C_2  and  N_3 
REMARK    2  A    between atoms: C_2  and  C_10 
REMARK    3  A    between atoms: C_10  and  N_11 
REMARK       I    between atoms: N_11  and  C_12 
REMARK       I    between atoms: C_12  and  N_13 
REMARK    4  A    between atoms: N_13  and  C_14 
REMARK    5  A    between atoms: C_14  and  C_15 
REMARK    6  A    between atoms: C_18  and  N_19 
REMARK       I    between atoms: N_19  and  C_20 
REMARK    7  A    between atoms: C_20  and  C_21 
ROOT
HETATM    1  N   UNL     1      39.720 -15.147   0.773  1.00  0.00    -0.341 N 
HETATM    2  C   UNL     1      40.867 -15.425   1.471  1.00  0.00     0.316 C 
HETATM    3  N   UNL     1      40.619 -16.021   2.671  1.00  0.00    -0.339 N 
HETATM    4  O   UNL     1      41.975 -15.108   1.061  1.00  0.00    -0.248 OA
HETATM    5  H   UNL     1      38.902 -15.687   1.021  1.00  0.00     0.164 HD
HETATM    6  H   UNL     1      39.708 -16.398   2.876  1.00  0.00     0.164 HD
ENDROOT
BRANCH   3   7
HETATM    7  C   UNL     1      41.691 -16.358   3.586  1.00  0.00     0.162 C 
BRANCH   7   8
HETATM    8  C   UNL     1      42.096 -15.244   4.522  1.00  0.00    -0.040 A 
HETATM    9  C   UNL     1      41.382 -14.047   4.656  1.00  0.00     0.011 A 
HETATM   10  C   UNL     1      41.777 -13.068   5.579  1.00  0.00     0.030 A 
HETATM   11  C   UNL     1      42.885 -13.274   6.400  1.00  0.00     0.035 A 
HETATM   12  C   UNL     1      43.602 -14.466   6.274  1.00  0.00     0.030 A 
HETATM   13  C   UNL     1      43.213 -15.439   5.348  1.00  0.00     0.011 A 
BRANCH  11  14
HETATM   14  N   UNL     1      43.321 -12.362   7.378  1.00  0.00    -0.321 N 
HETATM   15  C   UNL     1      44.373 -11.465   7.314  1.00  0.00     0.279 C 
HETATM   16  O   UNL     1      45.158 -11.354   6.377  1.00  0.00    -0.265 OA
HETATM   17  H   UNL     1      42.794 -12.326   8.245  1.00  0.00     0.169 HD
BRANCH  15  18
HETATM   18  C   UNL     1      44.464 -10.635   8.502  1.00  0.00     0.142 A 
HETATM   19  O   UNL     1      45.451 -10.886   9.424  1.00  0.00    -0.317 OA
HETATM   20  C   UNL     1      45.298  -9.985  10.430  1.00  0.00     0.143 A 
HETATM   21  C   UNL     1      44.234  -9.152  10.174  1.00  0.00     0.027 A 
HETATM   22  C   UNL     1      43.696  -9.569   8.933  1.00  0.00     0.045 A 
ENDBRANCH  15  18
ENDBRANCH  11  14
ENDBRANCH   7   8
ENDBRANCH   3   7
BRANCH   1  23
HETATM   23  C   UNL     1      39.796 -14.559  -0.554  1.00  0.00     0.162 C 
BRANCH  23  24
HETATM   24  C   UNL     1      39.697 -12.988  -0.618  1.00  0.00     0.136 C 
HETATM   25  C   UNL     1      38.307 -12.485  -1.025  1.00  0.00     0.048 C 
HETATM   26  C   UNL     1      40.752 -12.480  -1.624  1.00  0.00     0.048 C 
BRANCH  24  27
HETATM   27  N   UNL     1      40.067 -12.397   0.810  1.00  0.00    -0.061 N 
HETATM   28  H   UNL     1      40.316 -13.216   1.381  1.00  0.00     0.280 HD
HETATM   29  C   UNL     1      41.291 -11.487   0.830  1.00  0.00     0.236 C 
HETATM   30  C   UNL     1      41.686 -11.181   2.269  1.00  0.00     0.028 C 
HETATM   31  C   UNL     1      40.542 -10.543   3.043  1.00  0.00     0.003 C 
HETATM   32  C   UNL     1      39.292 -11.405   2.964  1.00  0.00     0.028 C 
HETATM   33  C   UNL     1      38.904 -11.712   1.523  1.00  0.00     0.236 C 
ENDBRANCH  24  27
ENDBRANCH  23  24
ENDBRANCH   1  23
TORSDOF 7
ENDMDL
MODEL 7
REMARK VINA RESULT:      -7.7      1.955      2.452
REMARK  7 active torsions:
REMARK  status: ('A' for Active; 'I' for Inactive)
REMARK    1  A    between atoms: C_2  and  N_3 
REMARK    2  A    between atoms: C_2  and  C_10 
REMARK    3  A    between atoms: C_10  and  N_11 
REMARK       I    between atoms: N_11  and  C_12 
REMARK       I    between atoms: C_12  and  N_13 
REMARK    4  A    between atoms: N_13  and  C_14 
REMARK    5  A    between atoms: C_14  and  C_15 
REMARK    6  A    between atoms: C_18  and  N_19 
REMARK       I    between atoms: N_19  and  C_20 
REMARK    7  A    between atoms: C_20  and  C_21 
ROOT
HETATM    1  N   UNL     1      44.345 -11.886   5.803  1.00  0.00    -0.341 N 
HETATM    2  C   UNL     1      44.688 -11.488   7.070  1.00  0.00     0.316 C 
HETATM    3  N   UNL     1      45.590 -10.467   7.072  1.00  0.00    -0.339 N 
HETATM    4  O   UNL     1      44.257 -12.047   8.069  1.00  0.00    -0.248 OA
HETATM    5  H   UNL     1      44.496 -11.211   5.064  1.00  0.00     0.164 HD
HETATM    6  H   UNL     1      45.779  -9.950   6.229  1.00  0.00     0.164 HD
ENDROOT
BRANCH   3   7
HETATM    7  C   UNL     1      46.119  -9.927   8.308  1.00  0.00     0.162 C 
BRANCH   7   8
HETATM    8  C   UNL     1      45.109  -9.199   9.163  1.00  0.00    -0.040 A 
HETATM    9  C   UNL     1      44.344  -8.119   8.706  1.00  0.00     0.011 A 
HETATM   10  C   UNL     1      43.383  -7.515   9.529  1.00  0.00     0.030 A 
HETATM   11  C   UNL     1      43.155  -7.988  10.821  1.00  0.00     0.035 A 
HETATM   12  C   UNL     1      43.914  -9.066  11.284  1.00  0.00     0.030 A 
HETATM   13  C   UNL     1      44.878  -9.665  10.466  1.00  0.00     0.011 A 
BRANCH  11  14
HETATM   14  N   UNL     1      42.184  -7.465  11.693  1.00  0.00    -0.321 N 
HETATM   15  C   UNL     1      41.073  -8.094  12.225  1.00  0.00     0.279 C 
HETATM   16  O   UNL     1      40.712  -9.238  11.969  1.00  0.00    -0.265 OA
HETATM   17  H   UNL     1      42.310  -6.506  12.003  1.00  0.00     0.169 HD
BRANCH  15  18
HETATM   18  C   UNL     1      40.346  -7.243  13.151  1.00  0.00     0.142 A 
HETATM   19  O   UNL     1      38.973  -7.265  13.150  1.00  0.00    -0.317 OA
HETATM   20  C   UNL     1      38.557  -6.374  14.088  1.00  0.00     0.143 A 
HETATM   21  C   UNL     1      39.634  -5.779  14.700  1.00  0.00     0.027 A 
HETATM   22  C   UNL     1      40.788  -6.337  14.099  1.00  0.00     0.045 A 
ENDBRANCH  15  18
ENDBRANCH  11  14
ENDBRANCH   7   8
ENDBRANCH   3   7
BRANCH   1  23
HETATM   23  C   UNL     1      43.352 -12.929   5.607  1.00  0.00     0.162 C 
BRANCH  23  24
HETATM   24  C   UNL     1      42.731 -13.026   4.162  1.00  0.00     0.136 C 
HETATM   25  C   UNL     1      43.251 -11.945   3.207  1.00  0.00     0.048 C 
HETATM   26  C   UNL     1      41.197 -12.916   4.290  1.00  0.00     0.048 C 
BRANCH  24  27
HETATM   27  N   UNL     1      43.065 -14.458   3.560  1.00  0.00    -0.061 N 
HETATM   28  H   UNL     1      44.076 -14.581   3.709  1.00  0.00     0.280 HD
HETATM   29  C   UNL     1      42.393 -15.626   4.273  1.00  0.00     0.236 C 
HETATM   30  C   UNL     1      42.970 -16.943   3.769  1.00  0.00     0.028 C 
HETATM   31  C   UNL     1      42.814 -17.085   2.262  1.00  0.00     0.003 C 
HETATM   32  C   UNL     1      43.412 -15.886   1.544  1.00  0.00     0.028 C 
HETATM   33  C   UNL     1      42.836 -14.572   2.056  1.00  0.00     0.236 C 
ENDBRANCH  24  27
ENDBRANCH  23  24
ENDBRANCH   1  23
TORSDOF 7
ENDMDL
MODEL 8
REMARK VINA RESULT:      -7.6      5.700      9.903
REMARK  7 active torsions:
REMARK  status: ('A' for Active; 'I' for Inactive)
REMARK    1  A    between atoms: C_2  and  N_3 
REMARK    2  A    between atoms: C_2  and  C_10 
REMARK    3  A    between atoms: C_10  and  N_11 
REMARK       I    between atoms: N_11  and  C_12 
REMARK       I    between atoms: C_12  and  N_13 
REMARK    4  A    between atoms: N_13  and  C_14 
REMARK    5  A    between atoms: C_14  and  C_15 
REMARK    6  A    between atoms: C_18  and  N_19 
REMARK       I    between atoms: N_19  and  C_20 
REMARK    7  A    between atoms: C_20  and  C_21 
ROOT
HETATM    1  N   UNL     1      42.517 -13.812   7.089  1.00  0.00    -0.341 N 
HETATM    2  C   UNL     1      42.704 -12.893   6.088  1.00  0.00     0.316 C 
HETATM    3  N   UNL     1      42.007 -11.742   6.296  1.00  0.00    -0.339 N 
HETATM    4  O   UNL     1      43.384 -13.133   5.100  1.00  0.00    -0.248 OA
HETATM    5  H   UNL     1      42.205 -13.448   7.980  1.00  0.00     0.164 HD
HETATM    6  H   UNL     1      41.601 -11.546   7.197  1.00  0.00     0.164 HD
ENDROOT
BRANCH   3   7
HETATM    7  C   UNL     1      42.029 -10.657   5.335  1.00  0.00     0.162 C 
BRANCH   7   8
HETATM    8  C   UNL     1      41.405 -10.984   3.999  1.00  0.00    -0.040 A 
HETATM    9  C   UNL     1      42.056 -10.798   2.774  1.00  0.00     0.011 A 
HETATM   10  C   UNL     1      41.446 -11.168   1.567  1.00  0.00     0.030 A 
HETATM   11  C   UNL     1      40.178 -11.748   1.561  1.00  0.00     0.035 A 
HETATM   12  C   UNL     1      39.522 -11.938   2.780  1.00  0.00     0.030 A 
HETATM   13  C   UNL     1      40.127 -11.562   3.984  1.00  0.00     0.011 A 
BRANCH  11  14
HETATM   14  N   UNL     1      39.516 -12.183   0.400  1.00  0.00    -0.321 N 
HETATM   15  C   UNL     1      39.802 -13.275  -0.399  1.00  0.00     0.279 C 
HETATM   16  O   UNL     1      40.749 -14.040  -0.248  1.00  0.00    -0.265 OA
HETATM   17  H   UNL     1      38.702 -11.651   0.105  1.00  0.00     0.169 HD
BRANCH  15  18
HETATM   18  C   UNL     1      38.839 -13.441  -1.474  1.00  0.00     0.142 A 
HETATM   19  O   UNL     1      39.012 -14.457  -2.382  1.00  0.00    -0.317 OA
HETATM   20  C   UNL     1      37.992 -14.373  -3.276  1.00  0.00     0.143 A 
HETATM   21  C   UNL     1      37.160 -13.325  -2.962  1.00  0.00     0.027 A 
HETATM   22  C   UNL     1      37.703 -12.724  -1.802  1.00  0.00     0.045 A 
ENDBRANCH  15  18
ENDBRANCH  11  14
ENDBRANCH   7   8
ENDBRANCH   3   7
BRANCH   1  23
HETATM   23  C   UNL     1      43.228 -15.080   7.060  1.00  0.00     0.162 C 
BRANCH  23  24
HETATM   24  C   UNL     1      42.460 -16.284   6.395  1.00  0.00     0.136 C 
HETATM   25  C   UNL     1      40.980 -16.351   6.792  1.00  0.00     0.048 C 
HETATM   26  C   UNL     1      43.170 -17.592   6.804  1.00  0.00     0.048 C 
BRANCH  24  27
HETATM   27  N   UNL     1      42.570 -16.147   4.816  1.00  0.00    -0.061 N 
HETATM   28  H   UNL     1      43.226 -15.370   4.661  1.00  0.00     0.280 HD
HETATM   29  C   UNL     1      43.177 -17.354   4.108  1.00  0.00     0.236 C 
HETATM   30  C   UNL     1      43.451 -17.016   2.649  1.00  0.00     0.028 C 
HETATM   31  C   UNL     1      42.190 -16.562   1.929  1.00  0.00     0.003 C 
HETATM   32  C   UNL     1      41.533 -15.409   2.670  1.00  0.00     0.028 C 
HETATM   33  C   UNL     1      41.265 -15.751   4.131  1.00  0.00     0.236 C 
ENDBRANCH  24  27
ENDBRANCH  23  24
ENDBRANCH   1  23
TORSDOF 7
ENDMDL
MODEL 9
REMARK VINA RESULT:      -7.4      1.754      2.540
REMARK  7 active torsions:
REMARK  status: ('A' for Active; 'I' for Inactive)
REMARK    1  A    between atoms: C_2  and  N_3 
REMARK    2  A    between atoms: C_2  and  C_10 
REMARK    3  A    between atoms: C_10  and  N_11 
REMARK       I    between atoms: N_11  and  C_12 
REMARK       I    between atoms: C_12  and  N_13 
REMARK    4  A    between atoms: N_13  and  C_14 
REMARK    5  A    between atoms: C_14  and  C_15 
REMARK    6  A    between atoms: C_18  and  N_19 
REMARK       I    between atoms: N_19  and  C_20 
REMARK    7  A    between atoms: C_20  and  C_21 
ROOT
HETATM    1  N   UNL     1      43.333 -13.350   7.158  1.00  0.00    -0.341 N 
HETATM    2  C   UNL     1      43.541 -11.994   7.160  1.00  0.00     0.316 C 
HETATM    3  N   UNL     1      43.557 -11.468   8.417  1.00  0.00    -0.339 N 
HETATM    4  O   UNL     1      43.640 -11.346   6.128  1.00  0.00    -0.248 OA
HETATM    5  H   UNL     1      43.557 -13.839   8.014  1.00  0.00     0.164 HD
HETATM    6  H   UNL     1      43.632 -12.070   9.221  1.00  0.00     0.164 HD
ENDROOT
BRANCH   3   7
HETATM    7  C   UNL     1      43.718 -10.046   8.642  1.00  0.00     0.162 C 
BRANCH   7   8
HETATM    8  C   UNL     1      43.266  -9.566  10.001  1.00  0.00    -0.040 A 
HETATM    9  C   UNL     1      44.123  -8.977  10.938  1.00  0.00     0.011 A 
HETATM   10  C   UNL     1      43.637  -8.503  12.165  1.00  0.00     0.030 A 
HETATM   11  C   UNL     1      42.280  -8.594  12.474  1.00  0.00     0.035 A 
HETATM   12  C   UNL     1      41.418  -9.180  11.544  1.00  0.00     0.030 A 
HETATM   13  C   UNL     1      41.904  -9.659  10.322  1.00  0.00     0.011 A 
BRANCH  11  14
HETATM   14  N   UNL     1      41.708  -8.107  13.662  1.00  0.00    -0.321 N 
HETATM   15  C   UNL     1      41.206  -6.846  13.925  1.00  0.00     0.279 C 
HETATM   16  O   UNL     1      41.228  -5.894  13.150  1.00  0.00    -0.265 OA
HETATM   17  H   UNL     1      41.622  -8.760  14.435  1.00  0.00     0.169 HD
BRANCH  15  18
HETATM   18  C   UNL     1      40.625  -6.747  15.253  1.00  0.00     0.142 A 
HETATM   19  O   UNL     1      39.684  -5.780  15.506  1.00  0.00    -0.317 OA
HETATM   20  C   UNL     1      39.327  -5.900  16.812  1.00  0.00     0.143 A 
HETATM   21  C   UNL     1      40.016  -6.929  17.407  1.00  0.00     0.027 A 
HETATM   22  C   UNL     1      40.852  -7.477  16.406  1.00  0.00     0.045 A 
ENDBRANCH  15  18
ENDBRANCH  11  14
ENDBRANCH   7   8
ENDBRANCH   3   7
BRANCH   1  23
HETATM   23  C   UNL     1      43.340 -14.089   5.906  1.00  0.00     0.162 C 
BRANCH  23  24
HETATM   24  C   UNL     1      42.038 -14.918   5.590  1.00  0.00     0.136 C 
HETATM   25  C   UNL     1      40.756 -14.078   5.649  1.00  0.00     0.048 C 
HETATM   26  C   UNL     1      41.949 -16.078   6.604  1.00  0.00     0.048 C 
BRANCH  24  27
HETATM   27  N   UNL     1      42.179 -15.552   4.140  1.00  0.00    -0.061 N 
HETATM   28  H   UNL     1      41.258 -15.966   3.940  1.00  0.00     0.280 HD
HETATM   29  C   UNL     1      42.437 -14.548   3.022  1.00  0.00     0.236 C 
HETATM   30  C   UNL     1      42.313 -15.235   1.668  1.00  0.00     0.028 C 
HETATM   31  C   UNL     1      43.266 -16.415   1.547  1.00  0.00     0.003 C 
HETATM   32  C   UNL     1      43.071 -17.384   2.701  1.00  0.00     0.028 C 
HETATM   33  C   UNL     1      43.191 -16.691   4.053  1.00  0.00     0.236 C 
ENDBRANCH  24  27
ENDBRANCH  23  24
ENDBRANCH   1  23
TORSDOF 7
ENDMDL
MODEL 10
REMARK VINA RESULT:      -7.3      7.901     10.954
REMARK  7 active torsions:
REMARK  status: ('A' for Active; 'I' for Inactive)
REMARK    1  A    between atoms: C_2  and  N_3 
REMARK    2  A    between atoms: C_2  and  C_10 
REMARK    3  A    between atoms: C_10  and  N_11 
REMARK       I    between atoms: N_11  and  C_12 
REMARK       I    between atoms: C_12  and  N_13 
REMARK    4  A    between atoms: N_13  and  C_14 
REMARK    5  A    between atoms: C_14  and  C_15 
REMARK    6  A    between atoms: C_18  and  N_19 
REMARK       I    between atoms: N_19  and  C_20 
REMARK    7  A    between atoms: C_20  and  C_21 
ROOT
HETATM    1  N   UNL     1      42.094 -15.154   3.346  1.00  0.00    -0.341 N 
HETATM    2  C   UNL     1      41.833 -15.126   2.000  1.00  0.00     0.316 C 
HETATM    3  N   UNL     1      40.601 -14.618   1.716  1.00  0.00    -0.339 N 
HETATM    4  O   UNL     1      42.617 -15.569   1.172  1.00  0.00    -0.248 OA
HETATM    5  H   UNL     1      41.555 -14.520   3.921  1.00  0.00     0.164 HD
HETATM    6  H   UNL     1      40.076 -14.126   2.421  1.00  0.00     0.164 HD
ENDROOT
BRANCH   3   7
HETATM    7  C   UNL     1      40.108 -14.541   0.356  1.00  0.00     0.162 C 
BRANCH   7   8
HETATM    8  C   UNL     1      40.450 -13.260  -0.368  1.00  0.00    -0.040 A 
HETATM    9  C   UNL     1      40.583 -13.169  -1.759  1.00  0.00     0.011 A 
HETATM   10  C   UNL     1      40.852 -11.942  -2.381  1.00  0.00     0.030 A 
HETATM   11  C   UNL     1      40.977 -10.776  -1.627  1.00  0.00     0.035 A 
HETATM   12  C   UNL     1      40.844 -10.858  -0.238  1.00  0.00     0.030 A 
HETATM   13  C   UNL     1      40.584 -12.084   0.384  1.00  0.00     0.011 A 
BRANCH  11  14
HETATM   14  N   UNL     1      41.205  -9.502  -2.176  1.00  0.00    -0.321 N 
HETATM   15  C   UNL     1      42.255  -8.634  -1.936  1.00  0.00     0.279 C 
HETATM   16  O   UNL     1      43.164  -8.821  -1.133  1.00  0.00    -0.265 OA
HETATM   17  H   UNL     1      40.532  -9.165  -2.858  1.00  0.00     0.169 HD
BRANCH  15  18
HETATM   18  C   UNL     1      42.180  -7.436  -2.754  1.00  0.00     0.142 A 
HETATM   19  O   UNL     1      42.818  -7.410  -3.970  1.00  0.00    -0.317 OA
HETATM   20  C   UNL     1      42.602  -6.182  -4.509  1.00  0.00     0.143 A 
HETATM   21  C   UNL     1      41.833  -5.413  -3.668  1.00  0.00     0.027 A 
HETATM   22  C   UNL     1      41.559  -6.219  -2.537  1.00  0.00     0.045 A 
ENDBRANCH  15  18
ENDBRANCH  11  14
ENDBRANCH   7   8
ENDBRANCH   3   7
BRANCH   1  23
HETATM   23  C   UNL     1      43.385 -15.615   3.831  1.00  0.00     0.162 C 
BRANCH  23  24
HETATM   24  C   UNL     1      43.344 -16.635   5.031  1.00  0.00     0.136 C 
HETATM   25  C   UNL     1      41.953 -16.770   5.663  1.00  0.00     0.048 C 
HETATM   26  C   UNL     1      44.358 -16.164   6.096  1.00  0.00     0.048 C 
BRANCH  24  27
HETATM   27  N   UNL     1      43.819 -18.057   4.507  1.00  0.00    -0.061 N 
HETATM   28  H   UNL     1      44.831 -17.959   4.349  1.00  0.00     0.280 HD
HETATM   29  C   UNL     1      43.661 -19.196   5.509  1.00  0.00     0.236 C 
HETATM   30  C   UNL     1      44.363 -20.445   4.990  1.00  0.00     0.028 C 
HETATM   31  C   UNL     1      43.831 -20.864   3.628  1.00  0.00     0.003 C 
HETATM   32  C   UNL     1      43.912 -19.711   2.641  1.00  0.00     0.028 C 
HETATM   33  C   UNL     1      43.213 -18.463   3.166  1.00  0.00     0.236 C 
ENDBRANCH  24  27
ENDBRANCH  23  24
ENDBRANCH   1  23
TORSDOF 7
ENDMDL
