MODEL 1
REMARK VINA RESULT:      -9.0      0.000      0.000
REMARK  6 active torsions:
REMARK  status: ('A' for Active; 'I' for Inactive)
REMARK    1  A    between atoms: N_2  and  C_4 
REMARK    2  A    between atoms: C_4  and  C_5 
REMARK    3  A    between atoms: C_7  and  N_8 
REMARK       I    between atoms: N_8  and  C_9 
REMARK    4  A    between atoms: C_9  and  C_10 
REMARK    5  A    between atoms: C_12  and  C_13 
REMARK    6  A    between atoms: C_20  and  C_21 
ROOT
HETATM    1  N   UNL     1      44.310 -12.739   6.301  1.00  0.00    -0.322 N 
HETATM    2  C   UNL     1      43.678 -13.890   6.748  1.00  0.00     0.277 C 
HETATM    3  O   UNL     1      43.371 -14.114   7.916  1.00  0.00    -0.266 OA
HETATM    4  H   UNL     1      44.615 -12.775   5.330  1.00  0.00     0.169 HD
ENDROOT
BRANCH   2   5
HETATM    5  C   UNL     1      43.452 -14.848   5.672  1.00  0.00     0.157 A 
HETATM    6  N   UNL     1      43.814 -16.189   5.776  1.00  0.00    -0.216 NA
HETATM    7  C   UNL     1      43.461 -16.706   4.612  1.00  0.00     0.180 A 
HETATM    8  O   UNL     1      42.885 -15.809   3.756  1.00  0.00    -0.293 OA
HETATM    9  C   UNL     1      42.879 -14.623   4.435  1.00  0.00     0.094 A 
BRANCH   7  10
HETATM   10  C   UNL     1      43.602 -18.074   4.117  1.00  0.00     0.017 A 
HETATM   11  C   UNL     1      43.335 -18.362   2.770  1.00  0.00     0.016 A 
HETATM   12  C   UNL     1      43.458 -19.664   2.279  1.00  0.00     0.001 A 
HETATM   13  C   UNL     1      43.849 -20.697   3.129  1.00  0.00     0.000 A 
HETATM   14  C   UNL     1      44.117 -20.428   4.468  1.00  0.00     0.001 A 
HETATM   15  C   UNL     1      43.995 -19.126   4.959  1.00  0.00     0.016 A 
ENDBRANCH   7  10
BRANCH   9  16
HETATM   16  C   UNL     1      42.330 -13.326   3.866  1.00  0.00     0.046 A 
HETATM   17  C   UNL     1      43.254 -12.485   3.010  1.00  0.00     0.012 A 
HETATM   18  C   UNL     1      42.142 -13.238   2.365  1.00  0.00     0.012 A 
ENDBRANCH   9  16
ENDBRANCH   2   5
BRANCH   1  19
HETATM   19  C   UNL     1      44.659 -11.618   7.076  1.00  0.00     0.035 A 
HETATM   20  C   UNL     1      43.747 -10.969   7.910  1.00  0.00     0.038 A 
HETATM   21  C   UNL     1      44.139  -9.914   8.750  1.00  0.00    -0.030 A 
HETATM   22  C   UNL     1      45.466  -9.476   8.707  1.00  0.00     0.009 A 
HETATM   23  C   UNL     1      46.371 -10.079   7.829  1.00  0.00     0.003 A 
HETATM   24  C   UNL     1      45.969 -11.143   7.015  1.00  0.00     0.029 A 
BRANCH  21  25
HETATM   25  C   UNL     1      43.134  -9.321   9.699  1.00  0.00     0.272 C 
BRANCH  25  26
HETATM   26  N   UNL     1      42.584 -10.313  10.704  1.00  0.00    -0.075 N 
HETATM   27  C   UNL     1      41.412  -9.793  11.495  1.00  0.00     0.269 C 
HETATM   28  H   UNL     1      42.236 -11.111  10.159  1.00  0.00     0.279 HD
HETATM   29  C   UNL     1      43.666 -10.819  11.614  1.00  0.00     0.269 C 
ENDBRANCH  25  26
ENDBRANCH  21  25
ENDBRANCH   1  19
TORSDOF 6
ENDMDL
MODEL 2
REMARK VINA RESULT:      -8.7      1.325      1.739
REMARK  6 active torsions:
REMARK  status: ('A' for Active; 'I' for Inactive)
REMARK    1  A    between atoms: N_2  and  C_4 
REMARK    2  A    between atoms: C_4  and  C_5 
REMARK    3  A    between atoms: C_7  and  N_8 
REMARK       I    between atoms: N_8  and  C_9 
REMARK    4  A    between atoms: C_9  and  C_10 
REMARK    5  A    between atoms: C_12  and  C_13 
REMARK    6  A    between atoms: C_20  and  C_21 
ROOT
HETATM    1  N   UNL     1      43.818 -12.783   6.242  1.00  0.00    -0.322 N 
HETATM    2  C   UNL     1      43.263 -12.677   4.976  1.00  0.00     0.277 C 
HETATM    3  O   UNL     1      43.122 -11.626   4.355  1.00  0.00    -0.266 OA
HETATM    4  H   UNL     1      43.733 -13.706   6.665  1.00  0.00     0.169 HD
ENDROOT
BRANCH   2   5
HETATM    5  C   UNL     1      42.810 -13.966   4.463  1.00  0.00     0.157 A 
HETATM    6  N   UNL     1      43.626 -15.094   4.452  1.00  0.00    -0.216 NA
HETATM    7  C   UNL     1      42.869 -16.031   3.908  1.00  0.00     0.180 A 
HETATM    8  O   UNL     1      41.614 -15.605   3.571  1.00  0.00    -0.293 OA
HETATM    9  C   UNL     1      41.578 -14.286   3.926  1.00  0.00     0.094 A 
BRANCH   7  10
HETATM   10  C   UNL     1      43.177 -17.429   3.616  1.00  0.00     0.017 A 
HETATM   11  C   UNL     1      43.849 -18.212   4.566  1.00  0.00     0.016 A 
HETATM   12  C   UNL     1      44.157 -19.550   4.302  1.00  0.00     0.001 A 
HETATM   13  C   UNL     1      43.798 -20.121   3.083  1.00  0.00     0.000 A 
HETATM   14  C   UNL     1      43.132 -19.358   2.128  1.00  0.00     0.001 A 
HETATM   15  C   UNL     1      42.823 -18.021   2.393  1.00  0.00     0.016 A 
ENDBRANCH   7  10
BRANCH   9  16
HETATM   16  C   UNL     1      40.366 -13.391   3.732  1.00  0.00     0.046 A 
HETATM   17  C   UNL     1      40.332 -12.509   2.501  1.00  0.00     0.012 A 
HETATM   18  C   UNL     1      39.440 -13.700   2.574  1.00  0.00     0.012 A 
ENDBRANCH   9  16
ENDBRANCH   2   5
BRANCH   1  19
HETATM   19  C   UNL     1      44.361 -11.737   7.011  1.00  0.00     0.035 A 
HETATM   20  C   UNL     1      43.608 -11.024   7.946  1.00  0.00     0.038 A 
HETATM   21  C   UNL     1      44.192 -10.051   8.773  1.00  0.00    -0.030 A 
HETATM   22  C   UNL     1      45.550  -9.760   8.614  1.00  0.00     0.009 A 
HETATM   23  C   UNL     1      46.296 -10.424   7.638  1.00  0.00     0.003 A 
HETATM   24  C   UNL     1      45.704 -11.407   6.838  1.00  0.00     0.029 A 
BRANCH  21  25
HETATM   25  C   UNL     1      43.351  -9.388   9.829  1.00  0.00     0.272 C 
BRANCH  25  26
HETATM   26  N   UNL     1      42.682 -10.362  10.778  1.00  0.00    -0.075 N 
HETATM   27  C   UNL     1      41.503  -9.782  11.516  1.00  0.00     0.269 C 
HETATM   28  H   UNL     1      42.316 -11.124  10.196  1.00  0.00     0.279 HD
HETATM   29  C   UNL     1      43.677 -10.956  11.734  1.00  0.00     0.269 C 
ENDBRANCH  25  26
ENDBRANCH  21  25
ENDBRANCH   1  19
TORSDOF 6
ENDMDL
MODEL 3
REMARK VINA RESULT:      -8.2      4.278      8.171
REMARK  6 active torsions:
REMARK  status: ('A' for Active; 'I' for Inactive)
REMARK    1  A    between atoms: N_2  and  C_4 
REMARK    2  A    between atoms: C_4  and  C_5 
REMARK    3  A    between atoms: C_7  and  N_8 
REMARK       I    between atoms: N_8  and  C_9 
REMARK    4  A    between atoms: C_9  and  C_10 
REMARK    5  A    between atoms: C_12  and  C_13 
REMARK    6  A    between atoms: C_20  and  C_21 
ROOT
HETATM    1  N   UNL     1      40.871 -14.459   0.171  1.00  0.00    -0.322 N 
HETATM    2  C   UNL     1      40.645 -14.424   1.539  1.00  0.00     0.277 C 
HETATM    3  O   UNL     1      39.767 -13.765   2.090  1.00  0.00    -0.266 OA
HETATM    4  H   UNL     1      41.722 -14.946  -0.104  1.00  0.00     0.169 HD
ENDROOT
BRANCH   2   5
HETATM    5  C   UNL     1      41.607 -15.234   2.278  1.00  0.00     0.157 A 
HETATM    6  N   UNL     1      41.713 -16.612   2.105  1.00  0.00    -0.216 NA
HETATM    7  C   UNL     1      42.669 -16.967   2.946  1.00  0.00     0.180 A 
HETATM    8  O   UNL     1      43.205 -15.924   3.651  1.00  0.00    -0.293 OA
HETATM    9  C   UNL     1      42.526 -14.818   3.222  1.00  0.00     0.094 A 
BRANCH   7  10
HETATM   10  C   UNL     1      43.220 -18.290   3.231  1.00  0.00     0.017 A 
HETATM   11  C   UNL     1      43.178 -19.292   2.250  1.00  0.00     0.016 A 
HETATM   12  C   UNL     1      43.696 -20.565   2.505  1.00  0.00     0.001 A 
HETATM   13  C   UNL     1      44.260 -20.853   3.747  1.00  0.00     0.000 A 
HETATM   14  C   UNL     1      44.308 -19.871   4.731  1.00  0.00     0.001 A 
HETATM   15  C   UNL     1      43.791 -18.597   4.475  1.00  0.00     0.016 A 
ENDBRANCH   7  10
BRANCH   9  16
HETATM   16  C   UNL     1      42.785 -13.414   3.740  1.00  0.00     0.046 A 
HETATM   17  C   UNL     1      41.844 -12.866   4.792  1.00  0.00     0.012 A 
HETATM   18  C   UNL     1      43.226 -13.264   5.181  1.00  0.00     0.012 A 
ENDBRANCH   9  16
ENDBRANCH   2   5
BRANCH   1  19
HETATM   19  C   UNL     1      40.119 -13.803  -0.820  1.00  0.00     0.035 A 
HETATM   20  C   UNL     1      40.146 -12.417  -0.990  1.00  0.00     0.038 A 
HETATM   21  C   UNL     1      39.468 -11.791  -2.047  1.00  0.00    -0.030 A 
HETATM   22  C   UNL     1      38.706 -12.576  -2.917  1.00  0.00     0.009 A 
HETATM   23  C   UNL     1      38.622 -13.956  -2.718  1.00  0.00     0.003 A 
HETATM   24  C   UNL     1      39.324 -14.567  -1.673  1.00  0.00     0.029 A 
BRANCH  21  25
HETATM   25  C   UNL     1      39.617 -10.306  -2.235  1.00  0.00     0.272 C 
BRANCH  25  26
HETATM   26  N   UNL     1      40.975  -9.890  -2.765  1.00  0.00    -0.075 N 
HETATM   27  C   UNL     1      41.735  -8.974  -1.842  1.00  0.00     0.269 C 
HETATM   28  H   UNL     1      41.528 -10.752  -2.842  1.00  0.00     0.279 HD
HETATM   29  C   UNL     1      40.860  -9.297  -4.141  1.00  0.00     0.269 C 
ENDBRANCH  25  26
ENDBRANCH  21  25
ENDBRANCH   1  19
TORSDOF 6
ENDMDL
MODEL 4
REMARK VINA RESULT:      -8.1      2.101      3.088
REMARK  6 active torsions:
REMARK  status: ('A' for Active; 'I' for Inactive)
REMARK    1  A    between atoms: N_2  and  C_4 
REMARK    2  A    between atoms: C_4  and  C_5 
REMARK    3  A    between atoms: C_7  and  N_8 
REMARK       I    between atoms: N_8  and  C_9 
REMARK    4  A    between atoms: C_9  and  C_10 
REMARK    5  A    between atoms: C_12  and  C_13 
REMARK    6  A    between atoms: C_20  and  C_21 
ROOT
HETATM    1  N   UNL     1      41.899 -12.884   4.543  1.00  0.00    -0.322 N 
HETATM    2  C   UNL     1      42.852 -13.183   3.580  1.00  0.00     0.277 C 
HETATM    3  O   UNL     1      43.678 -12.389   3.138  1.00  0.00    -0.266 OA
HETATM    4  H   UNL     1      41.208 -13.616   4.694  1.00  0.00     0.169 HD
ENDROOT
BRANCH   2   5
HETATM    5  C   UNL     1      42.741 -14.557   3.102  1.00  0.00     0.157 A 
HETATM    6  N   UNL     1      43.308 -15.633   3.781  1.00  0.00    -0.216 NA
HETATM    7  C   UNL     1      43.002 -16.679   3.033  1.00  0.00     0.180 A 
HETATM    8  O   UNL     1      42.266 -16.372   1.921  1.00  0.00    -0.293 OA
HETATM    9  C   UNL     1      42.100 -15.016   1.967  1.00  0.00     0.094 A 
BRANCH   7  10
HETATM   10  C   UNL     1      43.334 -18.089   3.218  1.00  0.00     0.017 A 
HETATM   11  C   UNL     1      43.880 -18.527   4.435  1.00  0.00     0.016 A 
HETATM   12  C   UNL     1      44.209 -19.871   4.629  1.00  0.00     0.001 A 
HETATM   13  C   UNL     1      43.999 -20.796   3.607  1.00  0.00     0.000 A 
HETATM   14  C   UNL     1      43.460 -20.378   2.394  1.00  0.00     0.001 A 
HETATM   15  C   UNL     1      43.129 -19.034   2.201  1.00  0.00     0.016 A 
ENDBRANCH   7  10
BRANCH   9  16
HETATM   16  C   UNL     1      41.340 -14.222   0.919  1.00  0.00     0.046 A 
HETATM   17  C   UNL     1      40.086 -14.842   0.338  1.00  0.00     0.012 A 
HETATM   18  C   UNL     1      39.967 -13.702   1.289  1.00  0.00     0.012 A 
ENDBRANCH   9  16
ENDBRANCH   2   5
BRANCH   1  19
HETATM   19  C   UNL     1      41.742 -11.659   5.215  1.00  0.00     0.035 A 
HETATM   20  C   UNL     1      42.483 -11.324   6.351  1.00  0.00     0.038 A 
HETATM   21  C   UNL     1      42.383 -10.058   6.949  1.00  0.00    -0.030 A 
HETATM   22  C   UNL     1      41.480  -9.132   6.418  1.00  0.00     0.009 A 
HETATM   23  C   UNL     1      40.689  -9.480   5.320  1.00  0.00     0.003 A 
HETATM   24  C   UNL     1      40.818 -10.738   4.723  1.00  0.00     0.029 A 
BRANCH  21  25
HETATM   25  C   UNL     1      43.280  -9.723   8.109  1.00  0.00     0.272 C 
BRANCH  25  26
HETATM   26  N   UNL     1      42.702 -10.104   9.457  1.00  0.00    -0.075 N 
HETATM   27  C   UNL     1      41.843  -9.032  10.077  1.00  0.00     0.269 C 
HETATM   28  H   UNL     1      42.087 -10.909   9.289  1.00  0.00     0.279 HD
HETATM   29  C   UNL     1      43.782 -10.544  10.404  1.00  0.00     0.269 C 
ENDBRANCH  25  26
ENDBRANCH  21  25
ENDBRANCH   1  19
TORSDOF 6
ENDMDL
MODEL 5
REMARK VINA RESULT:      -7.7      4.210      8.008
REMARK  6 active torsions:
REMARK  status: ('A' for Active; 'I' for Inactive)
REMARK    1  A    between atoms: N_2  and  C_4 
REMARK    2  A    between atoms: C_4  and  C_5 
REMARK    3  A    between atoms: C_7  and  N_8 
REMARK       I    between atoms: N_8  and  C_9 
REMARK    4  A    between atoms: C_9  and  C_10 
REMARK    5  A    between atoms: C_12  and  C_13 
REMARK    6  A    between atoms: C_20  and  C_21 
ROOT
HETATM    1  N   UNL     1      41.978 -14.857   3.389  1.00  0.00    -0.322 N 
HETATM    2  C   UNL     1      42.360 -13.804   2.571  1.00  0.00     0.277 C 
HETATM    3  O   UNL     1      43.476 -13.291   2.562  1.00  0.00    -0.266 OA
HETATM    4  H   UNL     1      40.982 -15.069   3.366  1.00  0.00     0.169 HD
ENDROOT
BRANCH   2   5
HETATM    5  C   UNL     1      41.263 -13.328   1.735  1.00  0.00     0.157 A 
HETATM    6  N   UNL     1      40.853 -14.000   0.586  1.00  0.00    -0.216 NA
HETATM    7  C   UNL     1      39.865 -13.257   0.117  1.00  0.00     0.180 A 
HETATM    8  O   UNL     1      39.589 -12.155   0.879  1.00  0.00    -0.293 OA
HETATM    9  C   UNL     1      40.482 -12.202   1.912  1.00  0.00     0.094 A 
BRANCH   7  10
HETATM   10  C   UNL     1      39.046 -13.438  -1.078  1.00  0.00     0.017 A 
HETATM   11  C   UNL     1      39.203 -14.587  -1.868  1.00  0.00     0.016 A 
HETATM   12  C   UNL     1      38.432 -14.776  -3.018  1.00  0.00     0.001 A 
HETATM   13  C   UNL     1      37.494 -13.816  -3.394  1.00  0.00     0.000 A 
HETATM   14  C   UNL     1      37.325 -12.670  -2.623  1.00  0.00     0.001 A 
HETATM   15  C   UNL     1      38.096 -12.482  -1.472  1.00  0.00     0.016 A 
ENDBRANCH   7  10
BRANCH   9  16
HETATM   16  C   UNL     1      40.549 -11.165   3.019  1.00  0.00     0.046 A 
HETATM   17  C   UNL     1      39.426 -11.144   4.034  1.00  0.00     0.012 A 
HETATM   18  C   UNL     1      40.766 -11.657   4.435  1.00  0.00     0.012 A 
ENDBRANCH   9  16
ENDBRANCH   2   5
BRANCH   1  19
HETATM   19  C   UNL     1      42.794 -15.551   4.300  1.00  0.00     0.035 A 
HETATM   20  C   UNL     1      43.323 -16.814   4.024  1.00  0.00     0.038 A 
HETATM   21  C   UNL     1      44.216 -17.446   4.903  1.00  0.00    -0.030 A 
HETATM   22  C   UNL     1      44.539 -16.813   6.106  1.00  0.00     0.009 A 
HETATM   23  C   UNL     1      43.965 -15.578   6.420  1.00  0.00     0.003 A 
HETATM   24  C   UNL     1      43.095 -14.951   5.521  1.00  0.00     0.029 A 
BRANCH  21  25
HETATM   25  C   UNL     1      44.830 -18.761   4.504  1.00  0.00     0.272 C 
BRANCH  25  26
HETATM   26  N   UNL     1      43.816 -19.863   4.273  1.00  0.00    -0.075 N 
HETATM   27  C   UNL     1      43.975 -21.041   5.200  1.00  0.00     0.269 C 
HETATM   28  H   UNL     1      42.897 -19.454   4.475  1.00  0.00     0.279 HD
HETATM   29  C   UNL     1      43.814 -20.305   2.837  1.00  0.00     0.269 C 
ENDBRANCH  25  26
ENDBRANCH  21  25
ENDBRANCH   1  19
TORSDOF 6
ENDMDL
MODEL 6
REMARK VINA RESULT:      -7.7      4.341      7.841
REMARK  6 active torsions:
REMARK  status: ('A' for Active; 'I' for Inactive)
REMARK    1  A    between atoms: N_2  and  C_4 
REMARK    2  A    between atoms: C_4  and  C_5 
REMARK    3  A    between atoms: C_7  and  N_8 
REMARK       I    between atoms: N_8  and  C_9 
REMARK    4  A    between atoms: C_9  and  C_10 
REMARK    5  A    between atoms: C_12  and  C_13 
REMARK    6  A    between atoms: C_20  and  C_21 
ROOT
HETATM    1  N   UNL     1      40.690 -14.296   0.391  1.00  0.00    -0.322 N 
HETATM    2  C   UNL     1      41.628 -13.757   1.259  1.00  0.00     0.277 C 
HETATM    3  O   UNL     1      42.017 -12.592   1.240  1.00  0.00    -0.266 OA
HETATM    4  H   UNL     1      40.586 -15.307   0.457  1.00  0.00     0.169 HD
ENDROOT
BRANCH   2   5
HETATM    5  C   UNL     1      42.153 -14.751   2.190  1.00  0.00     0.157 A 
HETATM    6  N   UNL     1      42.396 -16.070   1.816  1.00  0.00    -0.216 NA
HETATM    7  C   UNL     1      42.843 -16.639   2.923  1.00  0.00     0.180 A 
HETATM    8  O   UNL     1      42.921 -15.789   3.992  1.00  0.00    -0.293 OA
HETATM    9  C   UNL     1      42.480 -14.584   3.522  1.00  0.00     0.094 A 
BRANCH   7  10
HETATM   10  C   UNL     1      43.252 -18.020   3.164  1.00  0.00     0.017 A 
HETATM   11  C   UNL     1      43.084 -18.986   2.161  1.00  0.00     0.016 A 
HETATM   12  C   UNL     1      43.464 -20.314   2.376  1.00  0.00     0.001 A 
HETATM   13  C   UNL     1      44.016 -20.693   3.598  1.00  0.00     0.000 A 
HETATM   14  C   UNL     1      44.188 -19.747   4.605  1.00  0.00     0.001 A 
HETATM   15  C   UNL     1      43.809 -18.420   4.390  1.00  0.00     0.016 A 
ENDBRANCH   7  10
BRANCH   9  16
HETATM   16  C   UNL     1      42.389 -13.328   4.371  1.00  0.00     0.046 A 
HETATM   17  C   UNL     1      41.199 -13.189   5.299  1.00  0.00     0.012 A 
HETATM   18  C   UNL     1      42.545 -13.477   5.870  1.00  0.00     0.012 A 
ENDBRANCH   9  16
ENDBRANCH   2   5
BRANCH   1  19
HETATM   19  C   UNL     1      39.986 -13.609  -0.614  1.00  0.00     0.035 A 
HETATM   20  C   UNL     1      39.336 -12.395  -0.380  1.00  0.00     0.038 A 
HETATM   21  C   UNL     1      38.724 -11.676  -1.418  1.00  0.00    -0.030 A 
HETATM   22  C   UNL     1      38.723 -12.220  -2.706  1.00  0.00     0.009 A 
HETATM   23  C   UNL     1      39.315 -13.464  -2.937  1.00  0.00     0.003 A 
HETATM   24  C   UNL     1      39.942 -14.157  -1.895  1.00  0.00     0.029 A 
BRANCH  21  25
HETATM   25  C   UNL     1      38.128 -10.326  -1.123  1.00  0.00     0.272 C 
BRANCH  25  26
HETATM   26  N   UNL     1      36.727 -10.390  -0.547  1.00  0.00    -0.075 N 
HETATM   27  C   UNL     1      35.688  -9.704  -1.396  1.00  0.00     0.269 C 
HETATM   28  H   UNL     1      36.473 -11.384  -0.521  1.00  0.00     0.279 HD
HETATM   29  C   UNL     1      36.698  -9.873   0.863  1.00  0.00     0.269 C 
ENDBRANCH  25  26
ENDBRANCH  21  25
ENDBRANCH   1  19
TORSDOF 6
ENDMDL
MODEL 7
REMARK VINA RESULT:      -7.6      2.876      3.870
REMARK  6 active torsions:
REMARK  status: ('A' for Active; 'I' for Inactive)
REMARK    1  A    between atoms: N_2  and  C_4 
REMARK    2  A    between atoms: C_4  and  C_5 
REMARK    3  A    between atoms: C_7  and  N_8 
REMARK       I    between atoms: N_8  and  C_9 
REMARK    4  A    between atoms: C_9  and  C_10 
REMARK    5  A    between atoms: C_12  and  C_13 
REMARK    6  A    between atoms: C_20  and  C_21 
ROOT
HETATM    1  N   UNL     1      42.393 -12.986   4.861  1.00  0.00    -0.322 N 
HETATM    2  C   UNL     1      43.052 -13.195   3.659  1.00  0.00     0.277 C 
HETATM    3  O   UNL     1      43.690 -12.341   3.049  1.00  0.00    -0.266 OA
HETATM    4  H   UNL     1      41.802 -13.760   5.158  1.00  0.00     0.169 HD
ENDROOT
BRANCH   2   5
HETATM    5  C   UNL     1      42.870 -14.554   3.159  1.00  0.00     0.157 A 
HETATM    6  N   UNL     1      43.430 -15.663   3.788  1.00  0.00    -0.216 NA
HETATM    7  C   UNL     1      43.052 -16.682   3.035  1.00  0.00     0.180 A 
HETATM    8  O   UNL     1      42.277 -16.325   1.966  1.00  0.00    -0.293 OA
HETATM    9  C   UNL     1      42.162 -14.966   2.046  1.00  0.00     0.094 A 
BRANCH   7  10
HETATM   10  C   UNL     1      43.342 -18.107   3.176  1.00  0.00     0.017 A 
HETATM   11  C   UNL     1      43.909 -18.592   4.365  1.00  0.00     0.016 A 
HETATM   12  C   UNL     1      44.199 -19.951   4.516  1.00  0.00     0.001 A 
HETATM   13  C   UNL     1      43.927 -20.842   3.479  1.00  0.00     0.000 A 
HETATM   14  C   UNL     1      43.366 -20.377   2.293  1.00  0.00     0.001 A 
HETATM   15  C   UNL     1      43.075 -19.018   2.143  1.00  0.00     0.016 A 
ENDBRANCH   7  10
BRANCH   9  16
HETATM   16  C   UNL     1      41.382 -14.124   1.052  1.00  0.00     0.046 A 
HETATM   17  C   UNL     1      40.129 -14.724   0.450  1.00  0.00     0.012 A 
HETATM   18  C   UNL     1      40.008 -13.639   1.464  1.00  0.00     0.012 A 
ENDBRANCH   9  16
ENDBRANCH   2   5
BRANCH   1  19
HETATM   19  C   UNL     1      42.377 -11.798   5.614  1.00  0.00     0.035 A 
HETATM   20  C   UNL     1      41.422 -10.799   5.420  1.00  0.00     0.038 A 
HETATM   21  C   UNL     1      41.362  -9.666   6.247  1.00  0.00    -0.030 A 
HETATM   22  C   UNL     1      42.320  -9.517   7.255  1.00  0.00     0.009 A 
HETATM   23  C   UNL     1      43.318 -10.481   7.416  1.00  0.00     0.003 A 
HETATM   24  C   UNL     1      43.348 -11.616   6.597  1.00  0.00     0.029 A 
BRANCH  21  25
HETATM   25  C   UNL     1      40.249  -8.674   6.052  1.00  0.00     0.272 C 
BRANCH  25  26
HETATM   26  N   UNL     1      39.480  -8.864   4.759  1.00  0.00    -0.075 N 
HETATM   27  C   UNL     1      39.772  -7.815   3.717  1.00  0.00     0.269 C 
HETATM   28  H   UNL     1      39.795  -9.759   4.368  1.00  0.00     0.279 HD
HETATM   29  C   UNL     1      38.005  -8.971   5.017  1.00  0.00     0.269 C 
ENDBRANCH  25  26
ENDBRANCH  21  25
ENDBRANCH   1  19
TORSDOF 6
ENDMDL
MODEL 8
REMARK VINA RESULT:      -7.6      2.284      8.804
REMARK  6 active torsions:
REMARK  status: ('A' for Active; 'I' for Inactive)
REMARK    1  A    between atoms: N_2  and  C_4 
REMARK    2  A    between atoms: C_4  and  C_5 
REMARK    3  A    between atoms: C_7  and  N_8 
REMARK       I    between atoms: N_8  and  C_9 
REMARK    4  A    between atoms: C_9  and  C_10 
REMARK    5  A    between atoms: C_12  and  C_13 
REMARK    6  A    between atoms: C_20  and  C_21 
ROOT
HETATM    1  N   UNL     1      42.472 -14.169   4.856  1.00  0.00    -0.322 N 
HETATM    2  C   UNL     1      42.894 -12.888   4.529  1.00  0.00     0.277 C 
HETATM    3  O   UNL     1      43.439 -12.576   3.474  1.00  0.00    -0.266 OA
HETATM    4  H   UNL     1      42.166 -14.278   5.822  1.00  0.00     0.169 HD
ENDROOT
BRANCH   2   5
HETATM    5  C   UNL     1      42.660 -11.938   5.611  1.00  0.00     0.157 A 
HETATM    6  N   UNL     1      43.634 -11.627   6.557  1.00  0.00    -0.216 NA
HETATM    7  C   UNL     1      43.038 -10.758   7.355  1.00  0.00     0.180 A 
HETATM    8  O   UNL     1      41.750 -10.466   6.997  1.00  0.00    -0.293 OA
HETATM    9  C   UNL     1      41.511 -11.220   5.883  1.00  0.00     0.094 A 
BRANCH   7  10
HETATM   10  C   UNL     1      43.547 -10.081   8.546  1.00  0.00     0.017 A 
HETATM   11  C   UNL     1      42.969  -8.873   8.966  1.00  0.00     0.016 A 
HETATM   12  C   UNL     1      43.446  -8.209  10.099  1.00  0.00     0.001 A 
HETATM   13  C   UNL     1      44.508  -8.743  10.826  1.00  0.00     0.000 A 
HETATM   14  C   UNL     1      45.093  -9.940  10.423  1.00  0.00     0.001 A 
HETATM   15  C   UNL     1      44.616 -10.605   9.290  1.00  0.00     0.016 A 
ENDBRANCH   7  10
BRANCH   9  16
HETATM   16  C   UNL     1      40.191 -11.222   5.132  1.00  0.00     0.046 A 
HETATM   17  C   UNL     1      39.200 -12.323   5.451  1.00  0.00     0.012 A 
HETATM   18  C   UNL     1      38.930 -10.934   5.921  1.00  0.00     0.012 A 
ENDBRANCH   9  16
ENDBRANCH   2   5
BRANCH   1  19
HETATM   19  C   UNL     1      42.539 -15.309   4.036  1.00  0.00     0.035 A 
HETATM   20  C   UNL     1      43.470 -16.329   4.243  1.00  0.00     0.038 A 
HETATM   21  C   UNL     1      43.457 -17.504   3.476  1.00  0.00    -0.030 A 
HETATM   22  C   UNL     1      42.518 -17.627   2.447  1.00  0.00     0.009 A 
HETATM   23  C   UNL     1      41.624 -16.585   2.192  1.00  0.00     0.003 A 
HETATM   24  C   UNL     1      41.636 -15.429   2.981  1.00  0.00     0.029 A 
BRANCH  21  25
HETATM   25  C   UNL     1      44.420 -18.610   3.812  1.00  0.00     0.272 C 
BRANCH  25  26
HETATM   26  N   UNL     1      43.751 -19.943   4.080  1.00  0.00    -0.075 N 
HETATM   27  C   UNL     1      44.232 -20.625   5.335  1.00  0.00     0.269 C 
HETATM   28  H   UNL     1      42.755 -19.740   4.222  1.00  0.00     0.279 HD
HETATM   29  C   UNL     1      43.867 -20.855   2.892  1.00  0.00     0.269 C 
ENDBRANCH  25  26
ENDBRANCH  21  25
ENDBRANCH   1  19
TORSDOF 6
ENDMDL
MODEL 9
REMARK VINA RESULT:      -7.6      3.060      8.986
REMARK  6 active torsions:
REMARK  status: ('A' for Active; 'I' for Inactive)
REMARK    1  A    between atoms: N_2  and  C_4 
REMARK    2  A    between atoms: C_4  and  C_5 
REMARK    3  A    between atoms: C_7  and  N_8 
REMARK       I    between atoms: N_8  and  C_9 
REMARK    4  A    between atoms: C_9  and  C_10 
REMARK    5  A    between atoms: C_12  and  C_13 
REMARK    6  A    between atoms: C_20  and  C_21 
ROOT
HETATM    1  N   UNL     1      41.515 -13.485   3.315  1.00  0.00    -0.322 N 
HETATM    2  C   UNL     1      42.814 -13.819   3.668  1.00  0.00     0.277 C 
HETATM    3  O   UNL     1      43.563 -14.529   3.002  1.00  0.00    -0.266 OA
HETATM    4  H   UNL     1      40.990 -13.004   4.043  1.00  0.00     0.169 HD
ENDROOT
BRANCH   2   5
HETATM    5  C   UNL     1      43.193 -13.267   4.964  1.00  0.00     0.157 A 
HETATM    6  N   UNL     1      43.631 -11.954   5.118  1.00  0.00    -0.216 NA
HETATM    7  C   UNL     1      43.883 -11.851   6.412  1.00  0.00     0.180 A 
HETATM    8  O   UNL     1      43.632 -12.994   7.120  1.00  0.00    -0.293 OA
HETATM    9  C   UNL     1      43.191 -13.897   6.194  1.00  0.00     0.094 A 
BRANCH   7  10
HETATM   10  C   UNL     1      44.387 -10.713   7.178  1.00  0.00     0.017 A 
HETATM   11  C   UNL     1      45.769 -10.531   7.335  1.00  0.00     0.016 A 
HETATM   12  C   UNL     1      46.269  -9.452   8.069  1.00  0.00     0.001 A 
HETATM   13  C   UNL     1      45.393  -8.542   8.657  1.00  0.00     0.000 A 
HETATM   14  C   UNL     1      44.019  -8.708   8.511  1.00  0.00     0.001 A 
HETATM   15  C   UNL     1      43.519  -9.787   7.776  1.00  0.00     0.016 A 
ENDBRANCH   7  10
BRANCH   9  16
HETATM   16  C   UNL     1      42.791 -15.323   6.529  1.00  0.00     0.046 A 
HETATM   17  C   UNL     1      43.896 -16.304   6.863  1.00  0.00     0.012 A 
HETATM   18  C   UNL     1      43.009 -15.802   7.950  1.00  0.00     0.012 A 
ENDBRANCH   9  16
ENDBRANCH   2   5
BRANCH   1  19
HETATM   19  C   UNL     1      40.850 -13.843   2.129  1.00  0.00     0.035 A 
HETATM   20  C   UNL     1      40.528 -12.914   1.138  1.00  0.00     0.038 A 
HETATM   21  C   UNL     1      39.953 -13.307  -0.081  1.00  0.00    -0.030 A 
HETATM   22  C   UNL     1      39.652 -14.657  -0.280  1.00  0.00     0.009 A 
HETATM   23  C   UNL     1      39.912 -15.585   0.731  1.00  0.00     0.003 A 
HETATM   24  C   UNL     1      40.507 -15.180   1.931  1.00  0.00     0.029 A 
BRANCH  21  25
HETATM   25  C   UNL     1      39.722 -12.272  -1.149  1.00  0.00     0.272 C 
BRANCH  25  26
HETATM   26  N   UNL     1      40.997 -11.746  -1.776  1.00  0.00    -0.075 N 
HETATM   27  C   UNL     1      41.076 -10.242  -1.827  1.00  0.00     0.269 C 
HETATM   28  H   UNL     1      41.765 -12.058  -1.170  1.00  0.00     0.279 HD
HETATM   29  C   UNL     1      41.218 -12.344  -3.137  1.00  0.00     0.269 C 
ENDBRANCH  25  26
ENDBRANCH  21  25
ENDBRANCH   1  19
TORSDOF 6
ENDMDL
MODEL 10
REMARK VINA RESULT:      -7.6      3.740      5.946
REMARK  6 active torsions:
REMARK  status: ('A' for Active; 'I' for Inactive)
REMARK    1  A    between atoms: N_2  and  C_4 
REMARK    2  A    between atoms: C_4  and  C_5 
REMARK    3  A    between atoms: C_7  and  N_8 
REMARK       I    between atoms: N_8  and  C_9 
REMARK    4  A    between atoms: C_9  and  C_10 
REMARK    5  A    between atoms: C_12  and  C_13 
REMARK    6  A    between atoms: C_20  and  C_21 
ROOT
HETATM    1  N   UNL     1      41.489 -11.979   4.015  1.00  0.00    -0.322 N 
HETATM    2  C   UNL     1      42.192 -11.835   2.828  1.00  0.00     0.277 C 
HETATM    3  O   UNL     1      43.126 -11.057   2.654  1.00  0.00    -0.266 OA
HETATM    4  H   UNL     1      40.660 -12.566   3.946  1.00  0.00     0.169 HD
ENDROOT
BRANCH   2   5
HETATM    5  C   UNL     1      41.666 -12.690   1.769  1.00  0.00     0.157 A 
HETATM    6  N   UNL     1      40.647 -12.279   0.913  1.00  0.00    -0.216 NA
HETATM    7  C   UNL     1      40.452 -13.322   0.124  1.00  0.00     0.180 A 
HETATM    8  O   UNL     1      41.275 -14.382   0.391  1.00  0.00    -0.293 OA
HETATM    9  C   UNL     1      42.049 -13.977   1.441  1.00  0.00     0.094 A 
BRANCH   7  10
HETATM   10  C   UNL     1      39.499 -13.502  -0.968  1.00  0.00     0.017 A 
HETATM   11  C   UNL     1      38.408 -12.629  -1.097  1.00  0.00     0.016 A 
HETATM   12  C   UNL     1      37.483 -12.790  -2.132  1.00  0.00     0.001 A 
HETATM   13  C   UNL     1      37.635 -13.827  -3.050  1.00  0.00     0.000 A 
HETATM   14  C   UNL     1      38.711 -14.703  -2.936  1.00  0.00     0.001 A 
HETATM   15  C   UNL     1      39.637 -14.542  -1.901  1.00  0.00     0.016 A 
ENDBRANCH   7  10
BRANCH   9  16
HETATM   16  C   UNL     1      43.118 -14.841   2.086  1.00  0.00     0.046 A 
HETATM   17  C   UNL     1      42.675 -15.855   3.120  1.00  0.00     0.012 A 
HETATM   18  C   UNL     1      43.109 -16.323   1.774  1.00  0.00     0.012 A 
ENDBRANCH   9  16
ENDBRANCH   2   5
BRANCH   1  19
HETATM   19  C   UNL     1      41.746 -11.314   5.228  1.00  0.00     0.035 A 
HETATM   20  C   UNL     1      42.886 -11.563   5.994  1.00  0.00     0.038 A 
HETATM   21  C   UNL     1      43.174 -10.819   7.149  1.00  0.00    -0.030 A 
HETATM   22  C   UNL     1      42.267  -9.840   7.564  1.00  0.00     0.009 A 
HETATM   23  C   UNL     1      41.092  -9.627   6.838  1.00  0.00     0.003 A 
HETATM   24  C   UNL     1      40.832 -10.362   5.676  1.00  0.00     0.029 A 
BRANCH  21  25
HETATM   25  C   UNL     1      44.468 -11.067   7.876  1.00  0.00     0.272 C 
BRANCH  25  26
HETATM   26  N   UNL     1      44.967  -9.870   8.660  1.00  0.00    -0.075 N 
HETATM   27  C   UNL     1      46.210  -9.240   8.085  1.00  0.00     0.269 C 
HETATM   28  H   UNL     1      44.227  -9.160   8.602  1.00  0.00     0.279 HD
HETATM   29  C   UNL     1      45.158 -10.213  10.110  1.00  0.00     0.269 C 
ENDBRANCH  25  26
ENDBRANCH  21  25
ENDBRANCH   1  19
TORSDOF 6
ENDMDL
