MODEL 1
REMARK VINA RESULT:      -8.1      0.000      0.000
REMARK  3 active torsions:
REMARK  status: ('A' for Active; 'I' for Inactive)
REMARK    1  A    between atoms: C_6  and  C_7 
REMARK       I    between atoms: C_7  and  N_8 
REMARK    2  A    between atoms: N_8  and  C_9 
REMARK    3  A    between atoms: C_9  and  C_10 
ROOT
HETATM    1  C   UNL     1      42.484 -14.402   5.077  1.00  0.00     0.271 C 
HETATM    2  N   UNL     1      43.371 -13.437   5.487  1.00  0.00    -0.341 N 
HETATM    3  O   UNL     1      41.427 -14.112   4.527  1.00  0.00    -0.266 OA
HETATM    4  H   UNL     1      44.150 -13.716   6.071  1.00  0.00     0.164 HD
ENDROOT
BRANCH   1   5
HETATM    5  C   UNL     1      42.878 -15.762   5.364  1.00  0.00     0.133 A 
HETATM    6  N   UNL     1      43.096 -16.737   4.399  1.00  0.00    -0.300 N 
HETATM    7  C   UNL     1      43.482 -17.894   5.069  1.00  0.00     0.135 A 
HETATM    8  C   UNL     1      42.968 -16.689   3.007  1.00  0.00     0.100 A 
HETATM    9  C   UNL     1      43.766 -19.050   4.288  1.00  0.00     0.057 A 
HETATM   10  N   UNL     1      43.524 -17.711   6.367  1.00  0.00    -0.233 NA
HETATM   11  C   UNL     1      43.655 -19.011   2.943  1.00  0.00    -0.057 A 
HETATM   12  C   UNL     1      43.952 -20.192   2.070  1.00  0.00     0.048 C 
HETATM   13  C   UNL     1      43.234 -17.783   2.274  1.00  0.00     0.024 A 
HETATM   14  C   UNL     1      43.174 -16.397   6.569  1.00  0.00     0.066 A 
HETATM   15  C   UNL     1      43.199 -15.866   7.955  1.00  0.00     0.073 C 
ENDBRANCH   1   5
BRANCH   2  16
HETATM   16  C   UNL     1      43.204 -11.981   5.312  1.00  0.00     0.079 C 
HETATM   17  C   UNL     1      43.527 -11.574   3.863  1.00  0.00     0.046 C 
HETATM   18  C   UNL     1      41.774 -11.560   5.695  1.00  0.00     0.046 C 
BRANCH  16  19
HETATM   19  C   UNL     1      44.210 -11.335   6.269  1.00  0.00     0.128 A 
HETATM   20  S   UNL     1      43.743 -10.286   7.556  1.00  0.00    -0.031 SA
HETATM   21  C   UNL     1      45.405 -10.141   7.959  1.00  0.00     0.187 A 
HETATM   22  N   UNL     1      45.818  -9.373   8.982  1.00  0.00    -0.377 N 
HETATM   23  N   UNL     1      46.201 -10.830   7.173  1.00  0.00    -0.124 NA
HETATM   24  H   UNL     1      45.206  -8.636   9.311  1.00  0.00     0.158 HD
HETATM   25  H   UNL     1      46.804  -9.135   8.992  1.00  0.00     0.158 HD
HETATM   26  N   UNL     1      45.516 -11.521   6.197  1.00  0.00    -0.142 NA
ENDBRANCH  16  19
ENDBRANCH   2  16
TORSDOF 3
ENDMDL
MODEL 2
REMARK VINA RESULT:      -8.1      2.844      4.370
REMARK  3 active torsions:
REMARK  status: ('A' for Active; 'I' for Inactive)
REMARK    1  A    between atoms: C_6  and  C_7 
REMARK       I    between atoms: C_7  and  N_8 
REMARK    2  A    between atoms: N_8  and  C_9 
REMARK    3  A    between atoms: C_9  and  C_10 
ROOT
HETATM    1  C   UNL     1      42.043 -14.908   5.046  1.00  0.00     0.271 C 
HETATM    2  N   UNL     1      42.801 -13.945   4.428  1.00  0.00    -0.341 N 
HETATM    3  O   UNL     1      40.890 -14.689   5.404  1.00  0.00    -0.266 OA
HETATM    4  H   UNL     1      43.790 -14.123   4.294  1.00  0.00     0.164 HD
ENDROOT
BRANCH   1   5
HETATM    5  C   UNL     1      42.708 -16.173   5.260  1.00  0.00     0.133 A 
HETATM    6  N   UNL     1      42.917 -17.128   4.273  1.00  0.00    -0.300 N 
HETATM    7  C   UNL     1      43.607 -18.181   4.866  1.00  0.00     0.135 A 
HETATM    8  C   UNL     1      42.538 -17.149   2.927  1.00  0.00     0.100 A 
HETATM    9  C   UNL     1      43.943 -19.298   4.049  1.00  0.00     0.057 A 
HETATM   10  N   UNL     1      43.846 -17.951   6.135  1.00  0.00    -0.233 NA
HETATM   11  C   UNL     1      43.590 -19.323   2.746  1.00  0.00    -0.057 A 
HETATM   12  C   UNL     1      43.927 -20.465   1.836  1.00  0.00     0.048 C 
HETATM   13  C   UNL     1      42.854 -18.205   2.161  1.00  0.00     0.024 A 
HETATM   14  C   UNL     1      43.317 -16.709   6.394  1.00  0.00     0.066 A 
HETATM   15  C   UNL     1      43.495 -16.136   7.751  1.00  0.00     0.073 C 
ENDBRANCH   1   5
BRANCH   2  16
HETATM   16  C   UNL     1      42.356 -12.577   4.096  1.00  0.00     0.079 C 
HETATM   17  C   UNL     1      41.784 -11.882   5.345  1.00  0.00     0.046 C 
HETATM   18  C   UNL     1      43.522 -11.767   3.503  1.00  0.00     0.046 C 
BRANCH  16  19
HETATM   19  C   UNL     1      41.254 -12.747   3.047  1.00  0.00     0.128 A 
HETATM   20  S   UNL     1      41.494 -13.587   1.560  1.00  0.00    -0.031 SA
HETATM   21  C   UNL     1      39.857 -13.246   1.174  1.00  0.00     0.187 A 
HETATM   22  N   UNL     1      39.307 -13.646   0.014  1.00  0.00    -0.377 N 
HETATM   23  N   UNL     1      39.227 -12.561   2.102  1.00  0.00    -0.124 NA
HETATM   24  H   UNL     1      39.921 -13.859  -0.763  1.00  0.00     0.158 HD
HETATM   25  H   UNL     1      38.439 -13.191  -0.250  1.00  0.00     0.158 HD
HETATM   26  N   UNL     1      40.029 -12.272   3.185  1.00  0.00    -0.142 NA
ENDBRANCH  16  19
ENDBRANCH   2  16
TORSDOF 3
ENDMDL
MODEL 3
REMARK VINA RESULT:      -7.9      3.634      5.371
REMARK  3 active torsions:
REMARK  status: ('A' for Active; 'I' for Inactive)
REMARK    1  A    between atoms: C_6  and  C_7 
REMARK       I    between atoms: C_7  and  N_8 
REMARK    2  A    between atoms: N_8  and  C_9 
REMARK    3  A    between atoms: C_9  and  C_10 
ROOT
HETATM    1  C   UNL     1      42.651 -14.309   3.332  1.00  0.00     0.271 C 
HETATM    2  N   UNL     1      41.337 -13.951   3.508  1.00  0.00    -0.341 N 
HETATM    3  O   UNL     1      43.366 -13.749   2.507  1.00  0.00    -0.266 OA
HETATM    4  H   UNL     1      40.750 -14.542   4.085  1.00  0.00     0.164 HD
ENDROOT
BRANCH   1   5
HETATM    5  C   UNL     1      43.110 -15.397   4.165  1.00  0.00     0.133 A 
HETATM    6  N   UNL     1      43.259 -16.709   3.732  1.00  0.00    -0.300 N 
HETATM    7  C   UNL     1      43.743 -17.441   4.812  1.00  0.00     0.135 A 
HETATM    8  C   UNL     1      42.992 -17.298   2.492  1.00  0.00     0.100 A 
HETATM    9  C   UNL     1      43.981 -18.831   4.618  1.00  0.00     0.057 A 
HETATM   10  N   UNL     1      43.908 -16.688   5.873  1.00  0.00    -0.233 NA
HETATM   11  C   UNL     1      43.736 -19.407   3.422  1.00  0.00    -0.057 A 
HETATM   12  C   UNL     1      43.979 -20.862   3.156  1.00  0.00     0.048 C 
HETATM   13  C   UNL     1      43.216 -18.610   2.314  1.00  0.00     0.024 A 
HETATM   14  C   UNL     1      43.542 -15.420   5.490  1.00  0.00     0.066 A 
HETATM   15  C   UNL     1      43.689 -14.316   6.472  1.00  0.00     0.073 C 
ENDBRANCH   1   5
BRANCH   2  16
HETATM   16  C   UNL     1      40.631 -12.876   2.784  1.00  0.00     0.079 C 
HETATM   17  C   UNL     1      39.256 -12.613   3.423  1.00  0.00     0.046 C 
HETATM   18  C   UNL     1      41.484 -11.595   2.768  1.00  0.00     0.046 C 
BRANCH  16  19
HETATM   19  C   UNL     1      40.447 -13.396   1.355  1.00  0.00     0.128 A 
HETATM   20  S   UNL     1      40.894 -12.487  -0.041  1.00  0.00    -0.031 SA
HETATM   21  C   UNL     1      40.348 -13.803  -0.997  1.00  0.00     0.187 A 
HETATM   22  N   UNL     1      40.398 -13.767  -2.340  1.00  0.00    -0.377 N 
HETATM   23  N   UNL     1      39.880 -14.809  -0.294  1.00  0.00    -0.124 NA
HETATM   24  H   UNL     1      40.449 -12.865  -2.798  1.00  0.00     0.158 HD
HETATM   25  H   UNL     1      39.829 -14.452  -2.827  1.00  0.00     0.158 HD
HETATM   26  N   UNL     1      39.936 -14.579   1.064  1.00  0.00    -0.142 NA
ENDBRANCH  16  19
ENDBRANCH   2  16
TORSDOF 3
ENDMDL
MODEL 4
REMARK VINA RESULT:      -7.7      5.328      7.290
REMARK  3 active torsions:
REMARK  status: ('A' for Active; 'I' for Inactive)
REMARK    1  A    between atoms: C_6  and  C_7 
REMARK       I    between atoms: C_7  and  N_8 
REMARK    2  A    between atoms: N_8  and  C_9 
REMARK    3  A    between atoms: C_9  and  C_10 
ROOT
HETATM    1  C   UNL     1      40.628 -12.818   2.239  1.00  0.00     0.271 C 
HETATM    2  N   UNL     1      39.984 -13.248   1.105  1.00  0.00    -0.341 N 
HETATM    3  O   UNL     1      40.941 -11.642   2.395  1.00  0.00    -0.266 OA
HETATM    4  H   UNL     1      39.888 -14.246   0.956  1.00  0.00     0.164 HD
ENDROOT
BRANCH   1   5
HETATM    5  C   UNL     1      40.924 -13.848   3.208  1.00  0.00     0.133 A 
HETATM    6  N   UNL     1      41.721 -14.958   2.956  1.00  0.00    -0.300 N 
HETATM    7  C   UNL     1      41.784 -15.691   4.137  1.00  0.00     0.135 A 
HETATM    8  C   UNL     1      42.368 -15.372   1.787  1.00  0.00     0.100 A 
HETATM    9  C   UNL     1      42.552 -16.889   4.135  1.00  0.00     0.057 A 
HETATM   10  N   UNL     1      41.095 -15.121   5.098  1.00  0.00    -0.233 NA
HETATM   11  C   UNL     1      43.188 -17.292   3.014  1.00  0.00    -0.057 A 
HETATM   12  C   UNL     1      44.019 -18.538   2.956  1.00  0.00     0.048 C 
HETATM   13  C   UNL     1      43.089 -16.505   1.788  1.00  0.00     0.024 A 
HETATM   14  C   UNL     1      40.573 -13.974   4.551  1.00  0.00     0.066 A 
HETATM   15  C   UNL     1      39.791 -13.067   5.429  1.00  0.00     0.073 C 
ENDBRANCH   1   5
BRANCH   2  16
HETATM   16  C   UNL     1      39.573 -12.398  -0.028  1.00  0.00     0.079 C 
HETATM   17  C   UNL     1      38.355 -11.540   0.360  1.00  0.00     0.046 C 
HETATM   18  C   UNL     1      40.746 -11.512  -0.483  1.00  0.00     0.046 C 
BRANCH  16  19
HETATM   19  C   UNL     1      39.188 -13.367  -1.150  1.00  0.00     0.128 A 
HETATM   20  S   UNL     1      38.507 -12.849  -2.647  1.00  0.00    -0.031 SA
HETATM   21  C   UNL     1      38.461 -14.497  -3.126  1.00  0.00     0.187 A 
HETATM   22  N   UNL     1      37.979 -14.869  -4.324  1.00  0.00    -0.377 N 
HETATM   23  N   UNL     1      38.920 -15.324  -2.215  1.00  0.00    -0.124 NA
HETATM   24  H   UNL     1      37.354 -14.238  -4.811  1.00  0.00     0.158 HD
HETATM   25  H   UNL     1      37.746 -15.852  -4.426  1.00  0.00     0.158 HD
HETATM   26  N   UNL     1      39.342 -14.677  -1.073  1.00  0.00    -0.142 NA
ENDBRANCH  16  19
ENDBRANCH   2  16
TORSDOF 3
ENDMDL
MODEL 5
REMARK VINA RESULT:      -7.6      2.891      3.228
REMARK  3 active torsions:
REMARK  status: ('A' for Active; 'I' for Inactive)
REMARK    1  A    between atoms: C_6  and  C_7 
REMARK       I    between atoms: C_7  and  N_8 
REMARK    2  A    between atoms: N_8  and  C_9 
REMARK    3  A    between atoms: C_9  and  C_10 
ROOT
HETATM    1  C   UNL     1      42.433 -14.136   4.727  1.00  0.00     0.271 C 
HETATM    2  N   UNL     1      41.118 -14.021   4.347  1.00  0.00    -0.341 N 
HETATM    3  O   UNL     1      43.199 -13.178   4.693  1.00  0.00    -0.266 OA
HETATM    4  H   UNL     1      40.571 -14.868   4.245  1.00  0.00     0.164 HD
ENDROOT
BRANCH   1   5
HETATM    5  C   UNL     1      42.842 -15.460   5.138  1.00  0.00     0.133 A 
HETATM    6  N   UNL     1      43.066 -16.519   4.268  1.00  0.00    -0.300 N 
HETATM    7  C   UNL     1      43.467 -17.603   5.042  1.00  0.00     0.135 A 
HETATM    8  C   UNL     1      42.931 -16.604   2.879  1.00  0.00     0.100 A 
HETATM    9  C   UNL     1      43.760 -18.825   4.372  1.00  0.00     0.057 A 
HETATM   10  N   UNL     1      43.514 -17.298   6.317  1.00  0.00    -0.233 NA
HETATM   11  C   UNL     1      43.642 -18.915   3.030  1.00  0.00    -0.057 A 
HETATM   12  C   UNL     1      43.947 -20.170   2.271  1.00  0.00     0.048 C 
HETATM   13  C   UNL     1      43.205 -17.760   2.251  1.00  0.00     0.024 A 
HETATM   14  C   UNL     1      43.150 -15.975   6.396  1.00  0.00     0.066 A 
HETATM   15  C   UNL     1      43.177 -15.315   7.726  1.00  0.00     0.073 C 
ENDBRANCH   1   5
BRANCH   2  16
HETATM   16  C   UNL     1      40.458 -12.784   3.888  1.00  0.00     0.079 C 
HETATM   17  C   UNL     1      41.436 -11.928   3.063  1.00  0.00     0.046 C 
HETATM   18  C   UNL     1      39.200 -13.125   3.068  1.00  0.00     0.046 C 
BRANCH  16  19
HETATM   19  C   UNL     1      40.060 -12.034   5.163  1.00  0.00     0.128 A 
HETATM   20  S   UNL     1      40.833 -10.581   5.678  1.00  0.00    -0.031 SA
HETATM   21  C   UNL     1      39.773 -10.567   7.026  1.00  0.00     0.187 A 
HETATM   22  N   UNL     1      39.832  -9.602   7.961  1.00  0.00    -0.377 N 
HETATM   23  N   UNL     1      38.935 -11.579   7.050  1.00  0.00    -0.124 NA
HETATM   24  H   UNL     1      40.690  -9.072   8.053  1.00  0.00     0.158 HD
HETATM   25  H   UNL     1      39.366  -9.801   8.839  1.00  0.00     0.158 HD
HETATM   26  N   UNL     1      39.096 -12.428   5.976  1.00  0.00    -0.142 NA
ENDBRANCH  16  19
ENDBRANCH   2  16
TORSDOF 3
ENDMDL
MODEL 6
REMARK VINA RESULT:      -7.4      3.570      6.765
REMARK  3 active torsions:
REMARK  status: ('A' for Active; 'I' for Inactive)
REMARK    1  A    between atoms: C_6  and  C_7 
REMARK       I    between atoms: C_7  and  N_8 
REMARK    2  A    between atoms: N_8  and  C_9 
REMARK    3  A    between atoms: C_9  and  C_10 
ROOT
HETATM    1  C   UNL     1      41.971 -15.168   4.394  1.00  0.00     0.271 C 
HETATM    2  N   UNL     1      43.230 -15.664   4.624  1.00  0.00    -0.341 N 
HETATM    3  O   UNL     1      40.992 -15.590   5.002  1.00  0.00    -0.266 OA
HETATM    4  H   UNL     1      43.976 -15.395   3.992  1.00  0.00     0.164 HD
ENDROOT
BRANCH   1   5
HETATM    5  C   UNL     1      41.887 -14.144   3.378  1.00  0.00     0.133 A 
HETATM    6  N   UNL     1      41.220 -14.289   2.169  1.00  0.00    -0.300 N 
HETATM    7  C   UNL     1      41.347 -13.083   1.486  1.00  0.00     0.135 A 
HETATM    8  C   UNL     1      40.538 -15.383   1.627  1.00  0.00     0.100 A 
HETATM    9  C   UNL     1      40.740 -12.980   0.203  1.00  0.00     0.057 A 
HETATM   10  N   UNL     1      42.033 -12.205   2.178  1.00  0.00    -0.233 NA
HETATM   11  C   UNL     1      40.071 -14.028  -0.325  1.00  0.00    -0.057 A 
HETATM   12  C   UNL     1      39.403 -13.972  -1.665  1.00  0.00     0.048 C 
HETATM   13  C   UNL     1      39.969 -15.283   0.414  1.00  0.00     0.024 A 
HETATM   14  C   UNL     1      42.360 -12.832   3.356  1.00  0.00     0.066 A 
HETATM   15  C   UNL     1      43.089 -12.056   4.390  1.00  0.00     0.073 C 
ENDBRANCH   1   5
BRANCH   2  16
HETATM   16  C   UNL     1      43.580 -16.709   5.605  1.00  0.00     0.079 C 
HETATM   17  C   UNL     1      44.918 -16.375   6.290  1.00  0.00     0.046 C 
HETATM   18  C   UNL     1      42.455 -16.864   6.643  1.00  0.00     0.046 C 
BRANCH  16  19
HETATM   19  C   UNL     1      43.722 -18.001   4.795  1.00  0.00     0.128 A 
HETATM   20  S   UNL     1      43.513 -18.065   3.084  1.00  0.00    -0.031 SA
HETATM   21  C   UNL     1      43.848 -19.746   3.167  1.00  0.00     0.187 A 
HETATM   22  N   UNL     1      43.845 -20.521   2.068  1.00  0.00    -0.377 N 
HETATM   23  N   UNL     1      44.086 -20.177   4.385  1.00  0.00    -0.124 NA
HETATM   24  H   UNL     1      43.338 -20.200   1.252  1.00  0.00     0.158 HD
HETATM   25  H   UNL     1      43.792 -21.521   2.228  1.00  0.00     0.158 HD
HETATM   26  N   UNL     1      44.016 -19.174   5.328  1.00  0.00    -0.142 NA
ENDBRANCH  16  19
ENDBRANCH   2  16
TORSDOF 3
ENDMDL
MODEL 7
REMARK VINA RESULT:      -7.3     16.047     17.282
REMARK  3 active torsions:
REMARK  status: ('A' for Active; 'I' for Inactive)
REMARK    1  A    between atoms: C_6  and  C_7 
REMARK       I    between atoms: C_7  and  N_8 
REMARK    2  A    between atoms: N_8  and  C_9 
REMARK    3  A    between atoms: C_9  and  C_10 
ROOT
HETATM    1  C   UNL     1      47.086 -29.132   0.103  1.00  0.00     0.271 C 
HETATM    2  N   UNL     1      46.300 -30.077  -0.508  1.00  0.00    -0.341 N 
HETATM    3  O   UNL     1      46.662 -28.010   0.360  1.00  0.00    -0.266 OA
HETATM    4  H   UNL     1      46.740 -30.929  -0.838  1.00  0.00     0.164 HD
ENDROOT
BRANCH   1   5
HETATM    5  C   UNL     1      48.439 -29.549   0.392  1.00  0.00     0.133 A 
HETATM    6  N   UNL     1      48.928 -29.800   1.668  1.00  0.00    -0.300 N 
HETATM    7  C   UNL     1      50.254 -30.199   1.524  1.00  0.00     0.135 A 
HETATM    8  C   UNL     1      48.315 -29.690   2.920  1.00  0.00     0.100 A 
HETATM    9  C   UNL     1      50.983 -30.517   2.705  1.00  0.00     0.057 A 
HETATM   10  N   UNL     1      50.620 -30.220   0.265  1.00  0.00    -0.233 NA
HETATM   11  C   UNL     1      50.396 -30.423   3.918  1.00  0.00    -0.057 A 
HETATM   12  C   UNL     1      51.111 -30.756   5.192  1.00  0.00     0.048 C 
HETATM   13  C   UNL     1      49.007 -29.987   4.032  1.00  0.00     0.024 A 
HETATM   14  C   UNL     1      49.510 -29.841  -0.452  1.00  0.00     0.066 A 
HETATM   15  C   UNL     1      49.595 -29.837  -1.934  1.00  0.00     0.073 C 
ENDBRANCH   1   5
BRANCH   2  16
HETATM   16  C   UNL     1      44.890 -29.901  -0.905  1.00  0.00     0.079 C 
HETATM   17  C   UNL     1      44.704 -28.564  -1.644  1.00  0.00     0.046 C 
HETATM   18  C   UNL     1      44.431 -31.081  -1.780  1.00  0.00     0.046 C 
BRANCH  16  19
HETATM   19  C   UNL     1      44.094 -29.885   0.404  1.00  0.00     0.128 A 
HETATM   20  S   UNL     1      44.463 -30.910   1.741  1.00  0.00    -0.031 SA
HETATM   21  C   UNL     1      43.152 -30.186   2.579  1.00  0.00     0.187 A 
HETATM   22  N   UNL     1      42.821 -30.561   3.827  1.00  0.00    -0.377 N 
HETATM   23  N   UNL     1      42.522 -29.268   1.882  1.00  0.00    -0.124 NA
HETATM   24  H   UNL     1      43.120 -31.471   4.154  1.00  0.00     0.158 HD
HETATM   25  H   UNL     1      41.898 -30.283   4.146  1.00  0.00     0.158 HD
HETATM   26  N   UNL     1      43.063 -29.089   0.627  1.00  0.00    -0.142 NA
ENDBRANCH  16  19
ENDBRANCH   2  16
TORSDOF 3
ENDMDL
MODEL 8
REMARK VINA RESULT:      -7.3      1.904      2.909
REMARK  3 active torsions:
REMARK  status: ('A' for Active; 'I' for Inactive)
REMARK    1  A    between atoms: C_6  and  C_7 
REMARK       I    between atoms: C_7  and  N_8 
REMARK    2  A    between atoms: N_8  and  C_9 
REMARK    3  A    between atoms: C_9  and  C_10 
ROOT
HETATM    1  C   UNL     1      41.358 -13.321   4.587  1.00  0.00     0.271 C 
HETATM    2  N   UNL     1      41.776 -12.088   4.153  1.00  0.00    -0.341 N 
HETATM    3  O   UNL     1      41.065 -13.526   5.761  1.00  0.00    -0.266 OA
HETATM    4  H   UNL     1      42.154 -12.010   3.216  1.00  0.00     0.164 HD
ENDROOT
BRANCH   1   5
HETATM    5  C   UNL     1      41.316 -14.350   3.573  1.00  0.00     0.133 A 
HETATM    6  N   UNL     1      42.083 -15.508   3.597  1.00  0.00    -0.300 N 
HETATM    7  C   UNL     1      41.738 -16.248   2.470  1.00  0.00     0.135 A 
HETATM    8  C   UNL     1      43.052 -15.944   4.506  1.00  0.00     0.100 A 
HETATM    9  C   UNL     1      42.395 -17.494   2.266  1.00  0.00     0.057 A 
HETATM   10  N   UNL     1      40.818 -15.643   1.756  1.00  0.00    -0.233 NA
HETATM   11  C   UNL     1      43.325 -17.928   3.144  1.00  0.00    -0.057 A 
HETATM   12  C   UNL     1      44.040 -19.236   2.987  1.00  0.00     0.048 C 
HETATM   13  C   UNL     1      43.672 -17.119   4.309  1.00  0.00     0.024 A 
HETATM   14  C   UNL     1      40.531 -14.479   2.429  1.00  0.00     0.066 A 
HETATM   15  C   UNL     1      39.460 -13.601   1.894  1.00  0.00     0.073 C 
ENDBRANCH   1   5
BRANCH   2  16
HETATM   16  C   UNL     1      41.905 -10.877   4.988  1.00  0.00     0.079 C 
HETATM   17  C   UNL     1      41.727  -9.612   4.129  1.00  0.00     0.046 C 
HETATM   18  C   UNL     1      40.880 -10.911   6.136  1.00  0.00     0.046 C 
BRANCH  16  19
HETATM   19  C   UNL     1      43.326 -10.921   5.558  1.00  0.00     0.128 A 
HETATM   20  S   UNL     1      43.688 -10.570   7.207  1.00  0.00    -0.031 SA
HETATM   21  C   UNL     1      45.338 -10.872   6.844  1.00  0.00     0.187 A 
HETATM   22  N   UNL     1      46.297 -10.760   7.780  1.00  0.00    -0.377 N 
HETATM   23  N   UNL     1      45.552 -11.200   5.591  1.00  0.00    -0.124 NA
HETATM   24  H   UNL     1      46.109 -10.195   8.600  1.00  0.00     0.158 HD
HETATM   25  H   UNL     1      47.250 -10.697   7.437  1.00  0.00     0.158 HD
HETATM   26  N   UNL     1      44.394 -11.230   4.844  1.00  0.00    -0.142 NA
ENDBRANCH  16  19
ENDBRANCH   2  16
TORSDOF 3
ENDMDL
MODEL 9
REMARK VINA RESULT:      -7.3      2.634      4.163
REMARK  3 active torsions:
REMARK  status: ('A' for Active; 'I' for Inactive)
REMARK    1  A    between atoms: C_6  and  C_7 
REMARK       I    between atoms: C_7  and  N_8 
REMARK    2  A    between atoms: N_8  and  C_9 
REMARK    3  A    between atoms: C_9  and  C_10 
ROOT
HETATM    1  C   UNL     1      43.262 -11.826   6.454  1.00  0.00     0.271 C 
HETATM    2  N   UNL     1      43.232 -11.473   7.780  1.00  0.00    -0.341 N 
HETATM    3  O   UNL     1      43.925 -11.197   5.635  1.00  0.00    -0.266 OA
HETATM    4  H   UNL     1      42.553 -11.924   8.383  1.00  0.00     0.164 HD
ENDROOT
BRANCH   1   5
HETATM    5  C   UNL     1      42.444 -12.964   6.100  1.00  0.00     0.133 A 
HETATM    6  N   UNL     1      42.871 -14.285   6.154  1.00  0.00    -0.300 N 
HETATM    7  C   UNL     1      41.794 -15.076   5.764  1.00  0.00     0.135 A 
HETATM    8  C   UNL     1      44.112 -14.831   6.496  1.00  0.00     0.100 A 
HETATM    9  C   UNL     1      41.983 -16.487   5.738  1.00  0.00     0.057 A 
HETATM   10  N   UNL     1      40.738 -14.352   5.480  1.00  0.00    -0.233 NA
HETATM   11  C   UNL     1      43.175 -17.024   6.076  1.00  0.00    -0.057 A 
HETATM   12  C   UNL     1      43.427 -18.502   6.077  1.00  0.00     0.048 C 
HETATM   13  C   UNL     1      44.287 -16.162   6.466  1.00  0.00     0.024 A 
HETATM   14  C   UNL     1      41.112 -13.047   5.698  1.00  0.00     0.066 A 
HETATM   15  C   UNL     1      40.092 -11.983   5.525  1.00  0.00     0.073 C 
ENDBRANCH   1   5
BRANCH   2  16
HETATM   16  C   UNL     1      43.975 -10.355   8.392  1.00  0.00     0.079 C 
HETATM   17  C   UNL     1      45.492 -10.567   8.232  1.00  0.00     0.046 C 
HETATM   18  C   UNL     1      43.538  -9.019   7.766  1.00  0.00     0.046 C 
BRANCH  16  19
HETATM   19  C   UNL     1      43.603 -10.379   9.878  1.00  0.00     0.128 A 
HETATM   20  S   UNL     1      42.439  -9.313  10.572  1.00  0.00    -0.031 SA
HETATM   21  C   UNL     1      42.731 -10.075  12.081  1.00  0.00     0.187 A 
HETATM   22  N   UNL     1      42.093  -9.691  13.201  1.00  0.00    -0.377 N 
HETATM   23  N   UNL     1      43.628 -11.033  12.024  1.00  0.00    -0.124 NA
HETATM   24  H   UNL     1      41.690  -8.762  13.233  1.00  0.00     0.158 HD
HETATM   25  H   UNL     1      42.501 -10.001  14.077  1.00  0.00     0.158 HD
HETATM   26  N   UNL     1      44.133 -11.213  10.754  1.00  0.00    -0.142 NA
ENDBRANCH  16  19
ENDBRANCH   2  16
TORSDOF 3
ENDMDL
MODEL 10
REMARK VINA RESULT:      -7.3      3.283      5.036
REMARK  3 active torsions:
REMARK  status: ('A' for Active; 'I' for Inactive)
REMARK    1  A    between atoms: C_6  and  C_7 
REMARK       I    between atoms: C_7  and  N_8 
REMARK    2  A    between atoms: N_8  and  C_9 
REMARK    3  A    between atoms: C_9  and  C_10 
ROOT
HETATM    1  C   UNL     1      42.579 -14.461   4.800  1.00  0.00     0.271 C 
HETATM    2  N   UNL     1      41.460 -13.819   4.329  1.00  0.00    -0.341 N 
HETATM    3  O   UNL     1      43.173 -14.071   5.800  1.00  0.00    -0.266 OA
HETATM    4  H   UNL     1      41.100 -14.084   3.420  1.00  0.00     0.164 HD
ENDROOT
BRANCH   1   5
HETATM    5  C   UNL     1      43.008 -15.601   4.023  1.00  0.00     0.133 A 
HETATM    6  N   UNL     1      43.267 -16.860   4.551  1.00  0.00    -0.300 N 
HETATM    7  C   UNL     1      43.627 -17.682   3.487  1.00  0.00     0.135 A 
HETATM    8  C   UNL     1      43.229 -17.322   5.870  1.00  0.00     0.100 A 
HETATM    9  C   UNL     1      43.945 -19.039   3.775  1.00  0.00     0.057 A 
HETATM   10  N   UNL     1      43.605 -17.035   2.346  1.00  0.00    -0.233 NA
HETATM   11  C   UNL     1      43.901 -19.498   5.044  1.00  0.00    -0.057 A 
HETATM   12  C   UNL     1      44.215 -20.918   5.405  1.00  0.00     0.048 C 
HETATM   13  C   UNL     1      43.533 -18.603   6.138  1.00  0.00     0.024 A 
HETATM   14  C   UNL     1      43.207 -15.755   2.652  1.00  0.00     0.066 A 
HETATM   15  C   UNL     1      43.019 -14.791   1.539  1.00  0.00     0.073 C 
ENDBRANCH   1   5
BRANCH   2  16
HETATM   16  C   UNL     1      40.824 -12.636   4.939  1.00  0.00     0.079 C 
HETATM   17  C   UNL     1      40.078 -13.032   6.227  1.00  0.00     0.046 C 
HETATM   18  C   UNL     1      41.879 -11.552   5.227  1.00  0.00     0.046 C 
BRANCH  16  19
HETATM   19  C   UNL     1      39.824 -12.125   3.898  1.00  0.00     0.128 A 
HETATM   20  S   UNL     1      39.289 -13.076   2.563  1.00  0.00    -0.031 SA
HETATM   21  C   UNL     1      38.315 -11.747   2.084  1.00  0.00     0.187 A 
HETATM   22  N   UNL     1      37.545 -11.797   0.983  1.00  0.00    -0.377 N 
HETATM   23  N   UNL     1      38.416 -10.705   2.879  1.00  0.00    -0.124 NA
HETATM   24  H   UNL     1      37.772 -12.474   0.265  1.00  0.00     0.158 HD
HETATM   25  H   UNL     1      37.213 -10.906   0.629  1.00  0.00     0.158 HD
HETATM   26  N   UNL     1      39.284 -10.919   3.928  1.00  0.00    -0.142 NA
ENDBRANCH  16  19
ENDBRANCH   2  16
TORSDOF 3
ENDMDL
