MODEL 1
REMARK VINA RESULT:      -9.4      0.000      0.000
REMARK  7 active torsions:
REMARK  status: ('A' for Active; 'I' for Inactive)
REMARK    1  A    between atoms: C_7  and  C_8 
REMARK    2  A    between atoms: C_8  and  C_9 
REMARK    3  A    between atoms: C_9  and  C_10 
REMARK    4  A    between atoms: C_10  and  O_11 
REMARK    5  A    between atoms: C_13  and  C_14 
REMARK    6  A    between atoms: C_21  and  C_22 
REMARK       I    between atoms: C_22  and  N_23 
REMARK    7  A    between atoms: N_23  and  C_24 
ROOT
HETATM    1  C   UNL     1      40.048 -13.782   6.161  1.00  0.00     0.070 C 
HETATM    2  C   UNL     1      40.681 -14.232   4.866  1.00  0.00     0.037 C 
HETATM    3  N   UNL     1      39.793 -14.455   3.810  1.00  0.00    -0.192 N 
HETATM    4  C   UNL     1      40.212 -14.563   2.532  1.00  0.00     0.726 A 
HETATM    5  N   UNL     1      41.541 -14.763   2.288  1.00  0.00    -0.083 N 
HETATM    6  N   UNL     1      41.817 -14.731   0.969  1.00  0.00    -0.140 NA
HETATM    7  C   UNL     1      40.588 -14.537   0.466  1.00  0.00     0.166 A 
HETATM    8  N   UNL     1      39.577 -14.444   1.396  1.00  0.00    -0.046 NA
HETATM    9  C   UNL     1      42.550 -14.899   3.338  1.00  0.00     0.202 C 
HETATM   10  C   UNL     1      42.017 -14.404   4.680  1.00  0.00     0.062 C 
HETATM   11  H   UNL     1      38.831 -14.161   3.960  1.00  0.00     0.184 HD
ENDROOT
BRANCH  10  12
HETATM   12  C   UNL     1      43.007 -13.891   5.682  1.00  0.00     0.256 C 
HETATM   13  N   UNL     1      43.286 -12.543   5.587  1.00  0.00    -0.323 N 
HETATM   14  H   UNL     1      42.922 -12.030   4.797  1.00  0.00     0.169 HD
HETATM   15  O   UNL     1      43.442 -14.652   6.539  1.00  0.00    -0.267 OA
BRANCH  13  16
HETATM   16  C   UNL     1      44.028 -11.760   6.500  1.00  0.00     0.035 A 
HETATM   17  C   UNL     1      45.410 -11.573   6.433  1.00  0.00     0.031 A 
HETATM   18  C   UNL     1      46.073 -10.805   7.398  1.00  0.00     0.026 A 
HETATM   19  C   UNL     1      45.354 -10.226   8.439  1.00  0.00     0.034 A 
HETATM   20 CL   UNL     1      46.170  -9.294   9.632  1.00  0.00    -0.084 Cl
HETATM   21  C   UNL     1      43.975 -10.400   8.519  1.00  0.00     0.026 A 
HETATM   22  C   UNL     1      43.315 -11.160   7.549  1.00  0.00     0.031 A 
ENDBRANCH  13  16
ENDBRANCH  10  12
BRANCH   9  23
HETATM   23  C   UNL     1      43.032 -16.353   3.368  1.00  0.00    -0.028 A 
HETATM   24  C   UNL     1      42.681 -17.223   2.317  1.00  0.00     0.012 A 
HETATM   25  C   UNL     1      43.107 -18.553   2.325  1.00  0.00     0.043 A 
HETATM   26  C   UNL     1      43.879 -19.023   3.379  1.00  0.00     0.116 A 
HETATM   27  F   UNL     1      44.287 -20.298   3.382  1.00  0.00    -0.206 F 
HETATM   28  C   UNL     1      44.228 -18.190   4.435  1.00  0.00     0.043 A 
HETATM   29  C   UNL     1      43.800 -16.860   4.434  1.00  0.00     0.012 A 
ENDBRANCH   9  23
BRANCH   7  30
HETATM   30  C   UNL     1      40.346 -14.375  -0.990  1.00  0.00     0.085 C 
BRANCH  30  31
HETATM   31  C   UNL     1      40.207 -12.913  -1.416  1.00  0.00     0.034 C 
BRANCH  31  32
HETATM   32  C   UNL     1      40.462 -12.692  -2.904  1.00  0.00     0.164 C 
BRANCH  32  33
HETATM   33  O   UNL     1      41.497 -13.561  -3.347  1.00  0.00    -0.401 OA
HETATM   34  H   UNL     1      42.009 -13.833  -2.566  1.00  0.00     0.209 HD
ENDBRANCH  32  33
ENDBRANCH  31  32
ENDBRANCH  30  31
ENDBRANCH   7  30
TORSDOF 7
ENDMDL
MODEL 2
REMARK VINA RESULT:      -9.2      1.668      1.924
REMARK  7 active torsions:
REMARK  status: ('A' for Active; 'I' for Inactive)
REMARK    1  A    between atoms: C_7  and  C_8 
REMARK    2  A    between atoms: C_8  and  C_9 
REMARK    3  A    between atoms: C_9  and  C_10 
REMARK    4  A    between atoms: C_10  and  O_11 
REMARK    5  A    between atoms: C_13  and  C_14 
REMARK    6  A    between atoms: C_21  and  C_22 
REMARK       I    between atoms: C_22  and  N_23 
REMARK    7  A    between atoms: N_23  and  C_24 
ROOT
HETATM    1  C   UNL     1      39.244 -12.335   5.616  1.00  0.00     0.070 C 
HETATM    2  C   UNL     1      39.952 -12.604   4.310  1.00  0.00     0.037 C 
HETATM    3  N   UNL     1      39.161 -12.488   3.164  1.00  0.00    -0.192 N 
HETATM    4  C   UNL     1      39.697 -12.399   1.929  1.00  0.00     0.726 A 
HETATM    5  N   UNL     1      41.010 -12.731   1.754  1.00  0.00    -0.083 N 
HETATM    6  N   UNL     1      41.427 -12.477   0.497  1.00  0.00    -0.140 NA
HETATM    7  C   UNL     1      40.291 -12.018  -0.049  1.00  0.00     0.166 A 
HETATM    8  N   UNL     1      39.206 -11.970   0.796  1.00  0.00    -0.046 NA
HETATM    9  C   UNL     1      41.878 -13.211   2.828  1.00  0.00     0.202 C 
HETATM   10  C   UNL     1      41.270 -12.922   4.198  1.00  0.00     0.062 C 
HETATM   11  H   UNL     1      38.231 -12.098   3.296  1.00  0.00     0.184 HD
ENDROOT
BRANCH  10  12
HETATM   12  C   UNL     1      42.202 -12.760   5.360  1.00  0.00     0.256 C 
HETATM   13  N   UNL     1      42.753 -11.502   5.495  1.00  0.00    -0.323 N 
HETATM   14  H   UNL     1      42.604 -10.830   4.757  1.00  0.00     0.169 HD
HETATM   15  O   UNL     1      42.363 -13.697   6.135  1.00  0.00    -0.267 OA
BRANCH  13  16
HETATM   16  C   UNL     1      43.509 -11.015   6.585  1.00  0.00     0.035 A 
HETATM   17  C   UNL     1      44.849 -11.334   6.817  1.00  0.00     0.031 A 
HETATM   18  C   UNL     1      45.517 -10.831   7.940  1.00  0.00     0.026 A 
HETATM   19  C   UNL     1      44.844 -10.012   8.840  1.00  0.00     0.034 A 
HETATM   20 CL   UNL     1      45.661  -9.407  10.227  1.00  0.00    -0.084 Cl
HETATM   21  C   UNL     1      43.509  -9.682   8.622  1.00  0.00     0.026 A 
HETATM   22  C   UNL     1      42.847 -10.178   7.495  1.00  0.00     0.031 A 
ENDBRANCH  13  16
ENDBRANCH  10  12
BRANCH   9  23
HETATM   23  C   UNL     1      42.176 -14.695   2.591  1.00  0.00    -0.028 A 
HETATM   24  C   UNL     1      43.309 -15.065   1.839  1.00  0.00     0.012 A 
HETATM   25  C   UNL     1      43.598 -16.411   1.607  1.00  0.00     0.043 A 
HETATM   26  C   UNL     1      42.759 -17.394   2.117  1.00  0.00     0.116 A 
HETATM   27  F   UNL     1      43.041 -18.684   1.895  1.00  0.00    -0.206 F 
HETATM   28  C   UNL     1      41.628 -17.056   2.850  1.00  0.00     0.043 A 
HETATM   29  C   UNL     1      41.332 -15.711   3.080  1.00  0.00     0.012 A 
ENDBRANCH   9  23
BRANCH   7  30
HETATM   30  C   UNL     1      40.226 -11.539  -1.454  1.00  0.00     0.085 C 
BRANCH  30  31
HETATM   31  C   UNL     1      39.481 -12.499  -2.381  1.00  0.00     0.034 C 
BRANCH  31  32
HETATM   32  C   UNL     1      40.267 -13.770  -2.692  1.00  0.00     0.164 C 
BRANCH  32  33
HETATM   33  O   UNL     1      41.478 -13.432  -3.359  1.00  0.00    -0.401 OA
HETATM   34  H   UNL     1      41.588 -14.051  -4.101  1.00  0.00     0.209 HD
ENDBRANCH  32  33
ENDBRANCH  31  32
ENDBRANCH  30  31
ENDBRANCH   7  30
TORSDOF 7
ENDMDL
MODEL 3
REMARK VINA RESULT:      -8.9      4.563      6.859
REMARK  7 active torsions:
REMARK  status: ('A' for Active; 'I' for Inactive)
REMARK    1  A    between atoms: C_7  and  C_8 
REMARK    2  A    between atoms: C_8  and  C_9 
REMARK    3  A    between atoms: C_9  and  C_10 
REMARK    4  A    between atoms: C_10  and  O_11 
REMARK    5  A    between atoms: C_13  and  C_14 
REMARK    6  A    between atoms: C_21  and  C_22 
REMARK       I    between atoms: C_22  and  N_23 
REMARK    7  A    between atoms: N_23  and  C_24 
ROOT
HETATM    1  C   UNL     1      39.713 -12.689   3.829  1.00  0.00     0.070 C 
HETATM    2  C   UNL     1      40.102 -12.311   2.421  1.00  0.00     0.037 C 
HETATM    3  N   UNL     1      40.047 -10.945   2.129  1.00  0.00    -0.192 N 
HETATM    4  C   UNL     1      40.639 -10.421   1.037  1.00  0.00     0.726 A 
HETATM    5  N   UNL     1      41.041 -11.259   0.037  1.00  0.00    -0.083 N 
HETATM    6  N   UNL     1      41.718 -10.601  -0.925  1.00  0.00    -0.140 NA
HETATM    7  C   UNL     1      41.660  -9.347  -0.453  1.00  0.00     0.166 A 
HETATM    8  N   UNL     1      40.992  -9.197   0.742  1.00  0.00    -0.046 NA
HETATM    9  C   UNL     1      40.841 -12.708   0.061  1.00  0.00     0.202 C 
HETATM   10  C   UNL     1      40.506 -13.194   1.468  1.00  0.00     0.062 C 
HETATM   11  H   UNL     1      39.891 -10.322   2.919  1.00  0.00     0.184 HD
ENDROOT
BRANCH  10  12
HETATM   12  C   UNL     1      40.863 -14.604   1.828  1.00  0.00     0.256 C 
HETATM   13  N   UNL     1      42.171 -14.791   2.223  1.00  0.00    -0.323 N 
HETATM   14  H   UNL     1      42.819 -14.023   2.124  1.00  0.00     0.169 HD
HETATM   15  O   UNL     1      39.990 -15.465   1.817  1.00  0.00    -0.267 OA
BRANCH  13  16
HETATM   16  C   UNL     1      42.733 -15.960   2.786  1.00  0.00     0.035 A 
HETATM   17  C   UNL     1      43.073 -17.100   2.054  1.00  0.00     0.031 A 
HETATM   18  C   UNL     1      43.598 -18.228   2.697  1.00  0.00     0.026 A 
HETATM   19  C   UNL     1      43.778 -18.221   4.076  1.00  0.00     0.034 A 
HETATM   20 CL   UNL     1      44.409 -19.613   4.866  1.00  0.00    -0.084 Cl
HETATM   21  C   UNL     1      43.447 -17.092   4.819  1.00  0.00     0.026 A 
HETATM   22  C   UNL     1      42.932 -15.963   4.175  1.00  0.00     0.031 A 
ENDBRANCH  13  16
ENDBRANCH  10  12
BRANCH   9  23
HETATM   23  C   UNL     1      39.782 -13.073  -0.984  1.00  0.00    -0.028 A 
HETATM   24  C   UNL     1      40.069 -14.056  -1.950  1.00  0.00     0.012 A 
HETATM   25  C   UNL     1      39.119 -14.403  -2.913  1.00  0.00     0.043 A 
HETATM   26  C   UNL     1      37.883 -13.770  -2.922  1.00  0.00     0.116 A 
HETATM   27  F   UNL     1      36.974 -14.106  -3.846  1.00  0.00    -0.206 F 
HETATM   28  C   UNL     1      37.579 -12.786  -1.989  1.00  0.00     0.043 A 
HETATM   29  C   UNL     1      38.528 -12.433  -1.026  1.00  0.00     0.012 A 
ENDBRANCH   9  23
BRANCH   7  30
HETATM   30  C   UNL     1      42.321  -8.210  -1.142  1.00  0.00     0.085 C 
BRANCH  30  31
HETATM   31  C   UNL     1      42.020  -8.160  -2.640  1.00  0.00     0.034 C 
BRANCH  31  32
HETATM   32  C   UNL     1      42.861  -7.131  -3.390  1.00  0.00     0.164 C 
BRANCH  32  33
HETATM   33  O   UNL     1      42.985  -7.516  -4.754  1.00  0.00    -0.401 OA
HETATM   34  H   UNL     1      43.867  -7.908  -4.870  1.00  0.00     0.209 HD
ENDBRANCH  32  33
ENDBRANCH  31  32
ENDBRANCH  30  31
ENDBRANCH   7  30
TORSDOF 7
ENDMDL
MODEL 4
REMARK VINA RESULT:      -8.5      2.249      2.647
REMARK  7 active torsions:
REMARK  status: ('A' for Active; 'I' for Inactive)
REMARK    1  A    between atoms: C_7  and  C_8 
REMARK    2  A    between atoms: C_8  and  C_9 
REMARK    3  A    between atoms: C_9  and  C_10 
REMARK    4  A    between atoms: C_10  and  O_11 
REMARK    5  A    between atoms: C_13  and  C_14 
REMARK    6  A    between atoms: C_21  and  C_22 
REMARK       I    between atoms: C_22  and  N_23 
REMARK    7  A    between atoms: N_23  and  C_24 
ROOT
HETATM    1  C   UNL     1      38.867 -10.518   4.236  1.00  0.00     0.070 C 
HETATM    2  C   UNL     1      39.626 -11.496   3.371  1.00  0.00     0.037 C 
HETATM    3  N   UNL     1      38.888 -12.081   2.338  1.00  0.00    -0.192 N 
HETATM    4  C   UNL     1      39.479 -12.729   1.313  1.00  0.00     0.726 A 
HETATM    5  N   UNL     1      40.790 -13.090   1.429  1.00  0.00    -0.083 N 
HETATM    6  N   UNL     1      41.267 -13.619   0.284  1.00  0.00    -0.140 NA
HETATM    7  C   UNL     1      40.166 -13.576  -0.481  1.00  0.00     0.166 A 
HETATM    8  N   UNL     1      39.046 -13.050   0.122  1.00  0.00    -0.046 NA
HETATM    9  C   UNL     1      41.600 -12.842   2.621  1.00  0.00     0.202 C 
HETATM   10  C   UNL     1      40.940 -11.809   3.530  1.00  0.00     0.062 C 
HETATM   11  H   UNL     1      37.961 -11.694   2.171  1.00  0.00     0.184 HD
ENDROOT
BRANCH  10  12
HETATM   12  C   UNL     1      41.824 -10.989   4.420  1.00  0.00     0.256 C 
HETATM   13  N   UNL     1      42.016 -11.502   5.685  1.00  0.00    -0.323 N 
HETATM   14  H   UNL     1      41.465 -12.299   5.970  1.00  0.00     0.169 HD
HETATM   15  O   UNL     1      42.363  -9.983   3.967  1.00  0.00    -0.267 OA
BRANCH  13  16
HETATM   16  C   UNL     1      42.932 -11.047   6.660  1.00  0.00     0.035 A 
HETATM   17  C   UNL     1      44.218 -11.566   6.833  1.00  0.00     0.031 A 
HETATM   18  C   UNL     1      45.052 -11.077   7.846  1.00  0.00     0.026 A 
HETATM   19  C   UNL     1      44.600 -10.071   8.694  1.00  0.00     0.034 A 
HETATM   20 CL   UNL     1      45.621  -9.482   9.947  1.00  0.00    -0.084 Cl
HETATM   21  C   UNL     1      43.323  -9.542   8.533  1.00  0.00     0.026 A 
HETATM   22  C   UNL     1      42.495 -10.025   7.515  1.00  0.00     0.031 A 
ENDBRANCH  13  16
ENDBRANCH  10  12
BRANCH   9  23
HETATM   23  C   UNL     1      41.876 -14.181   3.313  1.00  0.00    -0.028 A 
HETATM   24  C   UNL     1      40.892 -14.746   4.148  1.00  0.00     0.012 A 
HETATM   25  C   UNL     1      41.122 -15.964   4.791  1.00  0.00     0.043 A 
HETATM   26  C   UNL     1      42.332 -16.621   4.611  1.00  0.00     0.116 A 
HETATM   27  F   UNL     1      42.549 -17.790   5.227  1.00  0.00    -0.206 F 
HETATM   28  C   UNL     1      43.325 -16.079   3.804  1.00  0.00     0.043 A 
HETATM   29  C   UNL     1      43.101 -14.858   3.162  1.00  0.00     0.012 A 
ENDBRANCH   9  23
BRANCH   7  30
HETATM   30  C   UNL     1      40.173 -14.013  -1.901  1.00  0.00     0.085 C 
BRANCH  30  31
HETATM   31  C   UNL     1      39.074 -13.355  -2.736  1.00  0.00     0.034 C 
BRANCH  31  32
HETATM   32  C   UNL     1      37.989 -14.331  -3.182  1.00  0.00     0.164 C 
BRANCH  32  33
HETATM   33  O   UNL     1      38.368 -15.659  -2.836  1.00  0.00    -0.401 OA
HETATM   34  H   UNL     1      39.338 -15.680  -2.769  1.00  0.00     0.209 HD
ENDBRANCH  32  33
ENDBRANCH  31  32
ENDBRANCH  30  31
ENDBRANCH   7  30
TORSDOF 7
ENDMDL
MODEL 5
REMARK VINA RESULT:      -8.5      4.394      8.739
REMARK  7 active torsions:
REMARK  status: ('A' for Active; 'I' for Inactive)
REMARK    1  A    between atoms: C_7  and  C_8 
REMARK    2  A    between atoms: C_8  and  C_9 
REMARK    3  A    between atoms: C_9  and  C_10 
REMARK    4  A    between atoms: C_10  and  O_11 
REMARK    5  A    between atoms: C_13  and  C_14 
REMARK    6  A    between atoms: C_21  and  C_22 
REMARK       I    between atoms: C_22  and  N_23 
REMARK    7  A    between atoms: N_23  and  C_24 
ROOT
HETATM    1  C   UNL     1      42.626 -16.076   4.647  1.00  0.00     0.070 C 
HETATM    2  C   UNL     1      42.794 -14.596   4.892  1.00  0.00     0.037 C 
HETATM    3  N   UNL     1      43.353 -14.252   6.126  1.00  0.00    -0.192 N 
HETATM    4  C   UNL     1      43.840 -13.019   6.373  1.00  0.00     0.726 A 
HETATM    5  N   UNL     1      43.516 -11.999   5.525  1.00  0.00    -0.083 N 
HETATM    6  N   UNL     1      44.171 -10.862   5.836  1.00  0.00    -0.140 NA
HETATM    7  C   UNL     1      44.859 -11.264   6.915  1.00  0.00     0.166 A 
HETATM    8  N   UNL     1      44.669 -12.577   7.283  1.00  0.00    -0.046 NA
HETATM    9  C   UNL     1      42.638 -12.152   4.366  1.00  0.00     0.202 C 
HETATM   10  C   UNL     1      42.461 -13.624   4.001  1.00  0.00     0.062 C 
HETATM   11  H   UNL     1      43.725 -15.019   6.682  1.00  0.00     0.184 HD
ENDROOT
BRANCH  10  12
HETATM   12  C   UNL     1      42.148 -13.961   2.575  1.00  0.00     0.256 C 
HETATM   13  N   UNL     1      40.820 -13.842   2.225  1.00  0.00    -0.323 N 
HETATM   14  H   UNL     1      40.143 -13.671   2.955  1.00  0.00     0.169 HD
HETATM   15  O   UNL     1      43.066 -14.245   1.811  1.00  0.00    -0.267 OA
BRANCH  13  16
HETATM   16  C   UNL     1      40.270 -13.916   0.925  1.00  0.00     0.035 A 
HETATM   17  C   UNL     1      39.943 -15.109   0.276  1.00  0.00     0.031 A 
HETATM   18  C   UNL     1      39.429 -15.093  -1.027  1.00  0.00     0.026 A 
HETATM   19  C   UNL     1      39.249 -13.882  -1.688  1.00  0.00     0.034 A 
HETATM   20 CL   UNL     1      38.633 -13.865  -3.294  1.00  0.00    -0.084 Cl
HETATM   21  C   UNL     1      39.569 -12.685  -1.055  1.00  0.00     0.026 A 
HETATM   22  C   UNL     1      40.072 -12.702   0.250  1.00  0.00     0.031 A 
ENDBRANCH  13  16
ENDBRANCH  10  12
BRANCH   9  23
HETATM   23  C   UNL     1      41.319 -11.428   4.651  1.00  0.00    -0.028 A 
HETATM   24  C   UNL     1      40.953 -10.316   3.868  1.00  0.00     0.012 A 
HETATM   25  C   UNL     1      39.757  -9.639   4.112  1.00  0.00     0.043 A 
HETATM   26  C   UNL     1      38.923 -10.061   5.139  1.00  0.00     0.116 A 
HETATM   27  F   UNL     1      37.775  -9.410   5.369  1.00  0.00    -0.206 F 
HETATM   28  C   UNL     1      39.266 -11.146   5.936  1.00  0.00     0.043 A 
HETATM   29  C   UNL     1      40.464 -11.824   5.698  1.00  0.00     0.012 A 
ENDBRANCH   9  23
BRANCH   7  30
HETATM   30  C   UNL     1      45.805 -10.368   7.628  1.00  0.00     0.085 C 
BRANCH  30  31
HETATM   31  C   UNL     1      45.386 -10.078   9.070  1.00  0.00     0.034 C 
BRANCH  31  32
HETATM   32  C   UNL     1      44.656  -8.747   9.228  1.00  0.00     0.164 C 
BRANCH  32  33
HETATM   33  O   UNL     1      45.237  -7.776   8.365  1.00  0.00    -0.401 OA
HETATM   34  H   UNL     1      44.905  -7.946   7.466  1.00  0.00     0.209 HD
ENDBRANCH  32  33
ENDBRANCH  31  32
ENDBRANCH  30  31
ENDBRANCH   7  30
TORSDOF 7
ENDMDL
MODEL 6
REMARK VINA RESULT:      -8.2      4.128      8.154
REMARK  7 active torsions:
REMARK  status: ('A' for Active; 'I' for Inactive)
REMARK    1  A    between atoms: C_7  and  C_8 
REMARK    2  A    between atoms: C_8  and  C_9 
REMARK    3  A    between atoms: C_9  and  C_10 
REMARK    4  A    between atoms: C_10  and  O_11 
REMARK    5  A    between atoms: C_13  and  C_14 
REMARK    6  A    between atoms: C_21  and  C_22 
REMARK       I    between atoms: C_22  and  N_23 
REMARK    7  A    between atoms: N_23  and  C_24 
ROOT
HETATM    1  C   UNL     1      41.746 -10.013   0.809  1.00  0.00     0.070 C 
HETATM    2  C   UNL     1      41.903 -11.011   1.931  1.00  0.00     0.037 C 
HETATM    3  N   UNL     1      42.986 -10.787   2.785  1.00  0.00    -0.192 N 
HETATM    4  C   UNL     1      43.090 -11.394   3.985  1.00  0.00     0.726 A 
HETATM    5  N   UNL     1      42.292 -12.470   4.252  1.00  0.00    -0.083 N 
HETATM    6  N   UNL     1      42.427 -12.888   5.526  1.00  0.00    -0.140 NA
HETATM    7  C   UNL     1      43.357 -12.029   5.969  1.00  0.00     0.166 A 
HETATM    8  N   UNL     1      43.798 -11.107   5.046  1.00  0.00    -0.046 NA
HETATM    9  C   UNL     1      41.340 -13.034   3.296  1.00  0.00     0.202 C 
HETATM   10  C   UNL     1      41.067 -12.060   2.152  1.00  0.00     0.062 C 
HETATM   11  H   UNL     1      43.480  -9.906   2.666  1.00  0.00     0.184 HD
ENDROOT
BRANCH  10  12
HETATM   12  C   UNL     1      39.745 -12.153   1.452  1.00  0.00     0.256 C 
HETATM   13  N   UNL     1      39.788 -11.928   0.092  1.00  0.00    -0.323 N 
HETATM   14  H   UNL     1      40.652 -11.597  -0.314  1.00  0.00     0.169 HD
HETATM   15  O   UNL     1      38.750 -12.480   2.091  1.00  0.00    -0.267 OA
BRANCH  13  16
HETATM   16  C   UNL     1      38.744 -12.128  -0.839  1.00  0.00     0.035 A 
HETATM   17  C   UNL     1      38.552 -13.306  -1.565  1.00  0.00     0.031 A 
HETATM   18  C   UNL     1      37.508 -13.409  -2.491  1.00  0.00     0.026 A 
HETATM   19  C   UNL     1      36.654 -12.331  -2.700  1.00  0.00     0.034 A 
HETATM   20 CL   UNL     1      35.381 -12.454  -3.849  1.00  0.00    -0.084 Cl
HETATM   21  C   UNL     1      36.830 -11.151  -1.983  1.00  0.00     0.026 A 
HETATM   22  C   UNL     1      37.868 -11.053  -1.051  1.00  0.00     0.031 A 
ENDBRANCH  13  16
ENDBRANCH  10  12
BRANCH   9  23
HETATM   23  C   UNL     1      41.863 -14.396   2.830  1.00  0.00    -0.028 A 
HETATM   24  C   UNL     1      41.180 -15.569   3.208  1.00  0.00     0.012 A 
HETATM   25  C   UNL     1      41.640 -16.822   2.798  1.00  0.00     0.043 A 
HETATM   26  C   UNL     1      42.784 -16.913   2.016  1.00  0.00     0.116 A 
HETATM   27  F   UNL     1      43.221 -18.116   1.622  1.00  0.00    -0.206 F 
HETATM   28  C   UNL     1      43.485 -15.774   1.641  1.00  0.00     0.043 A 
HETATM   29  C   UNL     1      43.031 -14.519   2.053  1.00  0.00     0.012 A 
ENDBRANCH   9  23
BRANCH   7  30
HETATM   30  C   UNL     1      43.834 -12.036   7.376  1.00  0.00     0.085 C 
BRANCH  30  31
HETATM   31  C   UNL     1      44.386 -10.684   7.828  1.00  0.00     0.034 C 
BRANCH  31  32
HETATM   32  C   UNL     1      45.907 -10.665   7.952  1.00  0.00     0.164 C 
BRANCH  32  33
HETATM   33  O   UNL     1      46.495 -10.847   6.669  1.00  0.00    -0.401 OA
HETATM   34  H   UNL     1      47.383 -11.220   6.802  1.00  0.00     0.209 HD
ENDBRANCH  32  33
ENDBRANCH  31  32
ENDBRANCH  30  31
ENDBRANCH   7  30
TORSDOF 7
ENDMDL
MODEL 7
REMARK VINA RESULT:      -8.2      5.330      8.699
REMARK  7 active torsions:
REMARK  status: ('A' for Active; 'I' for Inactive)
REMARK    1  A    between atoms: C_7  and  C_8 
REMARK    2  A    between atoms: C_8  and  C_9 
REMARK    3  A    between atoms: C_9  and  C_10 
REMARK    4  A    between atoms: C_10  and  O_11 
REMARK    5  A    between atoms: C_13  and  C_14 
REMARK    6  A    between atoms: C_21  and  C_22 
REMARK       I    between atoms: C_22  and  N_23 
REMARK    7  A    between atoms: N_23  and  C_24 
ROOT
HETATM    1  C   UNL     1      38.853 -14.809  -2.244  1.00  0.00     0.070 C 
HETATM    2  C   UNL     1      38.501 -13.343  -2.177  1.00  0.00     0.037 C 
HETATM    3  N   UNL     1      37.488 -12.929  -3.046  1.00  0.00    -0.192 N 
HETATM    4  C   UNL     1      36.858 -11.745  -2.901  1.00  0.00     0.726 A 
HETATM    5  N   UNL     1      37.412 -10.799  -2.087  1.00  0.00    -0.083 N 
HETATM    6  N   UNL     1      36.610  -9.724  -1.953  1.00  0.00    -0.140 NA
HETATM    7  C   UNL     1      35.589 -10.078  -2.748  1.00  0.00     0.166 A 
HETATM    8  N   UNL     1      35.714 -11.307  -3.358  1.00  0.00    -0.046 NA
HETATM    9  C   UNL     1      38.677 -10.976  -1.376  1.00  0.00     0.202 C 
HETATM   10  C   UNL     1      39.083 -12.448  -1.335  1.00  0.00     0.062 C 
HETATM   11  H   UNL     1      36.985 -13.666  -3.535  1.00  0.00     0.184 HD
ENDROOT
BRANCH  10  12
HETATM   12  C   UNL     1      39.944 -12.907  -0.197  1.00  0.00     0.256 C 
HETATM   13  N   UNL     1      39.259 -13.457   0.866  1.00  0.00    -0.323 N 
HETATM   14  H   UNL     1      38.251 -13.398   0.872  1.00  0.00     0.169 HD
HETATM   15  O   UNL     1      41.164 -12.835  -0.302  1.00  0.00    -0.267 OA
BRANCH  13  16
HETATM   16  C   UNL     1      39.812 -14.131   1.979  1.00  0.00     0.035 A 
HETATM   17  C   UNL     1      40.053 -13.535   3.219  1.00  0.00     0.031 A 
HETATM   18  C   UNL     1      40.632 -14.269   4.261  1.00  0.00     0.026 A 
HETATM   19  C   UNL     1      40.979 -15.601   4.064  1.00  0.00     0.034 A 
HETATM   20 CL   UNL     1      41.704 -16.498   5.340  1.00  0.00    -0.084 Cl
HETATM   21  C   UNL     1      40.743 -16.211   2.835  1.00  0.00     0.026 A 
HETATM   22  C   UNL     1      40.155 -15.479   1.799  1.00  0.00     0.031 A 
ENDBRANCH  13  16
ENDBRANCH  10  12
BRANCH   9  23
HETATM   23  C   UNL     1      39.730 -10.066  -2.015  1.00  0.00    -0.028 A 
HETATM   24  C   UNL     1      40.447  -9.160  -1.210  1.00  0.00     0.012 A 
HETATM   25  C   UNL     1      41.409  -8.319  -1.771  1.00  0.00     0.043 A 
HETATM   26  C   UNL     1      41.659  -8.372  -3.137  1.00  0.00     0.116 A 
HETATM   27  F   UNL     1      42.584  -7.566  -3.671  1.00  0.00    -0.206 F 
HETATM   28  C   UNL     1      40.957  -9.248  -3.956  1.00  0.00     0.043 A 
HETATM   29  C   UNL     1      39.990 -10.088  -3.399  1.00  0.00     0.012 A 
ENDBRANCH   9  23
BRANCH   7  30
HETATM   30  C   UNL     1      34.381  -9.230  -2.911  1.00  0.00     0.085 C 
BRANCH  30  31
HETATM   31  C   UNL     1      33.147  -9.803  -2.213  1.00  0.00     0.034 C 
BRANCH  31  32
HETATM   32  C   UNL     1      32.170 -10.476  -3.173  1.00  0.00     0.164 C 
BRANCH  32  33
HETATM   33  O   UNL     1      32.750 -11.669  -3.688  1.00  0.00    -0.401 OA
HETATM   34  H   UNL     1      32.058 -12.144  -4.181  1.00  0.00     0.209 HD
ENDBRANCH  32  33
ENDBRANCH  31  32
ENDBRANCH  30  31
ENDBRANCH   7  30
TORSDOF 7
ENDMDL
MODEL 8
REMARK VINA RESULT:      -8.0      4.744      8.260
REMARK  7 active torsions:
REMARK  status: ('A' for Active; 'I' for Inactive)
REMARK    1  A    between atoms: C_7  and  C_8 
REMARK    2  A    between atoms: C_8  and  C_9 
REMARK    3  A    between atoms: C_9  and  C_10 
REMARK    4  A    between atoms: C_10  and  O_11 
REMARK    5  A    between atoms: C_13  and  C_14 
REMARK    6  A    between atoms: C_21  and  C_22 
REMARK       I    between atoms: C_22  and  N_23 
REMARK    7  A    between atoms: N_23  and  C_24 
ROOT
HETATM    1  C   UNL     1      38.707 -13.970  -2.013  1.00  0.00     0.070 C 
HETATM    2  C   UNL     1      39.624 -13.932  -0.815  1.00  0.00     0.037 C 
HETATM    3  N   UNL     1      39.478 -14.991   0.086  1.00  0.00    -0.192 N 
HETATM    4  C   UNL     1      40.404 -15.265   1.027  1.00  0.00     0.726 A 
HETATM    5  N   UNL     1      41.351 -14.324   1.314  1.00  0.00    -0.083 N 
HETATM    6  N   UNL     1      42.270 -14.789   2.184  1.00  0.00    -0.140 NA
HETATM    7  C   UNL     1      41.793 -16.022   2.409  1.00  0.00     0.166 A 
HETATM    8  N   UNL     1      40.641 -16.344   1.727  1.00  0.00    -0.046 NA
HETATM    9  C   UNL     1      41.410 -13.008   0.679  1.00  0.00     0.202 C 
HETATM   10  C   UNL     1      40.558 -12.970  -0.588  1.00  0.00     0.062 C 
HETATM   11  H   UNL     1      38.879 -15.758  -0.213  1.00  0.00     0.184 HD
ENDROOT
BRANCH  10  12
HETATM   12  C   UNL     1      40.945 -12.003  -1.665  1.00  0.00     0.256 C 
HETATM   13  N   UNL     1      40.676 -10.680  -1.386  1.00  0.00    -0.323 N 
HETATM   14  H   UNL     1      40.134 -10.463  -0.562  1.00  0.00     0.169 HD
HETATM   15  O   UNL     1      41.521 -12.420  -2.666  1.00  0.00    -0.267 OA
BRANCH  13  16
HETATM   16  C   UNL     1      41.093  -9.550  -2.125  1.00  0.00     0.035 A 
HETATM   17  C   UNL     1      40.537  -9.161  -3.346  1.00  0.00     0.031 A 
HETATM   18  C   UNL     1      41.031  -8.042  -4.029  1.00  0.00     0.026 A 
HETATM   19  C   UNL     1      42.089  -7.314  -3.495  1.00  0.00     0.034 A 
HETATM   20 CL   UNL     1      42.704  -5.949  -4.342  1.00  0.00    -0.084 Cl
HETATM   21  C   UNL     1      42.652  -7.687  -2.279  1.00  0.00     0.026 A 
HETATM   22  C   UNL     1      42.151  -8.798  -1.594  1.00  0.00     0.031 A 
ENDBRANCH  13  16
ENDBRANCH  10  12
BRANCH   9  23
HETATM   23  C   UNL     1      41.019 -11.947   1.712  1.00  0.00    -0.028 A 
HETATM   24  C   UNL     1      42.004 -11.079   2.223  1.00  0.00     0.012 A 
HETATM   25  C   UNL     1      41.671 -10.107   3.168  1.00  0.00     0.043 A 
HETATM   26  C   UNL     1      40.360  -9.998   3.613  1.00  0.00     0.116 A 
HETATM   27  F   UNL     1      40.044  -9.063   4.518  1.00  0.00    -0.206 F 
HETATM   28  C   UNL     1      39.372 -10.850   3.136  1.00  0.00     0.043 A 
HETATM   29  C   UNL     1      39.701 -11.828   2.193  1.00  0.00     0.012 A 
ENDBRANCH   9  23
BRANCH   7  30
HETATM   30  C   UNL     1      42.494 -16.993   3.287  1.00  0.00     0.085 C 
BRANCH  30  31
HETATM   31  C   UNL     1      43.586 -17.779   2.561  1.00  0.00     0.034 C 
BRANCH  31  32
HETATM   32  C   UNL     1      43.739 -19.210   3.070  1.00  0.00     0.164 C 
BRANCH  32  33
HETATM   33  O   UNL     1      43.084 -20.107   2.180  1.00  0.00    -0.401 OA
HETATM   34  H   UNL     1      42.329 -19.635   1.789  1.00  0.00     0.209 HD
ENDBRANCH  32  33
ENDBRANCH  31  32
ENDBRANCH  30  31
ENDBRANCH   7  30
TORSDOF 7
ENDMDL
MODEL 9
REMARK VINA RESULT:      -7.9      4.356      6.671
REMARK  7 active torsions:
REMARK  status: ('A' for Active; 'I' for Inactive)
REMARK    1  A    between atoms: C_7  and  C_8 
REMARK    2  A    between atoms: C_8  and  C_9 
REMARK    3  A    between atoms: C_9  and  C_10 
REMARK    4  A    between atoms: C_10  and  O_11 
REMARK    5  A    between atoms: C_13  and  C_14 
REMARK    6  A    between atoms: C_21  and  C_22 
REMARK       I    between atoms: C_22  and  N_23 
REMARK    7  A    between atoms: N_23  and  C_24 
ROOT
HETATM    1  C   UNL     1      45.235 -10.579   7.217  1.00  0.00     0.070 C 
HETATM    2  C   UNL     1      43.922 -11.107   6.690  1.00  0.00     0.037 C 
HETATM    3  N   UNL     1      44.018 -12.211   5.838  1.00  0.00    -0.192 N 
HETATM    4  C   UNL     1      42.950 -12.974   5.531  1.00  0.00     0.726 A 
HETATM    5  N   UNL     1      41.699 -12.498   5.802  1.00  0.00    -0.083 N 
HETATM    6  N   UNL     1      40.748 -13.419   5.549  1.00  0.00    -0.140 NA
HETATM    7  C   UNL     1      41.501 -14.430   5.091  1.00  0.00     0.166 A 
HETATM    8  N   UNL     1      42.856 -14.187   5.053  1.00  0.00    -0.046 NA
HETATM    9  C   UNL     1      41.437 -11.183   6.386  1.00  0.00     0.202 C 
HETATM   10  C   UNL     1      42.703 -10.595   7.005  1.00  0.00     0.062 C 
HETATM   11  H   UNL     1      44.936 -12.644   5.764  1.00  0.00     0.184 HD
ENDROOT
BRANCH  10  12
HETATM   12  C   UNL     1      42.544  -9.622   8.134  1.00  0.00     0.256 C 
HETATM   13  N   UNL     1      42.513 -10.187   9.391  1.00  0.00    -0.323 N 
HETATM   14  H   UNL     1      42.467 -11.194   9.466  1.00  0.00     0.169 HD
HETATM   15  O   UNL     1      42.522  -8.420   7.890  1.00  0.00    -0.267 OA
BRANCH  13  16
HETATM   16  C   UNL     1      42.557  -9.511  10.632  1.00  0.00     0.035 A 
HETATM   17  C   UNL     1      43.682  -8.846  11.125  1.00  0.00     0.031 A 
HETATM   18  C   UNL     1      43.649  -8.226  12.380  1.00  0.00     0.026 A 
HETATM   19  C   UNL     1      42.492  -8.277  13.151  1.00  0.00     0.034 A 
HETATM   20 CL   UNL     1      42.458  -7.528  14.699  1.00  0.00    -0.084 Cl
HETATM   21  C   UNL     1      41.362  -8.934  12.673  1.00  0.00     0.026 A 
HETATM   22  C   UNL     1      41.393  -9.544  11.415  1.00  0.00     0.031 A 
ENDBRANCH  13  16
ENDBRANCH  10  12
BRANCH   9  23
HETATM   23  C   UNL     1      40.806 -10.288   5.314  1.00  0.00    -0.028 A 
HETATM   24  C   UNL     1      39.435  -9.975   5.389  1.00  0.00     0.012 A 
HETATM   25  C   UNL     1      38.838  -9.164   4.423  1.00  0.00     0.043 A 
HETATM   26  C   UNL     1      39.601  -8.667   3.374  1.00  0.00     0.116 A 
HETATM   27  F   UNL     1      39.025  -7.888   2.449  1.00  0.00    -0.206 F 
HETATM   28  C   UNL     1      40.952  -8.971   3.268  1.00  0.00     0.043 A 
HETATM   29  C   UNL     1      41.553  -9.786   4.230  1.00  0.00     0.012 A 
ENDBRANCH   9  23
BRANCH   7  30
HETATM   30  C   UNL     1      40.918 -15.742   4.710  1.00  0.00     0.085 C 
BRANCH  30  31
HETATM   31  C   UNL     1      41.219 -16.134   3.263  1.00  0.00     0.034 C 
BRANCH  31  32
HETATM   32  C   UNL     1      40.453 -15.299   2.241  1.00  0.00     0.164 C 
BRANCH  32  33
HETATM   33  O   UNL     1      39.074 -15.259   2.591  1.00  0.00    -0.401 OA
HETATM   34  H   UNL     1      38.641 -16.020   2.167  1.00  0.00     0.209 HD
ENDBRANCH  32  33
ENDBRANCH  31  32
ENDBRANCH  30  31
ENDBRANCH   7  30
TORSDOF 7
ENDMDL
MODEL 10
REMARK VINA RESULT:      -7.6      4.786      8.697
REMARK  7 active torsions:
REMARK  status: ('A' for Active; 'I' for Inactive)
REMARK    1  A    between atoms: C_7  and  C_8 
REMARK    2  A    between atoms: C_8  and  C_9 
REMARK    3  A    between atoms: C_9  and  C_10 
REMARK    4  A    between atoms: C_10  and  O_11 
REMARK    5  A    between atoms: C_13  and  C_14 
REMARK    6  A    between atoms: C_21  and  C_22 
REMARK       I    between atoms: C_22  and  N_23 
REMARK    7  A    between atoms: N_23  and  C_24 
ROOT
HETATM    1  C   UNL     1      39.260 -14.371  -2.617  1.00  0.00     0.070 C 
HETATM    2  C   UNL     1      39.741 -14.082  -1.215  1.00  0.00     0.037 C 
HETATM    3  N   UNL     1      39.475 -15.079  -0.273  1.00  0.00    -0.192 N 
HETATM    4  C   UNL     1      40.089 -15.114   0.927  1.00  0.00     0.726 A 
HETATM    5  N   UNL     1      40.753 -14.002   1.361  1.00  0.00    -0.083 N 
HETATM    6  N   UNL     1      41.411 -14.231   2.515  1.00  0.00    -0.140 NA
HETATM    7  C   UNL     1      41.070 -15.508   2.742  1.00  0.00     0.166 A 
HETATM    8  N   UNL     1      40.248 -16.078   1.796  1.00  0.00    -0.046 NA
HETATM    9  C   UNL     1      40.818 -12.748   0.611  1.00  0.00     0.202 C 
HETATM   10  C   UNL     1      40.409 -12.957  -0.845  1.00  0.00     0.062 C 
HETATM   11  H   UNL     1      39.116 -15.959  -0.636  1.00  0.00     0.184 HD
ENDROOT
BRANCH  10  12
HETATM   12  C   UNL     1      40.970 -12.021  -1.872  1.00  0.00     0.256 C 
HETATM   13  N   UNL     1      40.646 -10.693  -1.691  1.00  0.00    -0.323 N 
HETATM   14  H   UNL     1      39.968 -10.456  -0.981  1.00  0.00     0.169 HD
HETATM   15  O   UNL     1      41.714 -12.463  -2.742  1.00  0.00    -0.267 OA
BRANCH  13  16
HETATM   16  C   UNL     1      41.177  -9.583  -2.386  1.00  0.00     0.035 A 
HETATM   17  C   UNL     1      42.146  -8.721  -1.867  1.00  0.00     0.031 A 
HETATM   18  C   UNL     1      42.596  -7.625  -2.613  1.00  0.00     0.026 A 
HETATM   19  C   UNL     1      42.072  -7.382  -3.878  1.00  0.00     0.034 A 
HETATM   20 CL   UNL     1      42.614  -6.027  -4.787  1.00  0.00    -0.084 Cl
HETATM   21  C   UNL     1      41.107  -8.233  -4.410  1.00  0.00     0.026 A 
HETATM   22  C   UNL     1      40.666  -9.333  -3.668  1.00  0.00     0.031 A 
ENDBRANCH  13  16
ENDBRANCH  10  12
BRANCH   9  23
HETATM   23  C   UNL     1      39.975 -11.698   1.340  1.00  0.00    -0.028 A 
HETATM   24  C   UNL     1      40.615 -10.687   2.083  1.00  0.00     0.012 A 
HETATM   25  C   UNL     1      39.867  -9.720   2.758  1.00  0.00     0.043 A 
HETATM   26  C   UNL     1      38.480  -9.759   2.702  1.00  0.00     0.116 A 
HETATM   27  F   UNL     1      37.766  -8.829   3.349  1.00  0.00    -0.206 F 
HETATM   28  C   UNL     1      37.823 -10.753   1.988  1.00  0.00     0.043 A 
HETATM   29  C   UNL     1      38.567 -11.725   1.315  1.00  0.00     0.012 A 
ENDBRANCH   9  23
BRANCH   7  30
HETATM   30  C   UNL     1      41.593 -16.272   3.904  1.00  0.00     0.085 C 
BRANCH  30  31
HETATM   31  C   UNL     1      40.739 -16.110   5.162  1.00  0.00     0.034 C 
BRANCH  31  32
HETATM   32  C   UNL     1      41.484 -15.439   6.313  1.00  0.00     0.164 C 
BRANCH  32  33
HETATM   33  O   UNL     1      40.891 -14.176   6.595  1.00  0.00    -0.401 OA
HETATM   34  H   UNL     1      40.318 -13.945   5.843  1.00  0.00     0.209 HD
ENDBRANCH  32  33
ENDBRANCH  31  32
ENDBRANCH  30  31
ENDBRANCH   7  30
TORSDOF 7
ENDMDL
