MODEL 1
REMARK VINA RESULT:      -9.2      0.000      0.000
REMARK  8 active torsions:
REMARK  status: ('A' for Active; 'I' for Inactive)
REMARK       I    between atoms: N_2  and  C_3 
REMARK    1  A    between atoms: N_2  and  C_29 
REMARK    2  A    between atoms: C_3  and  C_4 
REMARK    3  A    between atoms: C_7  and  C_8 
REMARK       I    between atoms: C_8  and  N_9 
REMARK    4  A    between atoms: N_9  and  C_10 
REMARK    5  A    between atoms: N_20  and  C_21 
REMARK    6  A    between atoms: C_21  and  C_22 
REMARK    7  A    between atoms: C_29  and  C_30 
REMARK    8  A    between atoms: C_30  and  C_31 
ROOT
HETATM    1  C   UNL     1      42.786 -14.034   5.736  1.00  0.00     0.098 C 
HETATM    2  C   UNL     1      41.920 -13.546   4.636  1.00  0.00     0.206 C 
HETATM    3  O   UNL     1      40.802 -14.018   4.438  1.00  0.00    -0.286 OA
HETATM    4  C   UNL     1      42.455 -12.453   3.770  1.00  0.00     0.098 C 
HETATM    5  C   UNL     1      43.528 -11.788   4.234  1.00  0.00     0.111 C 
HETATM    6  N   UNL     1      44.187 -12.084   5.424  1.00  0.00    -0.362 N 
HETATM    7  C   UNL     1      43.811 -13.243   6.094  1.00  0.00     0.111 C 
ENDROOT
BRANCH   1   8
HETATM    8  C   UNL     1      42.584 -15.269   6.529  1.00  0.00     0.258 C 
HETATM    9  N   UNL     1      43.358 -16.391   6.250  1.00  0.00    -0.352 N 
HETATM   10  C   UNL     1      43.260 -17.530   7.153  1.00  0.00     0.152 C 
HETATM   11  O   UNL     1      41.822 -15.217   7.498  1.00  0.00    -0.267 OA
BRANCH   9  12
HETATM   12  C   UNL     1      44.252 -16.584   5.096  1.00  0.00     0.131 C 
BRANCH  12  13
HETATM   13  C   UNL     1      43.522 -16.875   3.783  1.00  0.00     0.079 C 
BRANCH  13  14
HETATM   14  C   UNL     1      43.612 -18.341   3.439  1.00  0.00     0.035 A 
HETATM   15  N   UNL     1      44.167 -19.157   4.367  1.00  0.00    -0.266 NA
HETATM   16  C   UNL     1      44.243 -20.476   4.078  1.00  0.00     0.117 A 
HETATM   17  C   UNL     1      43.800 -21.029   2.891  1.00  0.00     0.019 A 
HETATM   18  C   UNL     1      43.248 -20.179   1.940  1.00  0.00     0.003 A 
HETATM   19  C   UNL     1      43.151 -18.816   2.213  1.00  0.00     0.027 A 
ENDBRANCH  13  14
ENDBRANCH  12  13
ENDBRANCH   9  12
ENDBRANCH   1   8
BRANCH   4  20
HETATM   20  C   UNL     1      41.879 -12.081   2.445  1.00  0.00     0.257 C 
HETATM   21  N   UNL     1      40.925 -12.948   1.973  1.00  0.00    -0.352 N 
HETATM   22  H   UNL     1      40.622 -13.701   2.592  1.00  0.00     0.163 HD
HETATM   23  O   UNL     1      42.274 -11.101   1.824  1.00  0.00    -0.267 OA
BRANCH  21  24
HETATM   24  C   UNL     1      40.283 -12.886   0.658  1.00  0.00     0.084 C 
HETATM   25  C   UNL     1      40.043 -14.293   0.100  1.00  0.00     0.025 C 
HETATM   26  C   UNL     1      39.627 -14.401  -1.369  1.00  0.00     0.002 C 
HETATM   27  C   UNL     1      40.401 -13.505  -2.339  1.00  0.00     0.000 C 
HETATM   28  C   UNL     1      39.652 -12.247  -2.786  1.00  0.00     0.000 C 
HETATM   29  C   UNL     1      39.402 -11.168  -1.729  1.00  0.00     0.000 C 
HETATM   30  C   UNL     1      38.418 -11.569  -0.630  1.00  0.00     0.002 C 
HETATM   31  C   UNL     1      39.053 -11.969   0.702  1.00  0.00     0.025 C 
ENDBRANCH  21  24
ENDBRANCH   4  20
BRANCH   6  32
HETATM   32  C   UNL     1      45.233 -11.187   5.967  1.00  0.00     0.159 C 
BRANCH  32  33
HETATM   33  C   UNL     1      44.972 -10.700   7.398  1.00  0.00     0.139 C 
HETATM   34  O   UNL     1      43.793  -9.876   7.492  1.00  0.00    -0.384 OA
HETATM   35  C   UNL     1      44.009  -8.909   8.531  1.00  0.00     0.168 C 
HETATM   36  C   UNL     1      45.330  -9.248   9.193  1.00  0.00     0.029 C 
HETATM   37  C   UNL     1      46.084  -9.912   8.067  1.00  0.00     0.035 C 
ENDBRANCH  32  33
ENDBRANCH   6  32
TORSDOF 8
ENDMDL
MODEL 2
REMARK VINA RESULT:      -9.1      2.201      8.252
REMARK  8 active torsions:
REMARK  status: ('A' for Active; 'I' for Inactive)
REMARK       I    between atoms: N_2  and  C_3 
REMARK    1  A    between atoms: N_2  and  C_29 
REMARK    2  A    between atoms: C_3  and  C_4 
REMARK    3  A    between atoms: C_7  and  C_8 
REMARK       I    between atoms: C_8  and  N_9 
REMARK    4  A    between atoms: N_9  and  C_10 
REMARK    5  A    between atoms: N_20  and  C_21 
REMARK    6  A    between atoms: C_21  and  C_22 
REMARK    7  A    between atoms: C_29  and  C_30 
REMARK    8  A    between atoms: C_30  and  C_31 
ROOT
HETATM    1  C   UNL     1      39.588 -12.157   5.297  1.00  0.00     0.098 C 
HETATM    2  C   UNL     1      39.884 -13.584   5.562  1.00  0.00     0.206 C 
HETATM    3  O   UNL     1      39.805 -14.060   6.693  1.00  0.00    -0.286 OA
HETATM    4  C   UNL     1      40.283 -14.433   4.400  1.00  0.00     0.098 C 
HETATM    5  C   UNL     1      40.045 -13.928   3.176  1.00  0.00     0.111 C 
HETATM    6  N   UNL     1      39.505 -12.668   2.933  1.00  0.00    -0.362 N 
HETATM    7  C   UNL     1      39.355 -11.814   4.019  1.00  0.00     0.111 C 
ENDROOT
BRANCH   1   8
HETATM    8  C   UNL     1      39.446 -11.088   6.313  1.00  0.00     0.258 C 
HETATM    9  N   UNL     1      40.505 -10.213   6.535  1.00  0.00    -0.352 N 
HETATM   10  C   UNL     1      40.277  -9.072   7.411  1.00  0.00     0.152 C 
HETATM   11  O   UNL     1      38.340 -10.930   6.839  1.00  0.00    -0.267 OA
BRANCH   9  12
HETATM   12  C   UNL     1      41.876 -10.334   6.009  1.00  0.00     0.131 C 
BRANCH  12  13
HETATM   13  C   UNL     1      42.770 -11.280   6.813  1.00  0.00     0.079 C 
BRANCH  13  14
HETATM   14  C   UNL     1      43.980 -10.549   7.341  1.00  0.00     0.035 A 
HETATM   15  N   UNL     1      45.185 -11.137   7.146  1.00  0.00    -0.266 NA
HETATM   16  C   UNL     1      46.280 -10.488   7.603  1.00  0.00     0.117 A 
HETATM   17  C   UNL     1      46.235  -9.274   8.262  1.00  0.00     0.019 A 
HETATM   18  C   UNL     1      44.991  -8.690   8.471  1.00  0.00     0.003 A 
HETATM   19  C   UNL     1      43.845  -9.332   8.005  1.00  0.00     0.027 A 
ENDBRANCH  13  14
ENDBRANCH  12  13
ENDBRANCH   9  12
ENDBRANCH   1   8
BRANCH   4  20
HETATM   20  C   UNL     1      40.928 -15.773   4.528  1.00  0.00     0.257 C 
HETATM   21  N   UNL     1      42.071 -15.930   3.783  1.00  0.00    -0.352 N 
HETATM   22  H   UNL     1      42.433 -15.111   3.293  1.00  0.00     0.163 HD
HETATM   23  O   UNL     1      40.435 -16.661   5.213  1.00  0.00    -0.267 OA
BRANCH  21  24
HETATM   24  C   UNL     1      42.835 -17.171   3.635  1.00  0.00     0.084 C 
HETATM   25  C   UNL     1      43.150 -17.446   2.160  1.00  0.00     0.025 C 
HETATM   26  C   UNL     1      43.707 -18.828   1.810  1.00  0.00     0.002 C 
HETATM   27  C   UNL     1      43.015 -20.008   2.497  1.00  0.00     0.000 C 
HETATM   28  C   UNL     1      43.784 -20.601   3.680  1.00  0.00     0.000 C 
HETATM   29  C   UNL     1      43.913 -19.734   4.935  1.00  0.00     0.000 C 
HETATM   30  C   UNL     1      44.793 -18.496   4.766  1.00  0.00     0.002 C 
HETATM   31  C   UNL     1      44.040 -17.177   4.585  1.00  0.00     0.025 C 
ENDBRANCH  21  24
ENDBRANCH   4  20
BRANCH   6  32
HETATM   32  C   UNL     1      39.087 -12.262   1.571  1.00  0.00     0.159 C 
BRANCH  32  33
HETATM   33  C   UNL     1      39.953 -12.837   0.443  1.00  0.00     0.139 C 
HETATM   34  O   UNL     1      40.864 -11.863  -0.102  1.00  0.00    -0.384 OA
HETATM   35  C   UNL     1      41.049 -12.158  -1.495  1.00  0.00     0.168 C 
HETATM   36  C   UNL     1      40.321 -13.458  -1.779  1.00  0.00     0.029 C 
HETATM   37  C   UNL     1      39.221 -13.433  -0.746  1.00  0.00     0.035 C 
ENDBRANCH  32  33
ENDBRANCH   6  32
TORSDOF 8
ENDMDL
MODEL 3
REMARK VINA RESULT:      -9.0      1.206      1.868
REMARK  8 active torsions:
REMARK  status: ('A' for Active; 'I' for Inactive)
REMARK       I    between atoms: N_2  and  C_3 
REMARK    1  A    between atoms: N_2  and  C_29 
REMARK    2  A    between atoms: C_3  and  C_4 
REMARK    3  A    between atoms: C_7  and  C_8 
REMARK       I    between atoms: C_8  and  N_9 
REMARK    4  A    between atoms: N_9  and  C_10 
REMARK    5  A    between atoms: N_20  and  C_21 
REMARK    6  A    between atoms: C_21  and  C_22 
REMARK    7  A    between atoms: C_29  and  C_30 
REMARK    8  A    between atoms: C_30  and  C_31 
ROOT
HETATM    1  C   UNL     1      41.478 -14.106   5.304  1.00  0.00     0.098 C 
HETATM    2  C   UNL     1      40.873 -13.898   3.967  1.00  0.00     0.206 C 
HETATM    3  O   UNL     1      40.128 -14.734   3.459  1.00  0.00    -0.286 OA
HETATM    4  C   UNL     1      41.201 -12.628   3.251  1.00  0.00     0.098 C 
HETATM    5  C   UNL     1      41.755 -11.648   3.988  1.00  0.00     0.111 C 
HETATM    6  N   UNL     1      42.079 -11.761   5.337  1.00  0.00    -0.362 N 
HETATM    7  C   UNL     1      41.975 -13.019   5.919  1.00  0.00     0.111 C 
ENDROOT
BRANCH   1   8
HETATM    8  C   UNL     1      41.517 -15.379   6.060  1.00  0.00     0.258 C 
HETATM    9  N   UNL     1      42.612 -16.226   5.913  1.00  0.00    -0.352 N 
HETATM   10  C   UNL     1      42.704 -17.382   6.794  1.00  0.00     0.152 C 
HETATM   11  O   UNL     1      40.632 -15.585   6.895  1.00  0.00    -0.267 OA
BRANCH   9  12
HETATM   12  C   UNL     1      43.691 -16.110   4.917  1.00  0.00     0.131 C 
BRANCH  12  13
HETATM   13  C   UNL     1      43.289 -16.552   3.509  1.00  0.00     0.079 C 
BRANCH  13  14
HETATM   14  C   UNL     1      43.470 -18.041   3.346  1.00  0.00     0.035 A 
HETATM   15  N   UNL     1      44.122 -18.692   4.340  1.00  0.00    -0.266 NA
HETATM   16  C   UNL     1      44.282 -20.029   4.214  1.00  0.00     0.117 A 
HETATM   17  C   UNL     1      43.831 -20.758   3.130  1.00  0.00     0.019 A 
HETATM   18  C   UNL     1      43.179 -20.076   2.109  1.00  0.00     0.003 A 
HETATM   19  C   UNL     1      42.994 -18.699   2.215  1.00  0.00     0.027 A 
ENDBRANCH  13  14
ENDBRANCH  12  13
ENDBRANCH   9  12
ENDBRANCH   1   8
BRANCH   4  20
HETATM   20  C   UNL     1      40.963 -12.406   1.795  1.00  0.00     0.257 C 
HETATM   21  N   UNL     1      39.860 -13.050   1.292  1.00  0.00    -0.352 N 
HETATM   22  H   UNL     1      39.252 -13.534   1.954  1.00  0.00     0.163 HD
HETATM   23  O   UNL     1      41.729 -11.735   1.113  1.00  0.00    -0.267 OA
BRANCH  21  24
HETATM   24  C   UNL     1      39.460 -13.095  -0.116  1.00  0.00     0.084 C 
HETATM   25  C   UNL     1      39.005 -11.714  -0.599  1.00  0.00     0.025 C 
HETATM   26  C   UNL     1      38.309 -11.644  -1.961  1.00  0.00     0.002 C 
HETATM   27  C   UNL     1      37.267 -12.734  -2.223  1.00  0.00     0.000 C 
HETATM   28  C   UNL     1      37.741 -13.867  -3.135  1.00  0.00     0.000 C 
HETATM   29  C   UNL     1      38.822 -14.802  -2.586  1.00  0.00     0.000 C 
HETATM   30  C   UNL     1      40.192 -14.151  -2.401  1.00  0.00     0.002 C 
HETATM   31  C   UNL     1      40.547 -13.772  -0.962  1.00  0.00     0.025 C 
ENDBRANCH  21  24
ENDBRANCH   4  20
BRANCH   6  32
HETATM   32  C   UNL     1      42.499 -10.581   6.128  1.00  0.00     0.159 C 
BRANCH  32  33
HETATM   33  C   UNL     1      43.731 -10.815   7.012  1.00  0.00     0.139 C 
HETATM   34  O   UNL     1      44.058  -9.664   7.815  1.00  0.00    -0.384 OA
HETATM   35  C   UNL     1      45.483  -9.633   7.988  1.00  0.00     0.168 C 
HETATM   36  C   UNL     1      46.037 -10.904   7.373  1.00  0.00     0.029 C 
HETATM   37  C   UNL     1      45.017 -11.207   6.304  1.00  0.00     0.035 C 
ENDBRANCH  32  33
ENDBRANCH   6  32
TORSDOF 8
ENDMDL
MODEL 4
REMARK VINA RESULT:      -8.7      1.689      2.664
REMARK  8 active torsions:
REMARK  status: ('A' for Active; 'I' for Inactive)
REMARK       I    between atoms: N_2  and  C_3 
REMARK    1  A    between atoms: N_2  and  C_29 
REMARK    2  A    between atoms: C_3  and  C_4 
REMARK    3  A    between atoms: C_7  and  C_8 
REMARK       I    between atoms: C_8  and  N_9 
REMARK    4  A    between atoms: N_9  and  C_10 
REMARK    5  A    between atoms: N_20  and  C_21 
REMARK    6  A    between atoms: C_21  and  C_22 
REMARK    7  A    between atoms: C_29  and  C_30 
REMARK    8  A    between atoms: C_30  and  C_31 
ROOT
HETATM    1  C   UNL     1      42.723 -14.227   6.108  1.00  0.00     0.098 C 
HETATM    2  C   UNL     1      41.928 -13.481   5.104  1.00  0.00     0.206 C 
HETATM    3  O   UNL     1      40.839 -13.892   4.709  1.00  0.00    -0.286 OA
HETATM    4  C   UNL     1      42.499 -12.202   4.584  1.00  0.00     0.098 C 
HETATM    5  C   UNL     1      43.520 -11.672   5.281  1.00  0.00     0.111 C 
HETATM    6  N   UNL     1      44.097 -12.257   6.404  1.00  0.00    -0.362 N 
HETATM    7  C   UNL     1      43.701 -13.548   6.730  1.00  0.00     0.111 C 
ENDROOT
BRANCH   1   8
HETATM    8  C   UNL     1      42.493 -15.623   6.546  1.00  0.00     0.258 C 
HETATM    9  N   UNL     1      43.199 -16.655   5.935  1.00  0.00    -0.352 N 
HETATM   10  C   UNL     1      43.082 -17.992   6.500  1.00  0.00     0.152 C 
HETATM   11  O   UNL     1      41.774 -15.811   7.532  1.00  0.00    -0.267 OA
BRANCH   9  12
HETATM   12  C   UNL     1      44.036 -16.558   4.727  1.00  0.00     0.131 C 
BRANCH  12  13
HETATM   13  C   UNL     1      43.461 -17.287   3.511  1.00  0.00     0.079 C 
BRANCH  13  14
HETATM   14  C   UNL     1      42.571 -16.368   2.711  1.00  0.00     0.035 A 
HETATM   15  N   UNL     1      43.152 -15.271   2.168  1.00  0.00    -0.266 NA
HETATM   16  C   UNL     1      42.369 -14.443   1.438  1.00  0.00     0.117 A 
HETATM   17  C   UNL     1      41.018 -14.649   1.230  1.00  0.00     0.019 A 
HETATM   18  C   UNL     1      40.431 -15.769   1.807  1.00  0.00     0.003 A 
HETATM   19  C   UNL     1      41.214 -16.643   2.558  1.00  0.00     0.027 A 
ENDBRANCH  13  14
ENDBRANCH  12  13
ENDBRANCH   9  12
ENDBRANCH   1   8
BRANCH   4  20
HETATM   20  C   UNL     1      42.011 -11.510   3.355  1.00  0.00     0.257 C 
HETATM   21  N   UNL     1      40.645 -11.463   3.230  1.00  0.00    -0.352 N 
HETATM   22  H   UNL     1      40.086 -11.807   4.011  1.00  0.00     0.163 HD
HETATM   23  O   UNL     1      42.788 -11.066   2.517  1.00  0.00    -0.267 OA
BRANCH  21  24
HETATM   24  C   UNL     1      39.906 -10.948   2.074  1.00  0.00     0.084 C 
HETATM   25  C   UNL     1      38.668 -11.806   1.791  1.00  0.00     0.025 C 
HETATM   26  C   UNL     1      37.938 -11.565   0.467  1.00  0.00     0.002 C 
HETATM   27  C   UNL     1      38.839 -11.405  -0.760  1.00  0.00     0.000 C 
HETATM   28  C   UNL     1      39.030  -9.962  -1.231  1.00  0.00     0.000 C 
HETATM   29  C   UNL     1      39.828  -9.027  -0.318  1.00  0.00     0.000 C 
HETATM   30  C   UNL     1      39.139  -8.683   1.001  1.00  0.00     0.002 C 
HETATM   31  C   UNL     1      39.653  -9.443   2.225  1.00  0.00     0.025 C 
ENDBRANCH  21  24
ENDBRANCH   4  20
BRANCH   6  32
HETATM   32  C   UNL     1      45.081 -11.521   7.233  1.00  0.00     0.159 C 
BRANCH  32  33
HETATM   33  C   UNL     1      44.459 -10.655   8.337  1.00  0.00     0.139 C 
HETATM   34  O   UNL     1      43.940  -9.409   7.831  1.00  0.00    -0.384 OA
HETATM   35  C   UNL     1      44.087  -8.417   8.859  1.00  0.00     0.168 C 
HETATM   36  C   UNL     1      44.596  -9.127  10.098  1.00  0.00     0.029 C 
HETATM   37  C   UNL     1      45.356 -10.288   9.506  1.00  0.00     0.035 C 
ENDBRANCH  32  33
ENDBRANCH   6  32
TORSDOF 8
ENDMDL
MODEL 5
REMARK VINA RESULT:      -8.7      3.595      8.291
REMARK  8 active torsions:
REMARK  status: ('A' for Active; 'I' for Inactive)
REMARK       I    between atoms: N_2  and  C_3 
REMARK    1  A    between atoms: N_2  and  C_29 
REMARK    2  A    between atoms: C_3  and  C_4 
REMARK    3  A    between atoms: C_7  and  C_8 
REMARK       I    between atoms: C_8  and  N_9 
REMARK    4  A    between atoms: N_9  and  C_10 
REMARK    5  A    between atoms: N_20  and  C_21 
REMARK    6  A    between atoms: C_21  and  C_22 
REMARK    7  A    between atoms: C_29  and  C_30 
REMARK    8  A    between atoms: C_30  and  C_31 
ROOT
HETATM    1  C   UNL     1      41.986  -9.878   6.539  1.00  0.00     0.098 C 
HETATM    2  C   UNL     1      41.820 -11.184   5.859  1.00  0.00     0.206 C 
HETATM    3  O   UNL     1      41.061 -11.321   4.901  1.00  0.00    -0.286 OA
HETATM    4  C   UNL     1      42.613 -12.338   6.379  1.00  0.00     0.098 C 
HETATM    5  C   UNL     1      43.632 -12.043   7.206  1.00  0.00     0.111 C 
HETATM    6  N   UNL     1      43.955 -10.760   7.635  1.00  0.00    -0.362 N 
HETATM    7  C   UNL     1      43.069  -9.736   7.321  1.00  0.00     0.111 C 
ENDROOT
BRANCH   1   8
HETATM    8  C   UNL     1      41.116  -8.689   6.378  1.00  0.00     0.258 C 
HETATM    9  N   UNL     1      40.241  -8.341   7.403  1.00  0.00    -0.352 N 
HETATM   10  C   UNL     1      39.527  -7.077   7.291  1.00  0.00     0.152 C 
HETATM   11  O   UNL     1      41.291  -7.972   5.389  1.00  0.00    -0.267 OA
BRANCH   9  12
HETATM   12  C   UNL     1      39.913  -9.142   8.594  1.00  0.00     0.131 C 
BRANCH  12  13
HETATM   13  C   UNL     1      39.140  -8.373   9.668  1.00  0.00     0.079 C 
BRANCH  13  14
HETATM   14  C   UNL     1      39.641  -8.732  11.045  1.00  0.00     0.035 A 
HETATM   15  N   UNL     1      39.511 -10.026  11.427  1.00  0.00    -0.266 NA
HETATM   16  C   UNL     1      39.967 -10.366  12.654  1.00  0.00     0.117 A 
HETATM   17  C   UNL     1      40.541  -9.470  13.536  1.00  0.00     0.019 A 
HETATM   18  C   UNL     1      40.653  -8.142  13.139  1.00  0.00     0.003 A 
HETATM   19  C   UNL     1      40.198  -7.764  11.877  1.00  0.00     0.027 A 
ENDBRANCH  13  14
ENDBRANCH  12  13
ENDBRANCH   9  12
ENDBRANCH   1   8
BRANCH   4  20
HETATM   20  C   UNL     1      42.328 -13.764   6.045  1.00  0.00     0.257 C 
HETATM   21  N   UNL     1      43.295 -14.379   5.290  1.00  0.00    -0.352 N 
HETATM   22  H   UNL     1      44.153 -13.858   5.106  1.00  0.00     0.163 HD
HETATM   23  O   UNL     1      41.285 -14.310   6.390  1.00  0.00    -0.267 OA
BRANCH  21  24
HETATM   24  C   UNL     1      43.218 -15.730   4.730  1.00  0.00     0.084 C 
HETATM   25  C   UNL     1      43.282 -16.785   5.839  1.00  0.00     0.025 C 
HETATM   26  C   UNL     1      43.480 -18.241   5.409  1.00  0.00     0.002 C 
HETATM   27  C   UNL     1      44.530 -18.467   4.318  1.00  0.00     0.000 C 
HETATM   28  C   UNL     1      43.959 -18.703   2.918  1.00  0.00     0.000 C 
HETATM   29  C   UNL     1      43.266 -17.520   2.237  1.00  0.00     0.000 C 
HETATM   30  C   UNL     1      41.949 -17.093   2.885  1.00  0.00     0.002 C 
HETATM   31  C   UNL     1      42.029 -15.847   3.768  1.00  0.00     0.025 C 
ENDBRANCH  21  24
ENDBRANCH   4  20
BRANCH   6  32
HETATM   32  C   UNL     1      45.207 -10.491   8.381  1.00  0.00     0.159 C 
BRANCH  32  33
HETATM   33  C   UNL     1      45.002 -10.153   9.864  1.00  0.00     0.139 C 
HETATM   34  O   UNL     1      44.243 -11.163  10.558  1.00  0.00    -0.384 OA
HETATM   35  C   UNL     1      43.480 -10.517  11.588  1.00  0.00     0.168 C 
HETATM   36  C   UNL     1      43.898  -9.059  11.608  1.00  0.00     0.029 C 
HETATM   37  C   UNL     1      44.319  -8.833  10.177  1.00  0.00     0.035 C 
ENDBRANCH  32  33
ENDBRANCH   6  32
TORSDOF 8
ENDMDL
MODEL 6
REMARK VINA RESULT:      -8.7      2.978      8.831
REMARK  8 active torsions:
REMARK  status: ('A' for Active; 'I' for Inactive)
REMARK       I    between atoms: N_2  and  C_3 
REMARK    1  A    between atoms: N_2  and  C_29 
REMARK    2  A    between atoms: C_3  and  C_4 
REMARK    3  A    between atoms: C_7  and  C_8 
REMARK       I    between atoms: C_8  and  N_9 
REMARK    4  A    between atoms: N_9  and  C_10 
REMARK    5  A    between atoms: N_20  and  C_21 
REMARK    6  A    between atoms: C_21  and  C_22 
REMARK    7  A    between atoms: C_29  and  C_30 
REMARK    8  A    between atoms: C_30  and  C_31 
ROOT
HETATM    1  C   UNL     1      39.118 -11.419   1.262  1.00  0.00     0.098 C 
HETATM    2  C   UNL     1      39.710 -12.506   2.076  1.00  0.00     0.206 C 
HETATM    3  O   UNL     1      39.224 -12.843   3.154  1.00  0.00    -0.286 OA
HETATM    4  C   UNL     1      40.928 -13.185   1.540  1.00  0.00     0.098 C 
HETATM    5  C   UNL     1      41.206 -12.980   0.239  1.00  0.00     0.111 C 
HETATM    6  N   UNL     1      40.472 -12.152  -0.605  1.00  0.00    -0.362 N 
HETATM    7  C   UNL     1      39.487 -11.360  -0.028  1.00  0.00     0.111 C 
ENDROOT
BRANCH   1   8
HETATM    8  C   UNL     1      38.100 -10.442   1.713  1.00  0.00     0.258 C 
HETATM    9  N   UNL     1      38.500  -9.335   2.457  1.00  0.00    -0.352 N 
HETATM   10  C   UNL     1      37.507  -8.307   2.737  1.00  0.00     0.152 C 
HETATM   11  O   UNL     1      36.944 -10.577   1.302  1.00  0.00    -0.267 OA
BRANCH   9  12
HETATM   12  C   UNL     1      39.829  -9.099   3.044  1.00  0.00     0.131 C 
BRANCH  12  13
HETATM   13  C   UNL     1      39.946  -9.518   4.511  1.00  0.00     0.079 C 
BRANCH  13  14
HETATM   14  C   UNL     1      41.140 -10.417   4.714  1.00  0.00     0.035 A 
HETATM   15  N   UNL     1      42.134 -10.333   3.796  1.00  0.00    -0.266 NA
HETATM   16  C   UNL     1      43.217 -11.125   3.971  1.00  0.00     0.117 A 
HETATM   17  C   UNL     1      43.357 -12.016   5.018  1.00  0.00     0.019 A 
HETATM   18  C   UNL     1      42.322 -12.105   5.942  1.00  0.00     0.003 A 
HETATM   19  C   UNL     1      41.197 -11.297   5.792  1.00  0.00     0.027 A 
ENDBRANCH  13  14
ENDBRANCH  12  13
ENDBRANCH   9  12
ENDBRANCH   1   8
BRANCH   4  20
HETATM   20  C   UNL     1      41.832 -14.046   2.357  1.00  0.00     0.257 C 
HETATM   21  N   UNL     1      41.225 -14.661   3.423  1.00  0.00    -0.352 N 
HETATM   22  H   UNL     1      40.213 -14.564   3.512  1.00  0.00     0.163 HD
HETATM   23  O   UNL     1      43.027 -14.145   2.104  1.00  0.00    -0.267 OA
BRANCH  21  24
HETATM   24  C   UNL     1      41.897 -15.465   4.447  1.00  0.00     0.084 C 
HETATM   25  C   UNL     1      41.050 -15.544   5.722  1.00  0.00     0.025 C 
HETATM   26  C   UNL     1      41.721 -16.118   6.973  1.00  0.00     0.002 C 
HETATM   27  C   UNL     1      43.145 -15.625   7.240  1.00  0.00     0.000 C 
HETATM   28  C   UNL     1      44.248 -16.615   6.859  1.00  0.00     0.000 C 
HETATM   29  C   UNL     1      44.449 -16.900   5.369  1.00  0.00     0.000 C 
HETATM   30  C   UNL     1      43.303 -17.662   4.705  1.00  0.00     0.002 C 
HETATM   31  C   UNL     1      42.351 -16.809   3.865  1.00  0.00     0.025 C 
ENDBRANCH  21  24
ENDBRANCH   4  20
BRANCH   6  32
HETATM   32  C   UNL     1      40.718 -12.132  -2.065  1.00  0.00     0.159 C 
BRANCH  32  33
HETATM   33  C   UNL     1      39.724 -12.963  -2.887  1.00  0.00     0.139 C 
HETATM   34  O   UNL     1      38.381 -12.447  -2.810  1.00  0.00    -0.384 OA
HETATM   35  C   UNL     1      37.473 -13.556  -2.905  1.00  0.00     0.168 C 
HETATM   36  C   UNL     1      38.304 -14.792  -3.191  1.00  0.00     0.029 C 
HETATM   37  C   UNL     1      39.623 -14.440  -2.549  1.00  0.00     0.035 C 
ENDBRANCH  32  33
ENDBRANCH   6  32
TORSDOF 8
ENDMDL
MODEL 7
REMARK VINA RESULT:      -8.6      2.418      6.466
REMARK  8 active torsions:
REMARK  status: ('A' for Active; 'I' for Inactive)
REMARK       I    between atoms: N_2  and  C_3 
REMARK    1  A    between atoms: N_2  and  C_29 
REMARK    2  A    between atoms: C_3  and  C_4 
REMARK    3  A    between atoms: C_7  and  C_8 
REMARK       I    between atoms: C_8  and  N_9 
REMARK    4  A    between atoms: N_9  and  C_10 
REMARK    5  A    between atoms: N_20  and  C_21 
REMARK    6  A    between atoms: C_21  and  C_22 
REMARK    7  A    between atoms: C_29  and  C_30 
REMARK    8  A    between atoms: C_30  and  C_31 
ROOT
HETATM    1  C   UNL     1      40.777 -12.369   5.317  1.00  0.00     0.098 C 
HETATM    2  C   UNL     1      40.885 -12.547   3.850  1.00  0.00     0.206 C 
HETATM    3  O   UNL     1      41.251 -11.632   3.114  1.00  0.00    -0.286 OA
HETATM    4  C   UNL     1      40.532 -13.886   3.289  1.00  0.00     0.098 C 
HETATM    5  C   UNL     1      40.448 -14.902   4.167  1.00  0.00     0.111 C 
HETATM    6  N   UNL     1      40.618 -14.774   5.543  1.00  0.00    -0.362 N 
HETATM    7  C   UNL     1      40.719 -13.487   6.059  1.00  0.00     0.111 C 
ENDROOT
BRANCH   1   8
HETATM    8  C   UNL     1      40.807 -11.081   6.048  1.00  0.00     0.258 C 
HETATM    9  N   UNL     1      42.021 -10.423   6.220  1.00  0.00    -0.352 N 
HETATM   10  C   UNL     1      41.997  -9.082   6.788  1.00  0.00     0.152 C 
HETATM   11  O   UNL     1      39.730 -10.571   6.370  1.00  0.00    -0.267 OA
BRANCH   9  12
HETATM   12  C   UNL     1      43.363 -10.954   5.928  1.00  0.00     0.131 C 
BRANCH  12  13
HETATM   13  C   UNL     1      43.948 -11.818   7.046  1.00  0.00     0.079 C 
BRANCH  13  14
HETATM   14  C   UNL     1      44.498 -10.954   8.155  1.00  0.00     0.035 A 
HETATM   15  N   UNL     1      43.975 -11.137   9.391  1.00  0.00    -0.266 NA
HETATM   16  C   UNL     1      44.465 -10.379  10.398  1.00  0.00     0.117 A 
HETATM   17  C   UNL     1      45.454  -9.427  10.231  1.00  0.00     0.019 A 
HETATM   18  C   UNL     1      45.969  -9.237   8.954  1.00  0.00     0.003 A 
HETATM   19  C   UNL     1      45.488 -10.009   7.899  1.00  0.00     0.027 A 
ENDBRANCH  13  14
ENDBRANCH  12  13
ENDBRANCH   9  12
ENDBRANCH   1   8
BRANCH   4  20
HETATM   20  C   UNL     1      40.263 -14.141   1.844  1.00  0.00     0.257 C 
HETATM   21  N   UNL     1      39.890 -13.031   1.128  1.00  0.00    -0.352 N 
HETATM   22  H   UNL     1      39.922 -12.128   1.604  1.00  0.00     0.163 HD
HETATM   23  O   UNL     1      40.331 -15.268   1.366  1.00  0.00    -0.267 OA
BRANCH  21  24
HETATM   24  C   UNL     1      39.460 -13.017  -0.272  1.00  0.00     0.084 C 
HETATM   25  C   UNL     1      38.386 -11.948  -0.503  1.00  0.00     0.025 C 
HETATM   26  C   UNL     1      37.644 -11.981  -1.842  1.00  0.00     0.002 C 
HETATM   27  C   UNL     1      37.209 -13.369  -2.318  1.00  0.00     0.000 C 
HETATM   28  C   UNL     1      38.089 -13.976  -3.413  1.00  0.00     0.000 C 
HETATM   29  C   UNL     1      39.515 -14.376  -3.024  1.00  0.00     0.000 C 
HETATM   30  C   UNL     1      40.438 -13.203  -2.697  1.00  0.00     0.002 C 
HETATM   31  C   UNL     1      40.675 -12.953  -1.207  1.00  0.00     0.025 C 
ENDBRANCH  21  24
ENDBRANCH   4  20
BRANCH   6  32
HETATM   32  C   UNL     1      40.709 -15.964   6.420  1.00  0.00     0.159 C 
BRANCH  32  33
HETATM   33  C   UNL     1      42.126 -16.529   6.577  1.00  0.00     0.139 C 
HETATM   34  O   UNL     1      43.051 -15.556   7.101  1.00  0.00    -0.384 OA
HETATM   35  C   UNL     1      44.346 -15.828   6.542  1.00  0.00     0.168 C 
HETATM   36  C   UNL     1      44.230 -17.113   5.745  1.00  0.00     0.029 C 
HETATM   37  C   UNL     1      42.781 -17.094   5.328  1.00  0.00     0.035 C 
ENDBRANCH  32  33
ENDBRANCH   6  32
TORSDOF 8
ENDMDL
MODEL 8
REMARK VINA RESULT:      -8.6      2.281      7.144
REMARK  8 active torsions:
REMARK  status: ('A' for Active; 'I' for Inactive)
REMARK       I    between atoms: N_2  and  C_3 
REMARK    1  A    between atoms: N_2  and  C_29 
REMARK    2  A    between atoms: C_3  and  C_4 
REMARK    3  A    between atoms: C_7  and  C_8 
REMARK       I    between atoms: C_8  and  N_9 
REMARK    4  A    between atoms: N_9  and  C_10 
REMARK    5  A    between atoms: N_20  and  C_21 
REMARK    6  A    between atoms: C_21  and  C_22 
REMARK    7  A    between atoms: C_29  and  C_30 
REMARK    8  A    between atoms: C_30  and  C_31 
ROOT
HETATM    1  C   UNL     1      44.107 -12.193   5.878  1.00  0.00     0.098 C 
HETATM    2  C   UNL     1      43.489 -12.038   4.540  1.00  0.00     0.206 C 
HETATM    3  O   UNL     1      43.920 -11.229   3.721  1.00  0.00    -0.286 OA
HETATM    4  C   UNL     1      42.316 -12.905   4.217  1.00  0.00     0.098 C 
HETATM    5  C   UNL     1      42.108 -13.961   5.025  1.00  0.00     0.111 C 
HETATM    6  N   UNL     1      42.874 -14.258   6.149  1.00  0.00    -0.362 N 
HETATM    7  C   UNL     1      43.810 -13.315   6.555  1.00  0.00     0.111 C 
ENDROOT
BRANCH   1   8
HETATM    8  C   UNL     1      45.080 -11.269   6.507  1.00  0.00     0.258 C 
HETATM    9  N   UNL     1      44.653 -10.415   7.518  1.00  0.00    -0.352 N 
HETATM   10  C   UNL     1      45.662  -9.644   8.232  1.00  0.00     0.152 C 
HETATM   11  O   UNL     1      46.270 -11.382   6.197  1.00  0.00    -0.267 OA
BRANCH   9  12
HETATM   12  C   UNL     1      43.262 -10.158   7.930  1.00  0.00     0.131 C 
BRANCH  12  13
HETATM   13  C   UNL     1      43.093  -8.926   8.820  1.00  0.00     0.079 C 
BRANCH  13  14
HETATM   14  C   UNL     1      42.514  -9.312  10.159  1.00  0.00     0.035 A 
HETATM   15  N   UNL     1      41.163  -9.307  10.267  1.00  0.00    -0.266 NA
HETATM   16  C   UNL     1      40.628  -9.662  11.457  1.00  0.00     0.117 A 
HETATM   17  C   UNL     1      41.379 -10.013  12.563  1.00  0.00     0.019 A 
HETATM   18  C   UNL     1      42.764  -9.997  12.444  1.00  0.00     0.003 A 
HETATM   19  C   UNL     1      43.343  -9.642  11.228  1.00  0.00     0.027 A 
ENDBRANCH  13  14
ENDBRANCH  12  13
ENDBRANCH   9  12
ENDBRANCH   1   8
BRANCH   4  20
HETATM   20  C   UNL     1      41.383 -12.657   3.080  1.00  0.00     0.257 C 
HETATM   21  N   UNL     1      41.861 -13.045   1.853  1.00  0.00    -0.352 N 
HETATM   22  H   UNL     1      42.749 -13.548   1.829  1.00  0.00     0.163 HD
HETATM   23  O   UNL     1      40.299 -12.108   3.245  1.00  0.00    -0.267 OA
BRANCH  21  24
HETATM   24  C   UNL     1      41.205 -12.815   0.564  1.00  0.00     0.084 C 
HETATM   25  C   UNL     1      39.960 -13.698   0.420  1.00  0.00     0.025 C 
HETATM   26  C   UNL     1      39.314 -13.776  -0.965  1.00  0.00     0.002 C 
HETATM   27  C   UNL     1      40.287 -13.932  -2.136  1.00  0.00     0.000 C 
HETATM   28  C   UNL     1      40.546 -12.650  -2.930  1.00  0.00     0.000 C 
HETATM   29  C   UNL     1      41.318 -11.533  -2.223  1.00  0.00     0.000 C 
HETATM   30  C   UNL     1      40.565 -10.868  -1.070  1.00  0.00     0.002 C 
HETATM   31  C   UNL     1      40.987 -11.315   0.330  1.00  0.00     0.025 C 
ENDBRANCH  21  24
ENDBRANCH   4  20
BRANCH   6  32
HETATM   32  C   UNL     1      42.710 -15.541   6.872  1.00  0.00     0.159 C 
BRANCH  32  33
HETATM   33  C   UNL     1      42.839 -16.788   5.988  1.00  0.00     0.139 C 
HETATM   34  O   UNL     1      42.866 -18.007   6.756  1.00  0.00    -0.384 OA
HETATM   35  C   UNL     1      43.692 -18.953   6.060  1.00  0.00     0.168 C 
HETATM   36  C   UNL     1      44.076 -18.324   4.735  1.00  0.00     0.029 C 
HETATM   37  C   UNL     1      44.044 -16.852   5.065  1.00  0.00     0.035 C 
ENDBRANCH  32  33
ENDBRANCH   6  32
TORSDOF 8
ENDMDL
MODEL 9
REMARK VINA RESULT:      -8.4      3.345      5.720
REMARK  8 active torsions:
REMARK  status: ('A' for Active; 'I' for Inactive)
REMARK       I    between atoms: N_2  and  C_3 
REMARK    1  A    between atoms: N_2  and  C_29 
REMARK    2  A    between atoms: C_3  and  C_4 
REMARK    3  A    between atoms: C_7  and  C_8 
REMARK       I    between atoms: C_8  and  N_9 
REMARK    4  A    between atoms: N_9  and  C_10 
REMARK    5  A    between atoms: N_20  and  C_21 
REMARK    6  A    between atoms: C_21  and  C_22 
REMARK    7  A    between atoms: C_29  and  C_30 
REMARK    8  A    between atoms: C_30  and  C_31 
ROOT
HETATM    1  C   UNL     1      40.437 -13.107   5.356  1.00  0.00     0.098 C 
HETATM    2  C   UNL     1      40.088 -13.214   3.920  1.00  0.00     0.206 C 
HETATM    3  O   UNL     1      40.170 -14.281   3.314  1.00  0.00    -0.286 OA
HETATM    4  C   UNL     1      39.630 -11.973   3.227  1.00  0.00     0.098 C 
HETATM    5  C   UNL     1      39.273 -10.942   4.014  1.00  0.00     0.111 C 
HETATM    6  N   UNL     1      39.350 -10.946   5.404  1.00  0.00    -0.362 N 
HETATM    7  C   UNL     1      39.990 -12.021   6.008  1.00  0.00     0.111 C 
ENDROOT
BRANCH   1   8
HETATM    8  C   UNL     1      41.163 -14.119   6.160  1.00  0.00     0.258 C 
HETATM    9  N   UNL     1      42.478 -13.871   6.540  1.00  0.00    -0.352 N 
HETATM   10  C   UNL     1      43.106 -14.800   7.470  1.00  0.00     0.152 C 
HETATM   11  O   UNL     1      40.529 -15.094   6.573  1.00  0.00    -0.267 OA
BRANCH   9  12
HETATM   12  C   UNL     1      43.344 -12.778   6.068  1.00  0.00     0.131 C 
BRANCH  12  13
HETATM   13  C   UNL     1      44.661 -12.650   6.835  1.00  0.00     0.079 C 
BRANCH  13  14
HETATM   14  C   UNL     1      44.810 -11.263   7.410  1.00  0.00     0.035 A 
HETATM   15  N   UNL     1      43.673 -10.631   7.788  1.00  0.00    -0.266 NA
HETATM   16  C   UNL     1      43.791  -9.392   8.316  1.00  0.00     0.117 A 
HETATM   17  C   UNL     1      44.997  -8.736   8.477  1.00  0.00     0.019 A 
HETATM   18  C   UNL     1      46.154  -9.389   8.070  1.00  0.00     0.003 A 
HETATM   19  C   UNL     1      46.064 -10.670   7.528  1.00  0.00     0.027 A 
ENDBRANCH  13  14
ENDBRANCH  12  13
ENDBRANCH   9  12
ENDBRANCH   1   8
BRANCH   4  20
HETATM   20  C   UNL     1      39.563 -11.821   1.744  1.00  0.00     0.257 C 
HETATM   21  N   UNL     1      38.940 -12.856   1.092  1.00  0.00    -0.352 N 
HETATM   22  H   UNL     1      38.497 -13.577   1.662  1.00  0.00     0.163 HD
HETATM   23  O   UNL     1      40.070 -10.863   1.172  1.00  0.00    -0.267 OA
BRANCH  21  24
HETATM   24  C   UNL     1      38.837 -13.017  -0.361  1.00  0.00     0.084 C 
HETATM   25  C   UNL     1      38.066 -11.849  -0.986  1.00  0.00     0.025 C 
HETATM   26  C   UNL     1      37.642 -11.995  -2.449  1.00  0.00     0.002 C 
HETATM   27  C   UNL     1      37.060 -13.358  -2.832  1.00  0.00     0.000 C 
HETATM   28  C   UNL     1      38.023 -14.276  -3.588  1.00  0.00     0.000 C 
HETATM   29  C   UNL     1      39.224 -14.822  -2.813  1.00  0.00     0.000 C 
HETATM   30  C   UNL     1      40.264 -13.770  -2.426  1.00  0.00     0.002 C 
HETATM   31  C   UNL     1      40.215 -13.307  -0.969  1.00  0.00     0.025 C 
ENDBRANCH  21  24
ENDBRANCH   4  20
BRANCH   6  32
HETATM   32  C   UNL     1      38.754  -9.854   6.209  1.00  0.00     0.159 C 
BRANCH  32  33
HETATM   33  C   UNL     1      39.501  -9.547   7.513  1.00  0.00     0.139 C 
HETATM   34  O   UNL     1      38.777  -9.988   8.679  1.00  0.00    -0.384 OA
HETATM   35  C   UNL     1      39.074  -9.084   9.754  1.00  0.00     0.168 C 
HETATM   36  C   UNL     1      40.136  -8.124   9.254  1.00  0.00     0.029 C 
HETATM   37  C   UNL     1      39.859  -8.094   7.771  1.00  0.00     0.035 C 
ENDBRANCH  32  33
ENDBRANCH   6  32
TORSDOF 8
ENDMDL
MODEL 10
REMARK VINA RESULT:      -8.3      2.170      6.440
REMARK  8 active torsions:
REMARK  status: ('A' for Active; 'I' for Inactive)
REMARK       I    between atoms: N_2  and  C_3 
REMARK    1  A    between atoms: N_2  and  C_29 
REMARK    2  A    between atoms: C_3  and  C_4 
REMARK    3  A    between atoms: C_7  and  C_8 
REMARK       I    between atoms: C_8  and  N_9 
REMARK    4  A    between atoms: N_9  and  C_10 
REMARK    5  A    between atoms: N_20  and  C_21 
REMARK    6  A    between atoms: C_21  and  C_22 
REMARK    7  A    between atoms: C_29  and  C_30 
REMARK    8  A    between atoms: C_30  and  C_31 
ROOT
HETATM    1  C   UNL     1      43.575 -12.730   5.642  1.00  0.00     0.098 C 
HETATM    2  C   UNL     1      43.451 -12.776   4.166  1.00  0.00     0.206 C 
HETATM    3  O   UNL     1      43.823 -11.842   3.458  1.00  0.00    -0.286 OA
HETATM    4  C   UNL     1      42.854 -14.005   3.562  1.00  0.00     0.098 C 
HETATM    5  C   UNL     1      42.766 -15.085   4.360  1.00  0.00     0.111 C 
HETATM    6  N   UNL     1      43.143 -15.110   5.699  1.00  0.00    -0.362 N 
HETATM    7  C   UNL     1      43.480 -13.900   6.294  1.00  0.00     0.111 C 
ENDROOT
BRANCH   1   8
HETATM    8  C   UNL     1      43.872 -11.530   6.459  1.00  0.00     0.258 C 
HETATM    9  N   UNL     1      42.831 -10.689   6.838  1.00  0.00    -0.352 N 
HETATM   10  C   UNL     1      43.126  -9.618   7.780  1.00  0.00     0.152 C 
HETATM   11  O   UNL     1      45.022 -11.389   6.885  1.00  0.00    -0.267 OA
BRANCH   9  12
HETATM   12  C   UNL     1      41.442 -10.728   6.351  1.00  0.00     0.131 C 
BRANCH  12  13
HETATM   13  C   UNL     1      41.062  -9.548   5.454  1.00  0.00     0.079 C 
BRANCH  13  14
HETATM   14  C   UNL     1      40.082  -9.981   4.391  1.00  0.00     0.035 A 
HETATM   15  N   UNL     1      39.537  -9.005   3.626  1.00  0.00    -0.266 NA
HETATM   16  C   UNL     1      38.667  -9.378   2.661  1.00  0.00     0.117 A 
HETATM   17  C   UNL     1      38.297 -10.689   2.424  1.00  0.00     0.019 A 
HETATM   18  C   UNL     1      38.850 -11.679   3.228  1.00  0.00     0.003 A 
HETATM   19  C   UNL     1      39.756 -11.324   4.226  1.00  0.00     0.027 A 
ENDBRANCH  13  14
ENDBRANCH  12  13
ENDBRANCH   9  12
ENDBRANCH   1   8
BRANCH   4  20
HETATM   20  C   UNL     1      42.353 -14.086   2.159  1.00  0.00     0.257 C 
HETATM   21  N   UNL     1      41.797 -12.925   1.682  1.00  0.00    -0.352 N 
HETATM   22  H   UNL     1      41.858 -12.095   2.273  1.00  0.00     0.163 HD
HETATM   23  O   UNL     1      42.404 -15.130   1.517  1.00  0.00    -0.267 OA
BRANCH  21  24
HETATM   24  C   UNL     1      41.131 -12.761   0.389  1.00  0.00     0.084 C 
HETATM   25  C   UNL     1      39.838 -13.583   0.331  1.00  0.00     0.025 C 
HETATM   26  C   UNL     1      39.164 -13.732  -1.035  1.00  0.00     0.002 C 
HETATM   27  C   UNL     1      40.107 -14.031  -2.204  1.00  0.00     0.000 C 
HETATM   28  C   UNL     1      40.420 -12.829  -3.098  1.00  0.00     0.000 C 
HETATM   29  C   UNL     1      41.263 -11.705  -2.491  1.00  0.00     0.000 C 
HETATM   30  C   UNL     1      40.567 -10.914  -1.384  1.00  0.00     0.002 C 
HETATM   31  C   UNL     1      40.989 -11.273   0.041  1.00  0.00     0.025 C 
ENDBRANCH  21  24
ENDBRANCH   4  20
BRANCH   6  32
HETATM   32  C   UNL     1      43.204 -16.383   6.455  1.00  0.00     0.159 C 
BRANCH  32  33
HETATM   33  C   UNL     1      43.253 -17.640   5.578  1.00  0.00     0.139 C 
HETATM   34  O   UNL     1      43.147 -18.853   6.349  1.00  0.00    -0.384 OA
HETATM   35  C   UNL     1      43.911 -19.871   5.684  1.00  0.00     0.168 C 
HETATM   36  C   UNL     1      44.394 -19.284   4.372  1.00  0.00     0.029 C 
HETATM   37  C   UNL     1      44.479 -17.814   4.699  1.00  0.00     0.035 C 
ENDBRANCH  32  33
ENDBRANCH   6  32
TORSDOF 8
ENDMDL
