MODEL 1
REMARK VINA RESULT:      -7.4      0.000      0.000
REMARK  9 active torsions:
REMARK  status: ('A' for Active; 'I' for Inactive)
REMARK    1  A    between atoms: C_2  and  C_3 
REMARK    2  A    between atoms: C_7  and  C_8 
REMARK    3  A    between atoms: C_8  and  C_9 
REMARK       I    between atoms: C_9  and  N_10 
REMARK    4  A    between atoms: N_10  and  C_11 
REMARK    5  A    between atoms: C_11  and  C_12 
REMARK    6  A    between atoms: C_12  and  N_13 
REMARK    7  A    between atoms: C_21  and  C_22 
REMARK    8  A    between atoms: C_32  and  C_33 
REMARK    9  A    between atoms: C_33  and  O_34 
ROOT
HETATM    1  C   UNL     1      40.651 -12.123   1.146  1.00  0.00     0.037 C 
HETATM    2  N   UNL     1      40.763 -10.849   1.665  1.00  0.00    -0.232 NA
HETATM    3  C   UNL     1      41.310 -10.715   2.822  1.00  0.00     0.169 C 
HETATM    4  N   UNL     1      42.178 -11.810   3.541  1.00  0.00    -0.321 N 
HETATM    5  C   UNL     1      42.874 -11.229   4.463  1.00  0.00     0.011 C 
HETATM    6  C   UNL     1      42.288 -13.060   2.761  1.00  0.00     0.151 C 
HETATM    7  S   UNL     1      41.329  -9.199   3.675  1.00  0.00    -0.086 SA
HETATM    8  C   UNL     1      42.246  -9.975   5.034  1.00  0.00     0.135 C 
HETATM    9  C   UNL     1      41.129 -13.202   1.806  1.00  0.00     0.138 C 
ENDROOT
BRANCH   5  10
HETATM   10  C   UNL     1      44.316 -11.579   4.726  1.00  0.00     0.156 C 
BRANCH  10  11
HETATM   11  C   UNL     1      44.605 -11.337   6.207  1.00  0.00     0.223 C 
HETATM   12  N   UNL     1      45.666 -10.535   6.511  1.00  0.00    -0.359 N 
HETATM   13  H   UNL     1      46.214 -10.159   5.737  1.00  0.00     0.162 HD
HETATM   14  O   UNL     1      43.917 -11.875   7.075  1.00  0.00    -0.273 OA
BRANCH  12  15
HETATM   15  C   UNL     1      46.323 -10.451   7.826  1.00  0.00     0.150 C 
BRANCH  15  16
HETATM   16  C   UNL     1      45.828  -9.394   8.851  1.00  0.00     0.254 C 
BRANCH  16  17
HETATM   17  N   UNL     1      44.426  -9.655   9.377  1.00  0.00    -0.070 N 
HETATM   18  H   UNL     1      44.194 -10.617   9.061  1.00  0.00     0.279 HD
HETATM   19  C   UNL     1      44.301  -9.621  10.883  1.00  0.00     0.235 C 
HETATM   20  C   UNL     1      42.904 -10.079  11.287  1.00  0.00     0.028 C 
HETATM   21  C   UNL     1      41.820  -9.237  10.629  1.00  0.00     0.003 C 
HETATM   22  C   UNL     1      42.002  -9.192   9.116  1.00  0.00     0.028 C 
HETATM   23  C   UNL     1      43.405  -8.744   8.726  1.00  0.00     0.235 C 
ENDBRANCH  16  17
ENDBRANCH  15  16
ENDBRANCH  12  15
ENDBRANCH  10  11
ENDBRANCH   5  10
BRANCH   6  24
HETATM   24  C   UNL     1      42.593 -14.316   3.583  1.00  0.00    -0.027 A 
HETATM   25  C   UNL     1      43.167 -15.461   2.974  1.00  0.00    -0.053 A 
HETATM   26  C   UNL     1      43.573 -15.511   1.521  1.00  0.00     0.049 C 
HETATM   27  C   UNL     1      43.389 -16.621   3.741  1.00  0.00     0.014 A 
HETATM   28  C   UNL     1      43.033 -16.684   5.090  1.00  0.00    -0.061 A 
HETATM   29  C   UNL     1      43.189 -17.964   5.862  1.00  0.00     0.048 C 
HETATM   30  C   UNL     1      42.439 -15.572   5.681  1.00  0.00     0.007 A 
HETATM   31  C   UNL     1      42.222 -14.406   4.942  1.00  0.00     0.010 A 
ENDBRANCH   6  24
BRANCH   9  32
HETATM   32  C   UNL     1      39.980 -13.986   2.313  1.00  0.00     0.277 C 
HETATM   33  O   UNL     1      39.248 -13.503   3.171  1.00  0.00    -0.264 OA
BRANCH  32  34
HETATM   34  O   UNL     1      39.832 -15.155   1.670  1.00  0.00    -0.325 OA
HETATM   35  C   UNL     1      39.778 -16.287   2.549  1.00  0.00     0.213 C 
ENDBRANCH  32  34
ENDBRANCH   9  32
BRANCH   1  36
HETATM   36  C   UNL     1      39.791 -12.218  -0.106  1.00  0.00     0.052 C 
HETATM   37  C   UNL     1      40.581 -12.678  -1.331  1.00  0.00     0.011 C 
ENDBRANCH   1  36
TORSDOF 9
ENDMDL
MODEL 2
REMARK VINA RESULT:      -7.2      1.695      2.202
REMARK  9 active torsions:
REMARK  status: ('A' for Active; 'I' for Inactive)
REMARK    1  A    between atoms: C_2  and  C_3 
REMARK    2  A    between atoms: C_7  and  C_8 
REMARK    3  A    between atoms: C_8  and  C_9 
REMARK       I    between atoms: C_9  and  N_10 
REMARK    4  A    between atoms: N_10  and  C_11 
REMARK    5  A    between atoms: C_11  and  C_12 
REMARK    6  A    between atoms: C_12  and  N_13 
REMARK    7  A    between atoms: C_21  and  C_22 
REMARK    8  A    between atoms: C_32  and  C_33 
REMARK    9  A    between atoms: C_33  and  O_34 
ROOT
HETATM    1  C   UNL     1      41.128 -10.693   1.480  1.00  0.00     0.037 C 
HETATM    2  N   UNL     1      40.958 -10.057   2.692  1.00  0.00    -0.232 NA
HETATM    3  C   UNL     1      41.079 -10.760   3.764  1.00  0.00     0.169 C 
HETATM    4  N   UNL     1      41.747 -12.180   3.840  1.00  0.00    -0.321 N 
HETATM    5  C   UNL     1      42.050 -12.416   5.075  1.00  0.00     0.011 C 
HETATM    6  C   UNL     1      42.211 -12.668   2.526  1.00  0.00     0.151 C 
HETATM    7  S   UNL     1      40.691 -10.132   5.340  1.00  0.00    -0.086 SA
HETATM    8  C   UNL     1      41.167 -11.715   6.087  1.00  0.00     0.135 C 
HETATM    9  C   UNL     1      41.449 -12.005   1.406  1.00  0.00     0.138 C 
ENDROOT
BRANCH   5  10
HETATM   10  C   UNL     1      43.347 -13.068   5.478  1.00  0.00     0.156 C 
BRANCH  10  11
HETATM   11  C   UNL     1      44.343 -11.969   5.843  1.00  0.00     0.223 C 
HETATM   12  N   UNL     1      44.697 -11.862   7.156  1.00  0.00    -0.359 N 
HETATM   13  H   UNL     1      44.266 -12.506   7.818  1.00  0.00     0.162 HD
HETATM   14  O   UNL     1      44.774 -11.203   4.980  1.00  0.00    -0.273 OA
BRANCH  12  15
HETATM   15  C   UNL     1      45.348 -10.692   7.772  1.00  0.00     0.150 C 
BRANCH  15  16
HETATM   16  C   UNL     1      44.519  -9.400   8.000  1.00  0.00     0.254 C 
BRANCH  16  17
HETATM   17  N   UNL     1      43.798  -9.358   9.338  1.00  0.00    -0.070 N 
HETATM   18  H   UNL     1      42.856  -9.752   9.148  1.00  0.00     0.279 HD
HETATM   19  C   UNL     1      44.437 -10.191  10.426  1.00  0.00     0.235 C 
HETATM   20  C   UNL     1      43.526 -10.215  11.647  1.00  0.00     0.028 C 
HETATM   21  C   UNL     1      43.210  -8.812  12.146  1.00  0.00     0.003 C 
HETATM   22  C   UNL     1      42.654  -7.942  11.025  1.00  0.00     0.028 C 
HETATM   23  C   UNL     1      43.569  -7.935   9.806  1.00  0.00     0.235 C 
ENDBRANCH  16  17
ENDBRANCH  15  16
ENDBRANCH  12  15
ENDBRANCH  10  11
ENDBRANCH   5  10
BRANCH   6  24
HETATM   24  C   UNL     1      42.329 -14.190   2.401  1.00  0.00    -0.027 A 
HETATM   25  C   UNL     1      41.389 -15.046   3.028  1.00  0.00    -0.053 A 
HETATM   26  C   UNL     1      40.191 -14.541   3.795  1.00  0.00     0.049 C 
HETATM   27  C   UNL     1      41.550 -16.443   2.941  1.00  0.00     0.014 A 
HETATM   28  C   UNL     1      42.634 -17.013   2.271  1.00  0.00    -0.061 A 
HETATM   29  C   UNL     1      42.838 -18.501   2.274  1.00  0.00     0.048 C 
HETATM   30  C   UNL     1      43.576 -16.174   1.682  1.00  0.00     0.007 A 
HETATM   31  C   UNL     1      43.429 -14.786   1.744  1.00  0.00     0.010 A 
ENDBRANCH   6  24
BRANCH   9  32
HETATM   32  C   UNL     1      40.264 -12.747   0.916  1.00  0.00     0.277 C 
HETATM   33  O   UNL     1      39.197 -12.648   1.513  1.00  0.00    -0.264 OA
BRANCH  32  34
HETATM   34  O   UNL     1      40.506 -13.401  -0.232  1.00  0.00    -0.325 OA
HETATM   35  C   UNL     1      39.822 -14.658  -0.328  1.00  0.00     0.213 C 
ENDBRANCH  32  34
ENDBRANCH   9  32
BRANCH   1  36
HETATM   36  C   UNL     1      40.741  -9.854   0.270  1.00  0.00     0.052 C 
HETATM   37  C   UNL     1      41.909  -9.630  -0.690  1.00  0.00     0.011 C 
ENDBRANCH   1  36
TORSDOF 9
ENDMDL
MODEL 3
REMARK VINA RESULT:      -7.2      3.510      6.190
REMARK  9 active torsions:
REMARK  status: ('A' for Active; 'I' for Inactive)
REMARK    1  A    between atoms: C_2  and  C_3 
REMARK    2  A    between atoms: C_7  and  C_8 
REMARK    3  A    between atoms: C_8  and  C_9 
REMARK       I    between atoms: C_9  and  N_10 
REMARK    4  A    between atoms: N_10  and  C_11 
REMARK    5  A    between atoms: C_11  and  C_12 
REMARK    6  A    between atoms: C_12  and  N_13 
REMARK    7  A    between atoms: C_21  and  C_22 
REMARK    8  A    between atoms: C_32  and  C_33 
REMARK    9  A    between atoms: C_33  and  O_34 
ROOT
HETATM    1  C   UNL     1      38.379 -10.531   1.177  1.00  0.00     0.037 C 
HETATM    2  N   UNL     1      38.229 -11.485   0.192  1.00  0.00    -0.232 NA
HETATM    3  C   UNL     1      39.064 -12.464   0.168  1.00  0.00     0.169 C 
HETATM    4  N   UNL     1      40.013 -12.868   1.354  1.00  0.00    -0.321 N 
HETATM    5  C   UNL     1      40.412 -14.083   1.153  1.00  0.00     0.011 C 
HETATM    6  C   UNL     1      39.881 -11.978   2.525  1.00  0.00     0.151 C 
HETATM    7  S   UNL     1      39.113 -13.617  -1.134  1.00  0.00    -0.086 SA
HETATM    8  C   UNL     1      40.463 -14.498  -0.303  1.00  0.00     0.135 C 
HETATM    9  C   UNL     1      39.347 -10.628   2.117  1.00  0.00     0.138 C 
ENDROOT
BRANCH   5  10
HETATM   10  C   UNL     1      40.512 -15.093   2.266  1.00  0.00     0.156 C 
BRANCH  10  11
HETATM   11  C   UNL     1      41.925 -15.675   2.258  1.00  0.00     0.223 C 
HETATM   12  N   UNL     1      42.038 -17.034   2.305  1.00  0.00    -0.359 N 
HETATM   13  H   UNL     1      41.179 -17.580   2.361  1.00  0.00     0.162 HD
HETATM   14  O   UNL     1      42.907 -14.933   2.239  1.00  0.00    -0.273 OA
BRANCH  12  15
HETATM   15  C   UNL     1      43.261 -17.777   2.651  1.00  0.00     0.150 C 
BRANCH  15  16
HETATM   16  C   UNL     1      43.633 -17.967   4.147  1.00  0.00     0.254 C 
BRANCH  16  17
HETATM   17  N   UNL     1      43.295 -16.771   5.022  1.00  0.00    -0.070 N 
HETATM   18  H   UNL     1      43.238 -15.966   4.369  1.00  0.00     0.279 HD
HETATM   19  C   UNL     1      41.974 -16.873   5.748  1.00  0.00     0.235 C 
HETATM   20  C   UNL     1      41.668 -15.547   6.435  1.00  0.00     0.028 C 
HETATM   21  C   UNL     1      42.783 -15.130   7.384  1.00  0.00     0.003 C 
HETATM   22  C   UNL     1      44.133 -15.120   6.675  1.00  0.00     0.028 C 
HETATM   23  C   UNL     1      44.421 -16.447   5.985  1.00  0.00     0.235 C 
ENDBRANCH  16  17
ENDBRANCH  15  16
ENDBRANCH  12  15
ENDBRANCH  10  11
ENDBRANCH   5  10
BRANCH   6  24
HETATM   24  C   UNL     1      41.105 -11.927   3.445  1.00  0.00    -0.027 A 
HETATM   25  C   UNL     1      40.958 -12.000   4.854  1.00  0.00    -0.053 A 
HETATM   26  C   UNL     1      39.627 -12.194   5.539  1.00  0.00     0.049 C 
HETATM   27  C   UNL     1      42.094 -11.898   5.680  1.00  0.00     0.014 A 
HETATM   28  C   UNL     1      43.369 -11.699   5.147  1.00  0.00    -0.061 A 
HETATM   29  C   UNL     1      44.553 -11.495   6.050  1.00  0.00     0.048 C 
HETATM   30  C   UNL     1      43.511 -11.594   3.765  1.00  0.00     0.007 A 
HETATM   31  C   UNL     1      42.399 -11.706   2.927  1.00  0.00     0.010 A 
ENDBRANCH   6  24
BRANCH   9  32
HETATM   32  C   UNL     1      40.372  -9.596   1.839  1.00  0.00     0.277 C 
HETATM   33  O   UNL     1      40.958  -9.599   0.761  1.00  0.00    -0.264 OA
BRANCH  32  34
HETATM   34  O   UNL     1      40.471  -8.690   2.825  1.00  0.00    -0.325 OA
HETATM   35  C   UNL     1      40.470  -7.334   2.358  1.00  0.00     0.213 C 
ENDBRANCH  32  34
ENDBRANCH   9  32
BRANCH   1  36
HETATM   36  C   UNL     1      37.506  -9.298   0.997  1.00  0.00     0.052 C 
HETATM   37  C   UNL     1      36.088  -9.639   0.540  1.00  0.00     0.011 C 
ENDBRANCH   1  36
TORSDOF 9
ENDMDL
MODEL 4
REMARK VINA RESULT:      -7.2      3.091      8.473
REMARK  9 active torsions:
REMARK  status: ('A' for Active; 'I' for Inactive)
REMARK    1  A    between atoms: C_2  and  C_3 
REMARK    2  A    between atoms: C_7  and  C_8 
REMARK    3  A    between atoms: C_8  and  C_9 
REMARK       I    between atoms: C_9  and  N_10 
REMARK    4  A    between atoms: N_10  and  C_11 
REMARK    5  A    between atoms: C_11  and  C_12 
REMARK    6  A    between atoms: C_12  and  N_13 
REMARK    7  A    between atoms: C_21  and  C_22 
REMARK    8  A    between atoms: C_32  and  C_33 
REMARK    9  A    between atoms: C_33  and  O_34 
ROOT
HETATM    1  C   UNL     1      41.077 -11.658   4.523  1.00  0.00     0.037 C 
HETATM    2  N   UNL     1      40.738 -10.843   3.463  1.00  0.00    -0.232 NA
HETATM    3  C   UNL     1      40.881 -11.312   2.273  1.00  0.00     0.169 C 
HETATM    4  N   UNL     1      41.063 -12.832   1.919  1.00  0.00    -0.321 N 
HETATM    5  C   UNL     1      40.786 -12.988   0.664  1.00  0.00     0.011 C 
HETATM    6  C   UNL     1      41.089 -13.701   3.112  1.00  0.00     0.151 C 
HETATM    7  S   UNL     1      40.686 -10.326   0.852  1.00  0.00    -0.086 SA
HETATM    8  C   UNL     1      41.035 -11.766  -0.195  1.00  0.00     0.135 C 
HETATM    9  C   UNL     1      41.512 -12.924   4.334  1.00  0.00     0.138 C 
ENDROOT
BRANCH   5  10
HETATM   10  C   UNL     1      39.995 -14.164   0.154  1.00  0.00     0.156 C 
BRANCH  10  11
HETATM   11  C   UNL     1      39.412 -13.794  -1.209  1.00  0.00     0.223 C 
HETATM   12  N   UNL     1      38.257 -13.068  -1.216  1.00  0.00    -0.359 N 
HETATM   13  H   UNL     1      37.841 -12.830  -0.316  1.00  0.00     0.162 HD
HETATM   14  O   UNL     1      39.960 -14.169  -2.246  1.00  0.00    -0.273 OA
BRANCH  12  15
HETATM   15  C   UNL     1      37.358 -12.905  -2.371  1.00  0.00     0.150 C 
BRANCH  15  16
HETATM   16  C   UNL     1      36.793 -11.496  -2.696  1.00  0.00     0.254 C 
BRANCH  16  17
HETATM   17  N   UNL     1      37.699 -10.659  -3.584  1.00  0.00    -0.070 N 
HETATM   18  H   UNL     1      37.971 -11.290  -4.362  1.00  0.00     0.279 HD
HETATM   19  C   UNL     1      37.040  -9.439  -4.187  1.00  0.00     0.235 C 
HETATM   20  C   UNL     1      37.985  -8.797  -5.194  1.00  0.00     0.028 C 
HETATM   21  C   UNL     1      39.326  -8.440  -4.565  1.00  0.00     0.003 C 
HETATM   22  C   UNL     1      39.947  -9.648  -3.874  1.00  0.00     0.028 C 
HETATM   23  C   UNL     1      38.987 -10.287  -2.878  1.00  0.00     0.235 C 
ENDBRANCH  16  17
ENDBRANCH  15  16
ENDBRANCH  12  15
ENDBRANCH  10  11
ENDBRANCH   5  10
BRANCH   6  24
HETATM   24  C   UNL     1      41.812 -15.040   2.928  1.00  0.00    -0.027 A 
HETATM   25  C   UNL     1      41.531 -16.140   3.778  1.00  0.00    -0.053 A 
HETATM   26  C   UNL     1      40.481 -16.103   4.861  1.00  0.00     0.049 C 
HETATM   27  C   UNL     1      42.247 -17.342   3.621  1.00  0.00     0.014 A 
HETATM   28  C   UNL     1      43.252 -17.474   2.660  1.00  0.00    -0.061 A 
HETATM   29  C   UNL     1      44.068 -18.733   2.576  1.00  0.00     0.048 C 
HETATM   30  C   UNL     1      43.551 -16.385   1.847  1.00  0.00     0.007 A 
HETATM   31  C   UNL     1      42.844 -15.186   1.976  1.00  0.00     0.010 A 
ENDBRANCH   6  24
BRANCH   9  32
HETATM   32  C   UNL     1      42.958 -12.973   4.650  1.00  0.00     0.277 C 
HETATM   33  O   UNL     1      43.745 -12.300   3.991  1.00  0.00    -0.264 OA
BRANCH  32  34
HETATM   34  O   UNL     1      43.223 -13.723   5.731  1.00  0.00    -0.325 OA
HETATM   35  C   UNL     1      43.996 -13.039   6.726  1.00  0.00     0.213 C 
ENDBRANCH  32  34
ENDBRANCH   9  32
BRANCH   1  36
HETATM   36  C   UNL     1      41.102 -10.955   5.873  1.00  0.00     0.052 C 
HETATM   37  C   UNL     1      41.749  -9.572   5.807  1.00  0.00     0.011 C 
ENDBRANCH   1  36
TORSDOF 9
ENDMDL
MODEL 5
REMARK VINA RESULT:      -7.1      2.111      7.901
REMARK  9 active torsions:
REMARK  status: ('A' for Active; 'I' for Inactive)
REMARK    1  A    between atoms: C_2  and  C_3 
REMARK    2  A    between atoms: C_7  and  C_8 
REMARK    3  A    between atoms: C_8  and  C_9 
REMARK       I    between atoms: C_9  and  N_10 
REMARK    4  A    between atoms: N_10  and  C_11 
REMARK    5  A    between atoms: C_11  and  C_12 
REMARK    6  A    between atoms: C_12  and  N_13 
REMARK    7  A    between atoms: C_21  and  C_22 
REMARK    8  A    between atoms: C_32  and  C_33 
REMARK    9  A    between atoms: C_33  and  O_34 
ROOT
HETATM    1  C   UNL     1      41.983 -10.365   6.098  1.00  0.00     0.037 C 
HETATM    2  N   UNL     1      41.185  -9.581   5.290  1.00  0.00    -0.232 NA
HETATM    3  C   UNL     1      40.744 -10.096   4.196  1.00  0.00     0.169 C 
HETATM    4  N   UNL     1      40.730 -11.632   3.865  1.00  0.00    -0.321 N 
HETATM    5  C   UNL     1      39.890 -11.827   2.900  1.00  0.00     0.011 C 
HETATM    6  C   UNL     1      41.315 -12.458   4.940  1.00  0.00     0.151 C 
HETATM    7  S   UNL     1      39.903  -9.158   2.996  1.00  0.00    -0.086 SA
HETATM    8  C   UNL     1      39.707 -10.643   1.973  1.00  0.00     0.135 C 
HETATM    9  C   UNL     1      42.271 -11.648   5.780  1.00  0.00     0.138 C 
ENDROOT
BRANCH   5  10
HETATM   10  C   UNL     1      38.946 -13.000   2.877  1.00  0.00     0.156 C 
BRANCH  10  11
HETATM   11  C   UNL     1      39.469 -14.017   1.863  1.00  0.00     0.223 C 
HETATM   12  N   UNL     1      39.670 -13.576   0.588  1.00  0.00    -0.359 N 
HETATM   13  H   UNL     1      39.445 -12.603   0.380  1.00  0.00     0.162 HD
HETATM   14  O   UNL     1      39.666 -15.186   2.194  1.00  0.00    -0.273 OA
BRANCH  12  15
HETATM   15  C   UNL     1      39.828 -14.436  -0.598  1.00  0.00     0.150 C 
BRANCH  15  16
HETATM   16  C   UNL     1      38.926 -14.188  -1.837  1.00  0.00     0.254 C 
BRANCH  16  17
HETATM   17  N   UNL     1      39.257 -12.913  -2.596  1.00  0.00    -0.070 N 
HETATM   18  H   UNL     1      39.118 -13.151  -3.597  1.00  0.00     0.279 HD
HETATM   19  C   UNL     1      38.365 -11.736  -2.273  1.00  0.00     0.235 C 
HETATM   20  C   UNL     1      38.675 -10.587  -3.225  1.00  0.00     0.028 C 
HETATM   21  C   UNL     1      40.144 -10.191  -3.173  1.00  0.00     0.003 C 
HETATM   22  C   UNL     1      41.047 -11.397  -3.404  1.00  0.00     0.028 C 
HETATM   23  C   UNL     1      40.720 -12.541  -2.454  1.00  0.00     0.235 C 
ENDBRANCH  16  17
ENDBRANCH  15  16
ENDBRANCH  12  15
ENDBRANCH  10  11
ENDBRANCH   5  10
BRANCH   6  24
HETATM   24  C   UNL     1      41.858 -13.819   4.494  1.00  0.00    -0.027 A 
HETATM   25  C   UNL     1      41.578 -14.993   5.240  1.00  0.00    -0.053 A 
HETATM   26  C   UNL     1      40.695 -15.006   6.463  1.00  0.00     0.049 C 
HETATM   27  C   UNL     1      42.133 -16.223   4.837  1.00  0.00     0.014 A 
HETATM   28  C   UNL     1      42.978 -16.317   3.729  1.00  0.00    -0.061 A 
HETATM   29  C   UNL     1      43.634 -17.621   3.377  1.00  0.00     0.048 C 
HETATM   30  C   UNL     1      43.280 -15.160   3.015  1.00  0.00     0.007 A 
HETATM   31  C   UNL     1      42.730 -13.931   3.389  1.00  0.00     0.010 A 
ENDBRANCH   6  24
BRANCH   9  32
HETATM   32  C   UNL     1      43.694 -11.721   5.375  1.00  0.00     0.277 C 
HETATM   33  O   UNL     1      44.066 -11.135   4.363  1.00  0.00    -0.264 OA
BRANCH  32  34
HETATM   34  O   UNL     1      44.448 -12.384   6.265  1.00  0.00    -0.325 OA
HETATM   35  C   UNL     1      45.570 -11.628   6.740  1.00  0.00     0.213 C 
ENDBRANCH  32  34
ENDBRANCH   9  32
BRANCH   1  36
HETATM   36  C   UNL     1      42.649  -9.615   7.242  1.00  0.00     0.052 C 
HETATM   37  C   UNL     1      41.640  -8.966   8.189  1.00  0.00     0.011 C 
ENDBRANCH   1  36
TORSDOF 9
ENDMDL
MODEL 6
REMARK VINA RESULT:      -7.1      2.146      7.771
REMARK  9 active torsions:
REMARK  status: ('A' for Active; 'I' for Inactive)
REMARK    1  A    between atoms: C_2  and  C_3 
REMARK    2  A    between atoms: C_7  and  C_8 
REMARK    3  A    between atoms: C_8  and  C_9 
REMARK       I    between atoms: C_9  and  N_10 
REMARK    4  A    between atoms: N_10  and  C_11 
REMARK    5  A    between atoms: C_11  and  C_12 
REMARK    6  A    between atoms: C_12  and  N_13 
REMARK    7  A    between atoms: C_21  and  C_22 
REMARK    8  A    between atoms: C_32  and  C_33 
REMARK    9  A    between atoms: C_33  and  O_34 
ROOT
HETATM    1  C   UNL     1      42.515 -10.441   6.826  1.00  0.00     0.037 C 
HETATM    2  N   UNL     1      41.925  -9.330   6.259  1.00  0.00    -0.232 NA
HETATM    3  C   UNL     1      41.500  -9.426   5.048  1.00  0.00     0.169 C 
HETATM    4  N   UNL     1      41.265 -10.776   4.279  1.00  0.00    -0.321 N 
HETATM    5  C   UNL     1      40.489 -10.535   3.272  1.00  0.00     0.011 C 
HETATM    6  C   UNL     1      41.616 -11.964   5.083  1.00  0.00     0.151 C 
HETATM    7  S   UNL     1      40.925  -8.051   4.149  1.00  0.00    -0.086 SA
HETATM    8  C   UNL     1      40.578  -9.125   2.729  1.00  0.00     0.135 C 
HETATM    9  C   UNL     1      42.616 -11.611   6.156  1.00  0.00     0.138 C 
ENDROOT
BRANCH   5  10
HETATM   10  C   UNL     1      39.372 -11.465   2.874  1.00  0.00     0.156 C 
BRANCH  10  11
HETATM   11  C   UNL     1      39.816 -12.246   1.638  1.00  0.00     0.223 C 
HETATM   12  N   UNL     1      39.405 -13.543   1.541  1.00  0.00    -0.359 N 
HETATM   13  H   UNL     1      38.842 -13.921   2.302  1.00  0.00     0.162 HD
HETATM   14  O   UNL     1      40.540 -11.719   0.792  1.00  0.00    -0.273 OA
BRANCH  12  15
HETATM   15  C   UNL     1      39.984 -14.557   0.643  1.00  0.00     0.150 C 
BRANCH  15  16
HETATM   16  C   UNL     1      39.610 -14.534  -0.863  1.00  0.00     0.254 C 
BRANCH  16  17
HETATM   17  N   UNL     1      39.565 -13.139  -1.467  1.00  0.00    -0.070 N 
HETATM   18  H   UNL     1      39.855 -12.504  -0.698  1.00  0.00     0.279 HD
HETATM   19  C   UNL     1      40.508 -12.923  -2.627  1.00  0.00     0.235 C 
HETATM   20  C   UNL     1      40.505 -11.450  -3.017  1.00  0.00     0.028 C 
HETATM   21  C   UNL     1      39.104 -10.956  -3.351  1.00  0.00     0.003 C 
HETATM   22  C   UNL     1      38.129 -11.260  -2.219  1.00  0.00     0.028 C 
HETATM   23  C   UNL     1      38.151 -12.733  -1.832  1.00  0.00     0.235 C 
ENDBRANCH  16  17
ENDBRANCH  15  16
ENDBRANCH  12  15
ENDBRANCH  10  11
ENDBRANCH   5  10
BRANCH   6  24
HETATM   24  C   UNL     1      41.966 -13.217   4.275  1.00  0.00    -0.027 A 
HETATM   25  C   UNL     1      41.491 -14.494   4.671  1.00  0.00    -0.053 A 
HETATM   26  C   UNL     1      40.574 -14.707   5.850  1.00  0.00     0.049 C 
HETATM   27  C   UNL     1      41.871 -15.636   3.940  1.00  0.00     0.014 A 
HETATM   28  C   UNL     1      42.731 -15.550   2.843  1.00  0.00    -0.061 A 
HETATM   29  C   UNL     1      43.199 -16.792   2.140  1.00  0.00     0.048 C 
HETATM   30  C   UNL     1      43.225 -14.302   2.473  1.00  0.00     0.007 A 
HETATM   31  C   UNL     1      42.850 -13.153   3.175  1.00  0.00     0.010 A 
ENDBRANCH   6  24
BRANCH   9  32
HETATM   32  C   UNL     1      44.037 -11.820   5.794  1.00  0.00     0.277 C 
HETATM   33  O   UNL     1      44.518 -11.205   4.847  1.00  0.00    -0.264 OA
BRANCH  32  34
HETATM   34  O   UNL     1      44.671 -12.636   6.651  1.00  0.00    -0.325 OA
HETATM   35  C   UNL     1      44.056 -13.926   6.771  1.00  0.00     0.213 C 
ENDBRANCH  32  34
ENDBRANCH   9  32
BRANCH   1  36
HETATM   36  C   UNL     1      43.194 -10.178   8.162  1.00  0.00     0.052 C 
HETATM   37  C   UNL     1      43.878  -8.812   8.219  1.00  0.00     0.011 C 
ENDBRANCH   1  36
TORSDOF 9
ENDMDL
MODEL 7
REMARK VINA RESULT:      -6.9      2.532      4.714
REMARK  9 active torsions:
REMARK  status: ('A' for Active; 'I' for Inactive)
REMARK    1  A    between atoms: C_2  and  C_3 
REMARK    2  A    between atoms: C_7  and  C_8 
REMARK    3  A    between atoms: C_8  and  C_9 
REMARK       I    between atoms: C_9  and  N_10 
REMARK    4  A    between atoms: N_10  and  C_11 
REMARK    5  A    between atoms: C_11  and  C_12 
REMARK    6  A    between atoms: C_12  and  N_13 
REMARK    7  A    between atoms: C_21  and  C_22 
REMARK    8  A    between atoms: C_32  and  C_33 
REMARK    9  A    between atoms: C_33  and  O_34 
ROOT
HETATM    1  C   UNL     1      42.554 -14.497   3.832  1.00  0.00     0.037 C 
HETATM    2  N   UNL     1      41.343 -14.057   3.340  1.00  0.00    -0.232 NA
HETATM    3  C   UNL     1      40.864 -12.958   3.811  1.00  0.00     0.169 C 
HETATM    4  N   UNL     1      41.684 -11.893   4.625  1.00  0.00    -0.321 N 
HETATM    5  C   UNL     1      41.030 -10.777   4.599  1.00  0.00     0.011 C 
HETATM    6  C   UNL     1      43.091 -12.290   4.837  1.00  0.00     0.151 C 
HETATM    7  S   UNL     1      39.261 -12.400   3.430  1.00  0.00    -0.086 SA
HETATM    8  C   UNL     1      39.530 -10.927   4.454  1.00  0.00     0.135 C 
HETATM    9  C   UNL     1      43.245 -13.788   4.754  1.00  0.00     0.138 C 
ENDROOT
BRANCH   5  10
HETATM   10  C   UNL     1      41.712  -9.447   4.412  1.00  0.00     0.156 C 
BRANCH  10  11
HETATM   11  C   UNL     1      41.075  -8.443   5.372  1.00  0.00     0.223 C 
HETATM   12  N   UNL     1      41.224  -8.679   6.707  1.00  0.00    -0.359 N 
HETATM   13  H   UNL     1      41.734  -9.516   6.988  1.00  0.00     0.162 HD
HETATM   14  O   UNL     1      40.434  -7.485   4.939  1.00  0.00    -0.273 OA
BRANCH  12  15
HETATM   15  C   UNL     1      40.424  -8.059   7.777  1.00  0.00     0.150 C 
BRANCH  15  16
HETATM   16  C   UNL     1      41.126  -7.126   8.801  1.00  0.00     0.254 C 
BRANCH  16  17
HETATM   17  N   UNL     1      41.529  -7.820  10.092  1.00  0.00    -0.070 N 
HETATM   18  H   UNL     1      41.094  -7.256  10.848  1.00  0.00     0.279 HD
HETATM   19  C   UNL     1      41.031  -9.240  10.228  1.00  0.00     0.235 C 
HETATM   20  C   UNL     1      41.339  -9.754  11.629  1.00  0.00     0.028 C 
HETATM   21  C   UNL     1      42.824  -9.662  11.952  1.00  0.00     0.003 C 
HETATM   22  C   UNL     1      43.349  -8.250  11.724  1.00  0.00     0.028 C 
HETATM   23  C   UNL     1      43.026  -7.744  10.324  1.00  0.00     0.235 C 
ENDBRANCH  16  17
ENDBRANCH  15  16
ENDBRANCH  12  15
ENDBRANCH  10  11
ENDBRANCH   5  10
BRANCH   6  24
HETATM   24  C   UNL     1      43.774 -11.646   6.047  1.00  0.00    -0.027 A 
HETATM   25  C   UNL     1      45.152 -11.313   6.012  1.00  0.00    -0.053 A 
HETATM   26  C   UNL     1      46.019 -11.501   4.790  1.00  0.00     0.049 C 
HETATM   27  C   UNL     1      45.768 -10.771   7.156  1.00  0.00     0.014 A 
HETATM   28  C   UNL     1      45.060 -10.574   8.343  1.00  0.00    -0.061 A 
HETATM   29  C   UNL     1      45.761 -10.085   9.580  1.00  0.00     0.048 C 
HETATM   30  C   UNL     1      43.715 -10.931   8.390  1.00  0.00     0.007 A 
HETATM   31  C   UNL     1      43.080 -11.458   7.263  1.00  0.00     0.010 A 
ENDBRANCH   6  24
BRANCH   9  32
HETATM   32  C   UNL     1      43.173 -14.508   6.046  1.00  0.00     0.277 C 
HETATM   33  O   UNL     1      44.208 -14.860   6.603  1.00  0.00    -0.264 OA
BRANCH  32  34
HETATM   34  O   UNL     1      41.916 -14.612   6.507  1.00  0.00    -0.325 OA
HETATM   35  C   UNL     1      41.584 -15.928   6.970  1.00  0.00     0.213 C 
ENDBRANCH  32  34
ENDBRANCH   9  32
BRANCH   1  36
HETATM   36  C   UNL     1      42.933 -15.906   3.400  1.00  0.00     0.052 C 
HETATM   37  C   UNL     1      41.779 -16.648   2.726  1.00  0.00     0.011 C 
ENDBRANCH   1  36
TORSDOF 9
ENDMDL
MODEL 8
REMARK VINA RESULT:      -6.8      4.041      7.172
REMARK  9 active torsions:
REMARK  status: ('A' for Active; 'I' for Inactive)
REMARK    1  A    between atoms: C_2  and  C_3 
REMARK    2  A    between atoms: C_7  and  C_8 
REMARK    3  A    between atoms: C_8  and  C_9 
REMARK       I    between atoms: C_9  and  N_10 
REMARK    4  A    between atoms: N_10  and  C_11 
REMARK    5  A    between atoms: C_11  and  C_12 
REMARK    6  A    between atoms: C_12  and  N_13 
REMARK    7  A    between atoms: C_21  and  C_22 
REMARK    8  A    between atoms: C_32  and  C_33 
REMARK    9  A    between atoms: C_33  and  O_34 
ROOT
HETATM    1  C   UNL     1      38.716 -13.078  -1.615  1.00  0.00     0.037 C 
HETATM    2  N   UNL     1      39.226 -14.074  -0.808  1.00  0.00    -0.232 NA
HETATM    3  C   UNL     1      40.171 -13.763   0.009  1.00  0.00     0.169 C 
HETATM    4  N   UNL     1      40.554 -12.298   0.428  1.00  0.00    -0.321 N 
HETATM    5  C   UNL     1      41.247 -12.361   1.519  1.00  0.00     0.011 C 
HETATM    6  C   UNL     1      39.728 -11.273  -0.242  1.00  0.00     0.151 C 
HETATM    7  S   UNL     1      41.038 -14.957   0.931  1.00  0.00    -0.086 SA
HETATM    8  C   UNL     1      42.029 -13.645   1.698  1.00  0.00     0.135 C 
HETATM    9  C   UNL     1      39.159 -11.803  -1.535  1.00  0.00     0.138 C 
ENDROOT
BRANCH   5  10
HETATM   10  C   UNL     1      41.053 -11.391   2.656  1.00  0.00     0.156 C 
BRANCH  10  11
HETATM   11  C   UNL     1      41.393 -12.108   3.961  1.00  0.00     0.223 C 
HETATM   12  N   UNL     1      40.449 -12.948   4.474  1.00  0.00    -0.359 N 
HETATM   13  H   UNL     1      39.567 -13.037   3.969  1.00  0.00     0.162 HD
HETATM   14  O   UNL     1      42.467 -11.900   4.527  1.00  0.00    -0.273 OA
BRANCH  12  15
HETATM   15  C   UNL     1      40.419 -13.457   5.856  1.00  0.00     0.150 C 
BRANCH  15  16
HETATM   16  C   UNL     1      40.615 -14.977   6.106  1.00  0.00     0.254 C 
BRANCH  16  17
HETATM   17  N   UNL     1      42.013 -15.479   5.785  1.00  0.00    -0.070 N 
HETATM   18  H   UNL     1      42.562 -14.626   5.564  1.00  0.00     0.279 HD
HETATM   19  C   UNL     1      42.705 -16.192   6.925  1.00  0.00     0.235 C 
HETATM   20  C   UNL     1      44.152 -16.476   6.542  1.00  0.00     0.028 C 
HETATM   21  C   UNL     1      44.248 -17.282   5.253  1.00  0.00     0.003 C 
HETATM   22  C   UNL     1      43.471 -16.612   4.127  1.00  0.00     0.028 C 
HETATM   23  C   UNL     1      42.029 -16.323   4.526  1.00  0.00     0.235 C 
ENDBRANCH  16  17
ENDBRANCH  15  16
ENDBRANCH  12  15
ENDBRANCH  10  11
ENDBRANCH   5  10
BRANCH   6  24
HETATM   24  C   UNL     1      40.371  -9.887  -0.351  1.00  0.00    -0.027 A 
HETATM   25  C   UNL     1      39.583  -8.712  -0.261  1.00  0.00    -0.053 A 
HETATM   26  C   UNL     1      38.098  -8.728   0.007  1.00  0.00     0.049 C 
HETATM   27  C   UNL     1      40.192  -7.451  -0.417  1.00  0.00     0.014 A 
HETATM   28  C   UNL     1      41.556  -7.326  -0.685  1.00  0.00    -0.061 A 
HETATM   29  C   UNL     1      42.164  -5.977  -0.944  1.00  0.00     0.048 C 
HETATM   30  C   UNL     1      42.326  -8.480  -0.807  1.00  0.00     0.007 A 
HETATM   31  C   UNL     1      41.745  -9.741  -0.643  1.00  0.00     0.010 A 
ENDBRANCH   6  24
BRANCH   9  32
HETATM   32  C   UNL     1      39.957 -11.509  -2.749  1.00  0.00     0.277 C 
HETATM   33  O   UNL     1      40.966 -12.166  -2.983  1.00  0.00    -0.264 OA
BRANCH  32  34
HETATM   34  O   UNL     1      39.391 -10.567  -3.519  1.00  0.00    -0.325 OA
HETATM   35  C   UNL     1      40.328  -9.612  -4.035  1.00  0.00     0.213 C 
ENDBRANCH  32  34
ENDBRANCH   9  32
BRANCH   1  36
HETATM   36  C   UNL     1      37.776 -13.572  -2.705  1.00  0.00     0.052 C 
HETATM   37  C   UNL     1      38.290 -14.832  -3.403  1.00  0.00     0.011 C 
ENDBRANCH   1  36
TORSDOF 9
ENDMDL
MODEL 9
REMARK VINA RESULT:      -6.8      3.629      8.341
REMARK  9 active torsions:
REMARK  status: ('A' for Active; 'I' for Inactive)
REMARK    1  A    between atoms: C_2  and  C_3 
REMARK    2  A    between atoms: C_7  and  C_8 
REMARK    3  A    between atoms: C_8  and  C_9 
REMARK       I    between atoms: C_9  and  N_10 
REMARK    4  A    between atoms: N_10  and  C_11 
REMARK    5  A    between atoms: C_11  and  C_12 
REMARK    6  A    between atoms: C_12  and  N_13 
REMARK    7  A    between atoms: C_21  and  C_22 
REMARK    8  A    between atoms: C_32  and  C_33 
REMARK    9  A    between atoms: C_33  and  O_34 
ROOT
HETATM    1  C   UNL     1      40.635 -10.910   2.919  1.00  0.00     0.037 C 
HETATM    2  N   UNL     1      40.489 -10.223   1.732  1.00  0.00    -0.232 NA
HETATM    3  C   UNL     1      40.809 -10.828   0.642  1.00  0.00     0.169 C 
HETATM    4  N   UNL     1      41.009 -12.380   0.499  1.00  0.00    -0.321 N 
HETATM    5  C   UNL     1      40.932 -12.680  -0.758  1.00  0.00     0.011 C 
HETATM    6  C   UNL     1      40.824 -13.104   1.772  1.00  0.00     0.151 C 
HETATM    7  S   UNL     1      40.866 -10.014  -0.895  1.00  0.00    -0.086 SA
HETATM    8  C   UNL     1      41.344 -11.568  -1.700  1.00  0.00     0.135 C 
HETATM    9  C   UNL     1      41.064 -12.191   2.949  1.00  0.00     0.138 C 
ENDROOT
BRANCH   5  10
HETATM   10  C   UNL     1      40.205 -13.904  -1.252  1.00  0.00     0.156 C 
BRANCH  10  11
HETATM   11  C   UNL     1      39.220 -13.471  -2.336  1.00  0.00     0.223 C 
HETATM   12  N   UNL     1      38.171 -12.690  -1.949  1.00  0.00    -0.359 N 
HETATM   13  H   UNL     1      38.094 -12.455  -0.959  1.00  0.00     0.162 HD
HETATM   14  O   UNL     1      39.368 -13.845  -3.500  1.00  0.00    -0.273 OA
BRANCH  12  15
HETATM   15  C   UNL     1      36.947 -12.454  -2.733  1.00  0.00     0.150 C 
BRANCH  15  16
HETATM   16  C   UNL     1      36.519 -10.995  -3.046  1.00  0.00     0.254 C 
BRANCH  16  17
HETATM   17  N   UNL     1      35.529 -10.415  -2.048  1.00  0.00    -0.070 N 
HETATM   18  H   UNL     1      35.058 -11.239  -1.626  1.00  0.00     0.279 HD
HETATM   19  C   UNL     1      36.156  -9.617  -0.928  1.00  0.00     0.235 C 
HETATM   20  C   UNL     1      35.088  -9.253   0.096  1.00  0.00     0.028 C 
HETATM   21  C   UNL     1      33.932  -8.492  -0.538  1.00  0.00     0.003 C 
HETATM   22  C   UNL     1      33.360  -9.253  -1.729  1.00  0.00     0.028 C 
HETATM   23  C   UNL     1      34.440  -9.619  -2.739  1.00  0.00     0.235 C 
ENDBRANCH  16  17
ENDBRANCH  15  16
ENDBRANCH  12  15
ENDBRANCH  10  11
ENDBRANCH   5  10
BRANCH   6  24
HETATM   24  C   UNL     1      41.535 -14.458   1.861  1.00  0.00    -0.027 A 
HETATM   25  C   UNL     1      40.856 -15.604   2.348  1.00  0.00    -0.053 A 
HETATM   26  C   UNL     1      39.400 -15.598   2.746  1.00  0.00     0.049 C 
HETATM   27  C   UNL     1      41.548 -16.825   2.469  1.00  0.00     0.014 A 
HETATM   28  C   UNL     1      42.902 -16.933   2.145  1.00  0.00    -0.061 A 
HETATM   29  C   UNL     1      43.642 -18.220   2.374  1.00  0.00     0.048 C 
HETATM   30  C   UNL     1      43.578 -15.801   1.698  1.00  0.00     0.007 A 
HETATM   31  C   UNL     1      42.908 -14.583   1.557  1.00  0.00     0.010 A 
ENDBRANCH   6  24
BRANCH   9  32
HETATM   32  C   UNL     1      42.440 -12.210   3.498  1.00  0.00     0.277 C 
HETATM   33  O   UNL     1      43.323 -11.565   2.941  1.00  0.00    -0.264 OA
BRANCH  32  34
HETATM   34  O   UNL     1      42.526 -12.900   4.646  1.00  0.00    -0.325 OA
HETATM   35  C   UNL     1      43.332 -12.255   5.641  1.00  0.00     0.213 C 
ENDBRANCH  32  34
ENDBRANCH   9  32
BRANCH   1  36
HETATM   36  C   UNL     1      40.460 -10.054   4.166  1.00  0.00     0.052 C 
HETATM   37  C   UNL     1      39.244  -9.132   4.084  1.00  0.00     0.011 C 
ENDBRANCH   1  36
TORSDOF 9
ENDMDL
MODEL 10
REMARK VINA RESULT:      -6.7      2.809      8.068
REMARK  9 active torsions:
REMARK  status: ('A' for Active; 'I' for Inactive)
REMARK    1  A    between atoms: C_2  and  C_3 
REMARK    2  A    between atoms: C_7  and  C_8 
REMARK    3  A    between atoms: C_8  and  C_9 
REMARK       I    between atoms: C_9  and  N_10 
REMARK    4  A    between atoms: N_10  and  C_11 
REMARK    5  A    between atoms: C_11  and  C_12 
REMARK    6  A    between atoms: C_12  and  N_13 
REMARK    7  A    between atoms: C_21  and  C_22 
REMARK    8  A    between atoms: C_32  and  C_33 
REMARK    9  A    between atoms: C_33  and  O_34 
ROOT
HETATM    1  C   UNL     1      43.020 -15.625   4.335  1.00  0.00     0.037 C 
HETATM    2  N   UNL     1      42.457 -15.744   3.082  1.00  0.00    -0.232 NA
HETATM    3  C   UNL     1      41.780 -14.747   2.627  1.00  0.00     0.169 C 
HETATM    4  N   UNL     1      41.830 -13.287   3.204  1.00  0.00    -0.321 N 
HETATM    5  C   UNL     1      41.360 -12.483   2.305  1.00  0.00     0.011 C 
HETATM    6  C   UNL     1      42.726 -13.159   4.371  1.00  0.00     0.151 C 
HETATM    7  S   UNL     1      40.853 -14.841   1.158  1.00  0.00    -0.086 SA
HETATM    8  C   UNL     1      40.353 -13.109   1.363  1.00  0.00     0.135 C 
HETATM    9  C   UNL     1      42.904 -14.490   5.060  1.00  0.00     0.138 C 
ENDROOT
BRANCH   5  10
HETATM   10  C   UNL     1      41.983 -11.142   2.017  1.00  0.00     0.156 C 
BRANCH  10  11
HETATM   11  C   UNL     1      41.084 -10.399   1.030  1.00  0.00     0.223 C 
HETATM   12  N   UNL     1      41.465 -10.399  -0.280  1.00  0.00    -0.359 N 
HETATM   13  H   UNL     1      42.332 -10.877  -0.522  1.00  0.00     0.162 HD
HETATM   14  O   UNL     1      40.079  -9.806   1.424  1.00  0.00    -0.273 OA
BRANCH  12  15
HETATM   15  C   UNL     1      40.959  -9.482  -1.316  1.00  0.00     0.150 C 
BRANCH  15  16
HETATM   16  C   UNL     1      40.107 -10.055  -2.480  1.00  0.00     0.254 C 
BRANCH  16  17
HETATM   17  N   UNL     1      39.679 -11.499  -2.279  1.00  0.00    -0.070 N 
HETATM   18  H   UNL     1      39.823 -11.685  -1.268  1.00  0.00     0.279 HD
HETATM   19  C   UNL     1      38.228 -11.779  -2.599  1.00  0.00     0.235 C 
HETATM   20  C   UNL     1      37.882 -13.203  -2.182  1.00  0.00     0.028 C 
HETATM   21  C   UNL     1      38.795 -14.225  -2.844  1.00  0.00     0.003 C 
HETATM   22  C   UNL     1      40.262 -13.890  -2.603  1.00  0.00     0.028 C 
HETATM   23  C   UNL     1      40.593 -12.461  -3.014  1.00  0.00     0.235 C 
ENDBRANCH  16  17
ENDBRANCH  15  16
ENDBRANCH  12  15
ENDBRANCH  10  11
ENDBRANCH   5  10
BRANCH   6  24
HETATM   24  C   UNL     1      42.409 -11.993   5.312  1.00  0.00    -0.027 A 
HETATM   25  C   UNL     1      43.444 -11.324   6.014  1.00  0.00    -0.053 A 
HETATM   26  C   UNL     1      44.907 -11.654   5.846  1.00  0.00     0.049 C 
HETATM   27  C   UNL     1      43.121 -10.289   6.913  1.00  0.00     0.014 A 
HETATM   28  C   UNL     1      41.796  -9.917   7.154  1.00  0.00    -0.061 A 
HETATM   29  C   UNL     1      41.470  -8.878   8.188  1.00  0.00     0.048 C 
HETATM   30  C   UNL     1      40.777 -10.595   6.490  1.00  0.00     0.007 A 
HETATM   31  C   UNL     1      41.076 -11.616   5.584  1.00  0.00     0.010 A 
ENDBRANCH   6  24
BRANCH   9  32
HETATM   32  C   UNL     1      41.980 -14.749   6.189  1.00  0.00     0.277 C 
HETATM   33  O   UNL     1      42.392 -14.659   7.342  1.00  0.00    -0.264 OA
BRANCH  32  34
HETATM   34  O   UNL     1      40.722 -14.979   5.782  1.00  0.00    -0.325 OA
HETATM   35  C   UNL     1      40.070 -16.030   6.507  1.00  0.00     0.213 C 
ENDBRANCH  32  34
ENDBRANCH   9  32
BRANCH   1  36
HETATM   36  C   UNL     1      43.598 -16.919   4.890  1.00  0.00     0.052 C 
HETATM   37  C   UNL     1      44.816 -16.686   5.783  1.00  0.00     0.011 C 
ENDBRANCH   1  36
TORSDOF 9
ENDMDL
