MODEL 1
REMARK VINA RESULT:      -8.5      0.000      0.000
REMARK  3 active torsions:
REMARK  status: ('A' for Active; 'I' for Inactive)
REMARK    1  A    between atoms: C_9  and  C_10 
REMARK    2  A    between atoms: C_16  and  C_17 
REMARK       I    between atoms: C_17  and  N_18 
REMARK    3  A    between atoms: N_18  and  C_19 
ROOT
HETATM    1  C   UNL     1      42.960 -15.672   8.030  1.00  0.00     0.070 C 
HETATM    2  C   UNL     1      43.010 -14.626   6.944  1.00  0.00     0.037 C 
HETATM    3  N   UNL     1      43.366 -13.345   7.361  1.00  0.00    -0.191 N 
HETATM    4  C   UNL     1      43.710 -12.368   6.494  1.00  0.00     0.735 A 
HETATM    5  N   UNL     1      43.554 -12.578   5.152  1.00  0.00    -0.092 N 
HETATM    6  N   UNL     1      44.022 -11.526   4.460  1.00  0.00     0.012 NA
HETATM    7  N   UNL     1      44.420 -10.666   5.393  1.00  0.00     0.033 NA
HETATM    8  N   UNL     1      44.231 -11.178   6.664  1.00  0.00     0.030 NA
HETATM    9  C   UNL     1      42.995 -13.791   4.561  1.00  0.00     0.198 C 
HETATM   10  C   UNL     1      42.809 -14.872   5.624  1.00  0.00     0.062 C 
HETATM   11  H   UNL     1      43.604 -13.220   8.342  1.00  0.00     0.184 HD
ENDROOT
BRANCH  10  12
HETATM   12  C   UNL     1      42.530 -16.220   5.065  1.00  0.00     0.257 C 
HETATM   13  N   UNL     1      43.665 -16.889   4.675  1.00  0.00    -0.308 N 
HETATM   14  H   UNL     1      44.559 -16.454   4.847  1.00  0.00     0.170 HD
HETATM   15  O   UNL     1      41.369 -16.607   5.050  1.00  0.00    -0.267 OA
BRANCH  13  16
HETATM   16  C   UNL     1      43.687 -18.139   4.039  1.00  0.00     0.129 A 
HETATM   17  N   UNL     1      44.078 -19.239   4.704  1.00  0.00    -0.243 NA
HETATM   18  C   UNL     1      44.058 -20.419   4.048  1.00  0.00     0.119 A 
HETATM   19  C   UNL     1      43.646 -20.561   2.736  1.00  0.00     0.019 A 
HETATM   20  C   UNL     1      43.236 -19.422   2.057  1.00  0.00     0.005 A 
HETATM   21  C   UNL     1      43.261 -18.192   2.715  1.00  0.00     0.050 A 
ENDBRANCH  13  16
ENDBRANCH  10  12
BRANCH   9  22
HETATM   22  C   UNL     1      41.687 -13.482   3.836  1.00  0.00    -0.029 A 
HETATM   23  C   UNL     1      40.614 -12.925   4.554  1.00  0.00     0.009 A 
HETATM   24  C   UNL     1      39.408 -12.628   3.917  1.00  0.00     0.001 A 
HETATM   25  C   UNL     1      39.259 -12.875   2.554  1.00  0.00     0.000 A 
HETATM   26  C   UNL     1      40.316 -13.409   1.823  1.00  0.00     0.001 A 
HETATM   27  C   UNL     1      41.526 -13.704   2.456  1.00  0.00     0.009 A 
ENDBRANCH   9  22
TORSDOF 3
ENDMDL
MODEL 2
REMARK VINA RESULT:      -8.1      2.720      4.349
REMARK  3 active torsions:
REMARK  status: ('A' for Active; 'I' for Inactive)
REMARK    1  A    between atoms: C_9  and  C_10 
REMARK    2  A    between atoms: C_16  and  C_17 
REMARK       I    between atoms: C_17  and  N_18 
REMARK    3  A    between atoms: N_18  and  C_19 
ROOT
HETATM    1  C   UNL     1      39.903 -15.447   0.829  1.00  0.00     0.070 C 
HETATM    2  C   UNL     1      39.950 -14.319   1.830  1.00  0.00     0.037 C 
HETATM    3  N   UNL     1      39.341 -13.133   1.427  1.00  0.00    -0.191 N 
HETATM    4  C   UNL     1      39.065 -12.129   2.288  1.00  0.00     0.735 A 
HETATM    5  N   UNL     1      39.539 -12.195   3.568  1.00  0.00    -0.092 N 
HETATM    6  N   UNL     1      39.095 -11.148   4.282  1.00  0.00     0.012 NA
HETATM    7  N   UNL     1      38.389 -10.430   3.414  1.00  0.00     0.033 NA
HETATM    8  N   UNL     1      38.362 -11.029   2.168  1.00  0.00     0.030 NA
HETATM    9  C   UNL     1      40.374 -13.275   4.090  1.00  0.00     0.198 C 
HETATM   10  C   UNL     1      40.467 -14.418   3.081  1.00  0.00     0.062 C 
HETATM   11  H   UNL     1      38.878 -13.127   0.521  1.00  0.00     0.184 HD
ENDROOT
BRANCH  10  12
HETATM   12  C   UNL     1      41.044 -15.667   3.645  1.00  0.00     0.257 C 
HETATM   13  N   UNL     1      42.257 -16.000   3.090  1.00  0.00    -0.308 N 
HETATM   14  H   UNL     1      42.666 -15.366   2.420  1.00  0.00     0.170 HD
HETATM   15  O   UNL     1      40.431 -16.229   4.543  1.00  0.00    -0.267 OA
BRANCH  13  16
HETATM   16  C   UNL     1      42.980 -17.167   3.373  1.00  0.00     0.129 A 
HETATM   17  N   UNL     1      43.606 -17.316   4.553  1.00  0.00    -0.243 NA
HETATM   18  C   UNL     1      44.269 -18.470   4.780  1.00  0.00     0.119 A 
HETATM   19  C   UNL     1      44.329 -19.512   3.873  1.00  0.00     0.019 A 
HETATM   20  C   UNL     1      43.674 -19.354   2.660  1.00  0.00     0.005 A 
HETATM   21  C   UNL     1      42.993 -18.165   2.403  1.00  0.00     0.050 A 
ENDBRANCH  13  16
ENDBRANCH  10  12
BRANCH   9  22
HETATM   22  C   UNL     1      41.755 -12.748   4.475  1.00  0.00    -0.029 A 
HETATM   23  C   UNL     1      42.563 -12.148   3.494  1.00  0.00     0.009 A 
HETATM   24  C   UNL     1      43.828 -11.653   3.817  1.00  0.00     0.001 A 
HETATM   25  C   UNL     1      44.299 -11.743   5.125  1.00  0.00     0.000 A 
HETATM   26  C   UNL     1      43.504 -12.317   6.114  1.00  0.00     0.001 A 
HETATM   27  C   UNL     1      42.237 -12.810   5.795  1.00  0.00     0.009 A 
ENDBRANCH   9  22
TORSDOF 3
ENDMDL
MODEL 3
REMARK VINA RESULT:      -8.0      3.318      6.032
REMARK  3 active torsions:
REMARK  status: ('A' for Active; 'I' for Inactive)
REMARK    1  A    between atoms: C_9  and  C_10 
REMARK    2  A    between atoms: C_16  and  C_17 
REMARK       I    between atoms: C_17  and  N_18 
REMARK    3  A    between atoms: N_18  and  C_19 
ROOT
HETATM    1  C   UNL     1      41.528 -10.054   1.236  1.00  0.00     0.070 C 
HETATM    2  C   UNL     1      41.869 -11.117   2.252  1.00  0.00     0.037 C 
HETATM    3  N   UNL     1      42.881 -10.786   3.150  1.00  0.00    -0.191 N 
HETATM    4  C   UNL     1      43.122 -11.504   4.269  1.00  0.00     0.735 A 
HETATM    5  N   UNL     1      42.468 -12.689   4.459  1.00  0.00    -0.092 N 
HETATM    6  N   UNL     1      42.784 -13.207   5.657  1.00  0.00     0.012 NA
HETATM    7  N   UNL     1      43.663 -12.350   6.167  1.00  0.00     0.033 NA
HETATM    8  N   UNL     1      43.883 -11.285   5.313  1.00  0.00     0.030 NA
HETATM    9  C   UNL     1      41.529 -13.281   3.508  1.00  0.00     0.198 C 
HETATM   10  C   UNL     1      41.216 -12.300   2.380  1.00  0.00     0.062 C 
HETATM   11  H   UNL     1      43.280  -9.853   3.085  1.00  0.00     0.184 HD
ENDROOT
BRANCH  10  12
HETATM   12  C   UNL     1      40.056 -12.703   1.542  1.00  0.00     0.257 C 
HETATM   13  N   UNL     1      40.396 -12.952   0.234  1.00  0.00    -0.308 N 
HETATM   14  H   UNL     1      41.369 -12.902  -0.025  1.00  0.00     0.170 HD
HETATM   15  O   UNL     1      38.965 -12.815   2.086  1.00  0.00    -0.267 OA
BRANCH  13  16
HETATM   16  C   UNL     1      39.489 -13.265  -0.789  1.00  0.00     0.129 A 
HETATM   17  N   UNL     1      38.550 -12.381  -1.166  1.00  0.00    -0.243 NA
HETATM   18  C   UNL     1      37.718 -12.728  -2.172  1.00  0.00     0.119 A 
HETATM   19  C   UNL     1      37.786 -13.935  -2.843  1.00  0.00     0.019 A 
HETATM   20  C   UNL     1      38.763 -14.840  -2.453  1.00  0.00     0.005 A 
HETATM   21  C   UNL     1      39.624 -14.504  -1.409  1.00  0.00     0.050 A 
ENDBRANCH  13  16
ENDBRANCH  10  12
BRANCH   9  22
HETATM   22  C   UNL     1      42.070 -14.604   2.972  1.00  0.00    -0.029 A 
HETATM   23  C   UNL     1      41.508 -15.812   3.421  1.00  0.00     0.009 A 
HETATM   24  C   UNL     1      41.979 -17.037   2.946  1.00  0.00     0.001 A 
HETATM   25  C   UNL     1      43.011 -17.074   2.011  1.00  0.00     0.000 A 
HETATM   26  C   UNL     1      43.567 -15.887   1.542  1.00  0.00     0.001 A 
HETATM   27  C   UNL     1      43.096 -14.659   2.012  1.00  0.00     0.009 A 
ENDBRANCH   9  22
TORSDOF 3
ENDMDL
MODEL 4
REMARK VINA RESULT:      -7.5      3.878      6.903
REMARK  3 active torsions:
REMARK  status: ('A' for Active; 'I' for Inactive)
REMARK    1  A    between atoms: C_9  and  C_10 
REMARK    2  A    between atoms: C_16  and  C_17 
REMARK       I    between atoms: C_17  and  N_18 
REMARK    3  A    between atoms: N_18  and  C_19 
ROOT
HETATM    1  C   UNL     1      39.012 -10.610   2.853  1.00  0.00     0.070 C 
HETATM    2  C   UNL     1      39.515 -11.660   1.895  1.00  0.00     0.037 C 
HETATM    3  N   UNL     1      38.617 -12.048   0.903  1.00  0.00    -0.191 N 
HETATM    4  C   UNL     1      38.992 -12.769  -0.176  1.00  0.00     0.735 A 
HETATM    5  N   UNL     1      40.258 -13.282  -0.231  1.00  0.00    -0.092 N 
HETATM    6  N   UNL     1      40.459 -13.896  -1.408  1.00  0.00     0.012 NA
HETATM    7  N   UNL     1      39.295 -13.787  -2.042  1.00  0.00     0.033 NA
HETATM    8  N   UNL     1      38.373 -13.088  -1.286  1.00  0.00     0.030 NA
HETATM    9  C   UNL     1      41.257 -13.143   0.826  1.00  0.00     0.198 C 
HETATM   10  C   UNL     1      40.773 -12.172   1.900  1.00  0.00     0.062 C 
HETATM   11  H   UNL     1      37.719 -11.572   0.871  1.00  0.00     0.184 HD
ENDROOT
BRANCH  10  12
HETATM   12  C   UNL     1      41.837 -11.748   2.848  1.00  0.00     0.257 C 
HETATM   13  N   UNL     1      41.701 -12.306   4.097  1.00  0.00    -0.308 N 
HETATM   14  H   UNL     1      40.959 -12.973   4.244  1.00  0.00     0.170 HD
HETATM   15  O   UNL     1      42.720 -11.012   2.428  1.00  0.00    -0.267 OA
BRANCH  13  16
HETATM   16  C   UNL     1      42.512 -12.014   5.203  1.00  0.00     0.129 A 
HETATM   17  N   UNL     1      42.397 -10.840   5.846  1.00  0.00    -0.243 NA
HETATM   18  C   UNL     1      43.188 -10.622   6.918  1.00  0.00     0.119 A 
HETATM   19  C   UNL     1      44.101 -11.543   7.399  1.00  0.00     0.019 A 
HETATM   20  C   UNL     1      44.209 -12.756   6.734  1.00  0.00     0.005 A 
HETATM   21  C   UNL     1      43.408 -12.995   5.618  1.00  0.00     0.050 A 
ENDBRANCH  13  16
ENDBRANCH  10  12
BRANCH   9  22
HETATM   22  C   UNL     1      41.609 -14.507   1.415  1.00  0.00    -0.029 A 
HETATM   23  C   UNL     1      42.948 -14.937   1.408  1.00  0.00     0.009 A 
HETATM   24  C   UNL     1      43.301 -16.177   1.943  1.00  0.00     0.001 A 
HETATM   25  C   UNL     1      42.325 -17.001   2.499  1.00  0.00     0.000 A 
HETATM   26  C   UNL     1      40.997 -16.584   2.531  1.00  0.00     0.001 A 
HETATM   27  C   UNL     1      40.640 -15.342   2.000  1.00  0.00     0.009 A 
ENDBRANCH   9  22
TORSDOF 3
ENDMDL
MODEL 5
REMARK VINA RESULT:      -7.5      3.077      6.434
REMARK  3 active torsions:
REMARK  status: ('A' for Active; 'I' for Inactive)
REMARK    1  A    between atoms: C_9  and  C_10 
REMARK    2  A    between atoms: C_16  and  C_17 
REMARK       I    between atoms: C_17  and  N_18 
REMARK    3  A    between atoms: N_18  and  C_19 
ROOT
HETATM    1  C   UNL     1      39.084 -11.650   5.211  1.00  0.00     0.070 C 
HETATM    2  C   UNL     1      39.685 -12.123   3.911  1.00  0.00     0.037 C 
HETATM    3  N   UNL     1      38.856 -12.025   2.796  1.00  0.00    -0.191 N 
HETATM    4  C   UNL     1      39.318 -12.154   1.533  1.00  0.00     0.735 A 
HETATM    5  N   UNL     1      40.610 -12.555   1.330  1.00  0.00    -0.092 N 
HETATM    6  N   UNL     1      40.897 -12.547   0.019  1.00  0.00     0.012 NA
HETATM    7  N   UNL     1      39.761 -12.181  -0.568  1.00  0.00     0.033 NA
HETATM    8  N   UNL     1      38.770 -11.934   0.363  1.00  0.00     0.030 NA
HETATM    9  C   UNL     1      41.548 -12.901   2.395  1.00  0.00     0.198 C 
HETATM   10  C   UNL     1      40.965 -12.551   3.762  1.00  0.00     0.062 C 
HETATM   11  H   UNL     1      37.938 -11.609   2.929  1.00  0.00     0.184 HD
ENDROOT
BRANCH  10  12
HETATM   12  C   UNL     1      41.960 -12.593   4.866  1.00  0.00     0.257 C 
HETATM   13  N   UNL     1      42.683 -11.431   4.985  1.00  0.00    -0.308 N 
HETATM   14  H   UNL     1      42.449 -10.658   4.380  1.00  0.00     0.170 HD
HETATM   15  O   UNL     1      42.003 -13.599   5.562  1.00  0.00    -0.267 OA
BRANCH  13  16
HETATM   16  C   UNL     1      43.741 -11.228   5.883  1.00  0.00     0.129 A 
HETATM   17  N   UNL     1      45.015 -11.371   5.483  1.00  0.00    -0.243 NA
HETATM   18  C   UNL     1      45.994 -11.141   6.384  1.00  0.00     0.119 A 
HETATM   19  C   UNL     1      45.760 -10.756   7.691  1.00  0.00     0.019 A 
HETATM   20  C   UNL     1      44.441 -10.603   8.095  1.00  0.00     0.005 A 
HETATM   21  C   UNL     1      43.416 -10.846   7.182  1.00  0.00     0.050 A 
ENDBRANCH  13  16
ENDBRANCH  10  12
BRANCH   9  22
HETATM   22  C   UNL     1      41.939 -14.375   2.308  1.00  0.00    -0.029 A 
HETATM   23  C   UNL     1      43.226 -14.722   1.861  1.00  0.00     0.009 A 
HETATM   24  C   UNL     1      43.613 -16.061   1.775  1.00  0.00     0.001 A 
HETATM   25  C   UNL     1      42.725 -17.069   2.141  1.00  0.00     0.000 A 
HETATM   26  C   UNL     1      41.453 -16.743   2.603  1.00  0.00     0.001 A 
HETATM   27  C   UNL     1      41.063 -15.405   2.693  1.00  0.00     0.009 A 
ENDBRANCH   9  22
TORSDOF 3
ENDMDL
MODEL 6
REMARK VINA RESULT:      -7.4      2.851      6.943
REMARK  3 active torsions:
REMARK  status: ('A' for Active; 'I' for Inactive)
REMARK    1  A    between atoms: C_9  and  C_10 
REMARK    2  A    between atoms: C_16  and  C_17 
REMARK       I    between atoms: C_17  and  N_18 
REMARK    3  A    between atoms: N_18  and  C_19 
ROOT
HETATM    1  C   UNL     1      40.311 -10.953   4.352  1.00  0.00     0.070 C 
HETATM    2  C   UNL     1      40.840 -12.347   4.125  1.00  0.00     0.037 C 
HETATM    3  N   UNL     1      39.952 -13.235   3.520  1.00  0.00    -0.191 N 
HETATM    4  C   UNL     1      40.346 -14.423   3.012  1.00  0.00     0.735 A 
HETATM    5  N   UNL     1      41.623 -14.857   3.235  1.00  0.00    -0.092 N 
HETATM    6  N   UNL     1      41.840 -16.013   2.587  1.00  0.00     0.012 NA
HETATM    7  N   UNL     1      40.675 -16.294   2.011  1.00  0.00     0.033 NA
HETATM    8  N   UNL     1      39.736 -15.312   2.267  1.00  0.00     0.030 NA
HETATM    9  C   UNL     1      42.617 -14.139   4.030  1.00  0.00     0.198 C 
HETATM   10  C   UNL     1      42.108 -12.747   4.397  1.00  0.00     0.062 C 
HETATM   11  H   UNL     1      39.044 -12.872   3.241  1.00  0.00     0.184 HD
ENDROOT
BRANCH  10  12
HETATM   12  C   UNL     1      43.161 -11.850   4.944  1.00  0.00     0.257 C 
HETATM   13  N   UNL     1      43.107 -11.726   6.312  1.00  0.00    -0.308 N 
HETATM   14  H   UNL     1      42.427 -12.275   6.816  1.00  0.00     0.170 HD
HETATM   15  O   UNL     1      43.968 -11.368   4.161  1.00  0.00    -0.267 OA
BRANCH  13  16
HETATM   16  C   UNL     1      43.923 -10.881   7.078  1.00  0.00     0.129 A 
HETATM   17  N   UNL     1      43.435  -9.741   7.594  1.00  0.00    -0.243 NA
HETATM   18  C   UNL     1      44.259  -8.977   8.341  1.00  0.00     0.119 A 
HETATM   19  C   UNL     1      45.573  -9.307   8.617  1.00  0.00     0.019 A 
HETATM   20  C   UNL     1      46.069 -10.490   8.086  1.00  0.00     0.005 A 
HETATM   21  C   UNL     1      45.235 -11.287   7.303  1.00  0.00     0.050 A 
ENDBRANCH  13  16
ENDBRANCH  10  12
BRANCH   9  22
HETATM   22  C   UNL     1      42.998 -14.947   5.269  1.00  0.00    -0.029 A 
HETATM   23  C   UNL     1      42.078 -15.065   6.326  1.00  0.00     0.009 A 
HETATM   24  C   UNL     1      42.396 -15.799   7.469  1.00  0.00     0.001 A 
HETATM   25  C   UNL     1      43.633 -16.433   7.570  1.00  0.00     0.000 A 
HETATM   26  C   UNL     1      44.549 -16.343   6.525  1.00  0.00     0.001 A 
HETATM   27  C   UNL     1      44.233 -15.611   5.378  1.00  0.00     0.009 A 
ENDBRANCH   9  22
TORSDOF 3
ENDMDL
MODEL 7
REMARK VINA RESULT:      -7.2      4.258      6.045
REMARK  3 active torsions:
REMARK  status: ('A' for Active; 'I' for Inactive)
REMARK    1  A    between atoms: C_9  and  C_10 
REMARK    2  A    between atoms: C_16  and  C_17 
REMARK       I    between atoms: C_17  and  N_18 
REMARK    3  A    between atoms: N_18  and  C_19 
ROOT
HETATM    1  C   UNL     1      39.751 -10.789   3.110  1.00  0.00     0.070 C 
HETATM    2  C   UNL     1      40.015 -10.847   1.626  1.00  0.00     0.037 C 
HETATM    3  N   UNL     1      39.941  -9.629   0.954  1.00  0.00    -0.191 N 
HETATM    4  C   UNL     1      40.402  -9.464  -0.304  1.00  0.00     0.735 A 
HETATM    5  N   UNL     1      40.811 -10.556  -1.017  1.00  0.00    -0.092 N 
HETATM    6  N   UNL     1      41.303 -10.177  -2.207  1.00  0.00     0.012 NA
HETATM    7  N   UNL     1      41.149  -8.856  -2.224  1.00  0.00     0.033 NA
HETATM    8  N   UNL     1      40.589  -8.399  -1.046  1.00  0.00     0.030 NA
HETATM    9  C   UNL     1      40.755 -11.933  -0.531  1.00  0.00     0.198 C 
HETATM   10  C   UNL     1      40.382 -11.966   0.950  1.00  0.00     0.062 C 
HETATM   11  H   UNL     1      39.759  -8.797   1.511  1.00  0.00     0.184 HD
ENDROOT
BRANCH  10  12
HETATM   12  C   UNL     1      40.593 -13.291   1.591  1.00  0.00     0.257 C 
HETATM   13  N   UNL     1      41.909 -13.538   1.902  1.00  0.00    -0.308 N 
HETATM   14  H   UNL     1      42.585 -12.808   1.732  1.00  0.00     0.170 HD
HETATM   15  O   UNL     1      39.609 -13.984   1.813  1.00  0.00    -0.267 OA
BRANCH  13  16
HETATM   16  C   UNL     1      42.400 -14.739   2.433  1.00  0.00     0.129 A 
HETATM   17  N   UNL     1      42.438 -14.934   3.762  1.00  0.00    -0.243 NA
HETATM   18  C   UNL     1      42.901 -16.118   4.217  1.00  0.00     0.119 A 
HETATM   19  C   UNL     1      43.325 -17.145   3.394  1.00  0.00     0.019 A 
HETATM   20  C   UNL     1      43.276 -16.938   2.022  1.00  0.00     0.005 A 
HETATM   21  C   UNL     1      42.812 -15.717   1.534  1.00  0.00     0.050 A 
ENDBRANCH  13  16
ENDBRANCH  10  12
BRANCH   9  22
HETATM   22  C   UNL     1      39.790 -12.762  -1.375  1.00  0.00    -0.029 A 
HETATM   23  C   UNL     1      38.436 -12.390  -1.440  1.00  0.00     0.009 A 
HETATM   24  C   UNL     1      37.531 -13.126  -2.207  1.00  0.00     0.001 A 
HETATM   25  C   UNL     1      37.966 -14.237  -2.925  1.00  0.00     0.000 A 
HETATM   26  C   UNL     1      39.307 -14.610  -2.887  1.00  0.00     0.001 A 
HETATM   27  C   UNL     1      40.216 -13.874  -2.124  1.00  0.00     0.009 A 
ENDBRANCH   9  22
TORSDOF 3
ENDMDL
MODEL 8
REMARK VINA RESULT:      -7.1     15.152     16.961
REMARK  3 active torsions:
REMARK  status: ('A' for Active; 'I' for Inactive)
REMARK    1  A    between atoms: C_9  and  C_10 
REMARK    2  A    between atoms: C_16  and  C_17 
REMARK       I    between atoms: C_17  and  N_18 
REMARK    3  A    between atoms: N_18  and  C_19 
ROOT
HETATM    1  C   UNL     1      46.200 -32.891   1.936  1.00  0.00     0.070 C 
HETATM    2  C   UNL     1      45.295 -31.801   1.420  1.00  0.00     0.037 C 
HETATM    3  N   UNL     1      43.939 -31.967   1.691  1.00  0.00    -0.191 N 
HETATM    4  C   UNL     1      43.039 -30.972   1.536  1.00  0.00     0.735 A 
HETATM    5  N   UNL     1      43.428 -29.805   0.939  1.00  0.00    -0.092 N 
HETATM    6  N   UNL     1      42.417 -28.920   0.949  1.00  0.00     0.012 NA
HETATM    7  N   UNL     1      41.408 -29.575   1.514  1.00  0.00     0.033 NA
HETATM    8  N   UNL     1      41.781 -30.854   1.884  1.00  0.00     0.030 NA
HETATM    9  C   UNL     1      44.764 -29.549   0.407  1.00  0.00     0.198 C 
HETATM   10  C   UNL     1      45.722 -30.673   0.797  1.00  0.00     0.062 C 
HETATM   11  H   UNL     1      43.667 -32.776   2.245  1.00  0.00     0.184 HD
ENDROOT
BRANCH  10  12
HETATM   12  C   UNL     1      47.153 -30.350   0.554  1.00  0.00     0.257 C 
HETATM   13  N   UNL     1      47.736 -31.158  -0.393  1.00  0.00    -0.308 N 
HETATM   14  H   UNL     1      47.156 -31.834  -0.867  1.00  0.00     0.170 HD
HETATM   15  O   UNL     1      47.640 -29.405   1.161  1.00  0.00    -0.267 OA
BRANCH  13  16
HETATM   16  C   UNL     1      49.091 -31.130  -0.754  1.00  0.00     0.129 A 
HETATM   17  N   UNL     1      49.996 -31.851  -0.072  1.00  0.00    -0.243 NA
HETATM   18  C   UNL     1      51.283 -31.803  -0.477  1.00  0.00     0.119 A 
HETATM   19  C   UNL     1      51.720 -31.064  -1.561  1.00  0.00     0.019 A 
HETATM   20  C   UNL     1      50.778 -30.327  -2.265  1.00  0.00     0.005 A 
HETATM   21  C   UNL     1      49.445 -30.356  -1.855  1.00  0.00     0.050 A 
ENDBRANCH  13  16
ENDBRANCH  10  12
BRANCH   9  22
HETATM   22  C   UNL     1      44.711 -29.351  -1.106  1.00  0.00    -0.029 A 
HETATM   23  C   UNL     1      45.135 -28.129  -1.657  1.00  0.00     0.009 A 
HETATM   24  C   UNL     1      45.102 -27.920  -3.037  1.00  0.00     0.001 A 
HETATM   25  C   UNL     1      44.653 -28.930  -3.885  1.00  0.00     0.000 A 
HETATM   26  C   UNL     1      44.247 -30.153  -3.359  1.00  0.00     0.001 A 
HETATM   27  C   UNL     1      44.282 -30.367  -1.979  1.00  0.00     0.009 A 
ENDBRANCH   9  22
TORSDOF 3
ENDMDL
MODEL 9
REMARK VINA RESULT:      -6.8      2.861      6.225
REMARK  3 active torsions:
REMARK  status: ('A' for Active; 'I' for Inactive)
REMARK    1  A    between atoms: C_9  and  C_10 
REMARK    2  A    between atoms: C_16  and  C_17 
REMARK       I    between atoms: C_17  and  N_18 
REMARK    3  A    between atoms: N_18  and  C_19 
ROOT
HETATM    1  C   UNL     1      43.369 -12.049   7.062  1.00  0.00     0.070 C 
HETATM    2  C   UNL     1      43.085 -13.400   6.454  1.00  0.00     0.037 C 
HETATM    3  N   UNL     1      44.079 -14.360   6.632  1.00  0.00    -0.191 N 
HETATM    4  C   UNL     1      43.874 -15.672   6.387  1.00  0.00     0.735 A 
HETATM    5  N   UNL     1      42.710 -16.069   5.790  1.00  0.00    -0.092 N 
HETATM    6  N   UNL     1      42.665 -17.408   5.704  1.00  0.00     0.012 NA
HETATM    7  N   UNL     1      43.825 -17.812   6.212  1.00  0.00     0.033 NA
HETATM    8  N   UNL     1      44.588 -16.742   6.641  1.00  0.00     0.030 NA
HETATM    9  C   UNL     1      41.653 -15.162   5.348  1.00  0.00     0.198 C 
HETATM   10  C   UNL     1      41.926 -13.740   5.834  1.00  0.00     0.062 C 
HETATM   11  H   UNL     1      44.890 -14.097   7.186  1.00  0.00     0.184 HD
ENDROOT
BRANCH  10  12
HETATM   12  C   UNL     1      40.764 -12.823   5.687  1.00  0.00     0.257 C 
HETATM   13  N   UNL     1      40.909 -11.930   4.652  1.00  0.00    -0.308 N 
HETATM   14  H   UNL     1      41.728 -12.005   4.067  1.00  0.00     0.170 HD
HETATM   15  O   UNL     1      39.811 -12.978   6.438  1.00  0.00    -0.267 OA
BRANCH  13  16
HETATM   16  C   UNL     1      40.008 -10.902   4.342  1.00  0.00     0.129 A 
HETATM   17  N   UNL     1      39.960  -9.785   5.088  1.00  0.00    -0.243 NA
HETATM   18  C   UNL     1      39.088  -8.819   4.731  1.00  0.00     0.119 A 
HETATM   19  C   UNL     1      38.252  -8.907   3.633  1.00  0.00     0.019 A 
HETATM   20  C   UNL     1      38.312 -10.060   2.863  1.00  0.00     0.005 A 
HETATM   21  C   UNL     1      39.198 -11.074   3.223  1.00  0.00     0.050 A 
ENDBRANCH  13  16
ENDBRANCH  10  12
BRANCH   9  22
HETATM   22  C   UNL     1      41.495 -15.219   3.830  1.00  0.00    -0.029 A 
HETATM   23  C   UNL     1      42.565 -14.825   3.010  1.00  0.00     0.009 A 
HETATM   24  C   UNL     1      42.452 -14.871   1.619  1.00  0.00     0.001 A 
HETATM   25  C   UNL     1      41.273 -15.319   1.029  1.00  0.00     0.000 A 
HETATM   26  C   UNL     1      40.208 -15.731   1.827  1.00  0.00     0.001 A 
HETATM   27  C   UNL     1      40.319 -15.690   3.218  1.00  0.00     0.009 A 
ENDBRANCH   9  22
TORSDOF 3
ENDMDL
MODEL 10
REMARK VINA RESULT:      -6.8     14.686     17.720
REMARK  3 active torsions:
REMARK  status: ('A' for Active; 'I' for Inactive)
REMARK    1  A    between atoms: C_9  and  C_10 
REMARK    2  A    between atoms: C_16  and  C_17 
REMARK       I    between atoms: C_17  and  N_18 
REMARK    3  A    between atoms: N_18  and  C_19 
ROOT
HETATM    1  C   UNL     1      44.904 -27.758  -1.337  1.00  0.00     0.070 C 
HETATM    2  C   UNL     1      45.973 -28.531  -0.606  1.00  0.00     0.037 C 
HETATM    3  N   UNL     1      46.521 -27.894   0.505  1.00  0.00    -0.191 N 
HETATM    4  C   UNL     1      47.285 -28.542   1.411  1.00  0.00     0.735 A 
HETATM    5  N   UNL     1      47.678 -29.827   1.160  1.00  0.00    -0.092 N 
HETATM    6  N   UNL     1      48.360 -30.318   2.207  1.00  0.00     0.012 NA
HETATM    7  N   UNL     1      48.412 -29.308   3.071  1.00  0.00     0.033 NA
HETATM    8  N   UNL     1      47.747 -28.197   2.588  1.00  0.00     0.030 NA
HETATM    9  C   UNL     1      47.362 -30.568  -0.060  1.00  0.00     0.198 C 
HETATM   10  C   UNL     1      46.361 -29.795  -0.915  1.00  0.00     0.062 C 
HETATM   11  H   UNL     1      46.136 -26.989   0.764  1.00  0.00     0.184 HD
ENDROOT
BRANCH  10  12
HETATM   12  C   UNL     1      45.765 -30.600  -2.014  1.00  0.00     0.257 C 
HETATM   13  N   UNL     1      46.116 -30.150  -3.264  1.00  0.00    -0.308 N 
HETATM   14  H   UNL     1      46.767 -29.382  -3.331  1.00  0.00     0.170 HD
HETATM   15  O   UNL     1      45.088 -31.573  -1.711  1.00  0.00    -0.267 OA
BRANCH  13  16
HETATM   16  C   UNL     1      45.631 -30.669  -4.473  1.00  0.00     0.129 A 
HETATM   17  N   UNL     1      46.334 -31.589  -5.155  1.00  0.00    -0.243 NA
HETATM   18  C   UNL     1      45.808 -32.070  -6.302  1.00  0.00     0.119 A 
HETATM   19  C   UNL     1      44.582 -31.679  -6.808  1.00  0.00     0.019 A 
HETATM   20  C   UNL     1      43.858 -30.733  -6.094  1.00  0.00     0.005 A 
HETATM   21  C   UNL     1      44.390 -30.217  -4.913  1.00  0.00     0.050 A 
ENDBRANCH  13  16
ENDBRANCH  10  12
BRANCH   9  22
HETATM   22  C   UNL     1      48.637 -30.892  -0.836  1.00  0.00    -0.029 A 
HETATM   23  C   UNL     1      49.003 -32.235  -1.032  1.00  0.00     0.009 A 
HETATM   24  C   UNL     1      50.160 -32.563  -1.741  1.00  0.00     0.001 A 
HETATM   25  C   UNL     1      50.962 -31.555  -2.271  1.00  0.00     0.000 A 
HETATM   26  C   UNL     1      50.606 -30.220  -2.102  1.00  0.00     0.001 A 
HETATM   27  C   UNL     1      49.447 -29.888  -1.397  1.00  0.00     0.009 A 
ENDBRANCH   9  22
TORSDOF 3
ENDMDL
