MODEL 1
REMARK VINA RESULT:      -8.4      0.000      0.000
REMARK  4 active torsions:
REMARK  status: ('A' for Active; 'I' for Inactive)
REMARK    1  A    between atoms: C_6  and  C_7 
REMARK       I    between atoms: C_7  and  N_8 
REMARK    2  A    between atoms: N_8  and  C_9 
REMARK    3  A    between atoms: C_9  and  C_10 
REMARK    4  A    between atoms: C_19  and  O_20 
ROOT
HETATM    1  C   UNL     1      43.942 -15.559   6.243  1.00  0.00     0.078 C 
HETATM    2  C   UNL     1      43.795 -16.654   5.257  1.00  0.00     0.066 A 
HETATM    3  O   UNL     1      44.136 -17.895   5.693  1.00  0.00    -0.314 OA
HETATM    4  C   UNL     1      43.942 -18.751   4.658  1.00  0.00     0.087 A 
HETATM    5  C   UNL     1      43.470 -18.068   3.540  1.00  0.00     0.019 A 
HETATM    6  C   UNL     1      43.349 -16.695   3.942  1.00  0.00     0.074 A 
HETATM    7  C   UNL     1      44.188 -20.122   4.706  1.00  0.00     0.041 A 
HETATM    8  C   UNL     1      43.950 -20.846   3.535  1.00  0.00     0.039 A 
HETATM    9  C   UNL     1      43.497 -20.197   2.389  1.00  0.00     0.066 A 
HETATM   10  C   UNL     1      43.256 -18.817   2.365  1.00  0.00     0.052 A 
ENDROOT
BRANCH   6  11
HETATM   11  C   UNL     1      42.885 -15.517   3.223  1.00  0.00     0.255 C 
HETATM   12  N   UNL     1      41.579 -15.152   3.460  1.00  0.00    -0.353 N 
HETATM   13  H   UNL     1      41.078 -15.601   4.212  1.00  0.00     0.163 HD
HETATM   14  O   UNL     1      43.627 -14.854   2.503  1.00  0.00    -0.268 OA
BRANCH  12  15
HETATM   15  C   UNL     1      41.098 -13.880   2.974  1.00  0.00     0.161 C 
BRANCH  15  16
HETATM   16  C   UNL     1      40.746 -13.905   1.509  1.00  0.00    -0.041 A 
HETATM   17  C   UNL     1      40.088 -15.007   0.940  1.00  0.00     0.009 A 
HETATM   18  C   UNL     1      39.725 -14.999  -0.408  1.00  0.00     0.001 A 
HETATM   19  C   UNL     1      40.003 -13.887  -1.200  1.00  0.00     0.000 A 
HETATM   20  C   UNL     1      40.644 -12.782  -0.646  1.00  0.00     0.001 A 
HETATM   21  C   UNL     1      41.015 -12.791   0.701  1.00  0.00     0.009 A 
ENDBRANCH  15  16
ENDBRANCH  12  15
ENDBRANCH   6  11
BRANCH   9  22
HETATM   22  O   UNL     1      43.273 -20.888   1.234  1.00  0.00    -0.361 OA
HETATM   23  H   UNL     1      43.878 -20.562   0.549  1.00  0.00     0.217 HD
ENDBRANCH   9  22
TORSDOF 4
ENDMDL
MODEL 2
REMARK VINA RESULT:      -8.0      2.038      6.513
REMARK  4 active torsions:
REMARK  status: ('A' for Active; 'I' for Inactive)
REMARK    1  A    between atoms: C_6  and  C_7 
REMARK       I    between atoms: C_7  and  N_8 
REMARK    2  A    between atoms: N_8  and  C_9 
REMARK    3  A    between atoms: C_9  and  C_10 
REMARK    4  A    between atoms: C_19  and  O_20 
ROOT
HETATM    1  C   UNL     1      43.231 -12.043   3.946  1.00  0.00     0.078 C 
HETATM    2  C   UNL     1      42.404 -12.722   2.923  1.00  0.00     0.066 A 
HETATM    3  O   UNL     1      42.045 -11.965   1.853  1.00  0.00    -0.314 OA
HETATM    4  C   UNL     1      41.294 -12.749   1.040  1.00  0.00     0.087 A 
HETATM    5  C   UNL     1      41.161 -14.027   1.579  1.00  0.00     0.019 A 
HETATM    6  C   UNL     1      41.911 -14.015   2.803  1.00  0.00     0.074 A 
HETATM    7  C   UNL     1      40.728 -12.332  -0.164  1.00  0.00     0.041 A 
HETATM    8  C   UNL     1      39.966 -13.273  -0.861  1.00  0.00     0.039 A 
HETATM    9  C   UNL     1      39.792 -14.555  -0.345  1.00  0.00     0.066 A 
HETATM   10  C   UNL     1      40.371 -14.952   0.867  1.00  0.00     0.052 A 
ENDROOT
BRANCH   6  11
HETATM   11  C   UNL     1      42.168 -15.057   3.787  1.00  0.00     0.255 C 
HETATM   12  N   UNL     1      43.267 -15.850   3.543  1.00  0.00    -0.353 N 
HETATM   13  H   UNL     1      43.908 -15.577   2.812  1.00  0.00     0.163 HD
HETATM   14  O   UNL     1      41.487 -15.181   4.802  1.00  0.00    -0.268 OA
BRANCH  12  15
HETATM   15  C   UNL     1      43.731 -16.756   4.566  1.00  0.00     0.161 C 
BRANCH  15  16
HETATM   16  C   UNL     1      43.791 -18.188   4.101  1.00  0.00    -0.041 A 
HETATM   17  C   UNL     1      44.069 -19.231   4.999  1.00  0.00     0.009 A 
HETATM   18  C   UNL     1      44.076 -20.558   4.565  1.00  0.00     0.001 A 
HETATM   19  C   UNL     1      43.791 -20.860   3.236  1.00  0.00     0.000 A 
HETATM   20  C   UNL     1      43.501 -19.836   2.337  1.00  0.00     0.001 A 
HETATM   21  C   UNL     1      43.502 -18.508   2.767  1.00  0.00     0.009 A 
ENDBRANCH  15  16
ENDBRANCH  12  15
ENDBRANCH   6  11
BRANCH   9  22
HETATM   22  O   UNL     1      39.039 -15.482  -1.008  1.00  0.00    -0.361 OA
HETATM   23  H   UNL     1      38.970 -16.280  -0.460  1.00  0.00     0.217 HD
ENDBRANCH   9  22
TORSDOF 4
ENDMDL
MODEL 3
REMARK VINA RESULT:      -7.8      2.653      7.272
REMARK  4 active torsions:
REMARK  status: ('A' for Active; 'I' for Inactive)
REMARK    1  A    between atoms: C_6  and  C_7 
REMARK       I    between atoms: C_7  and  N_8 
REMARK    2  A    between atoms: N_8  and  C_9 
REMARK    3  A    between atoms: C_9  and  C_10 
REMARK    4  A    between atoms: C_19  and  O_20 
ROOT
HETATM    1  C   UNL     1      40.373 -15.812   1.718  1.00  0.00     0.078 C 
HETATM    2  C   UNL     1      40.329 -14.817   2.812  1.00  0.00     0.066 A 
HETATM    3  O   UNL     1      39.619 -13.686   2.557  1.00  0.00    -0.314 OA
HETATM    4  C   UNL     1      39.701 -12.903   3.662  1.00  0.00     0.087 A 
HETATM    5  C   UNL     1      40.467 -13.524   4.646  1.00  0.00     0.019 A 
HETATM    6  C   UNL     1      40.857 -14.792   4.097  1.00  0.00     0.074 A 
HETATM    7  C   UNL     1      39.108 -11.648   3.791  1.00  0.00     0.041 A 
HETATM    8  C   UNL     1      39.316 -10.974   4.997  1.00  0.00     0.039 A 
HETATM    9  C   UNL     1      40.093 -11.552   5.998  1.00  0.00     0.066 A 
HETATM   10  C   UNL     1      40.679 -12.815   5.846  1.00  0.00     0.052 A 
ENDROOT
BRANCH   6  11
HETATM   11  C   UNL     1      41.635 -15.886   4.656  1.00  0.00     0.255 C 
HETATM   12  N   UNL     1      42.928 -15.995   4.195  1.00  0.00    -0.353 N 
HETATM   13  H   UNL     1      43.309 -15.243   3.638  1.00  0.00     0.163 HD
HETATM   14  O   UNL     1      41.192 -16.627   5.530  1.00  0.00    -0.268 OA
BRANCH  12  15
HETATM   15  C   UNL     1      43.843 -16.900   4.849  1.00  0.00     0.161 C 
BRANCH  15  16
HETATM   16  C   UNL     1      43.854 -18.274   4.230  1.00  0.00    -0.041 A 
HETATM   17  C   UNL     1      44.084 -19.419   5.009  1.00  0.00     0.009 A 
HETATM   18  C   UNL     1      44.045 -20.690   4.432  1.00  0.00     0.001 A 
HETATM   19  C   UNL     1      43.763 -20.833   3.076  1.00  0.00     0.000 A 
HETATM   20  C   UNL     1      43.521 -19.707   2.293  1.00  0.00     0.001 A 
HETATM   21  C   UNL     1      43.568 -18.434   2.866  1.00  0.00     0.009 A 
ENDBRANCH  15  16
ENDBRANCH  12  15
ENDBRANCH   6  11
BRANCH   9  22
HETATM   22  O   UNL     1      40.316 -10.900   7.177  1.00  0.00    -0.361 OA
HETATM   23  H   UNL     1      40.913 -10.152   7.014  1.00  0.00     0.217 HD
ENDBRANCH   9  22
TORSDOF 4
ENDMDL
MODEL 4
REMARK VINA RESULT:      -7.8      1.780      3.084
REMARK  4 active torsions:
REMARK  status: ('A' for Active; 'I' for Inactive)
REMARK    1  A    between atoms: C_6  and  C_7 
REMARK       I    between atoms: C_7  and  N_8 
REMARK    2  A    between atoms: N_8  and  C_9 
REMARK    3  A    between atoms: C_9  and  C_10 
REMARK    4  A    between atoms: C_19  and  O_20 
ROOT
HETATM    1  C   UNL     1      43.924 -15.529   6.202  1.00  0.00     0.078 C 
HETATM    2  C   UNL     1      43.786 -16.637   5.229  1.00  0.00     0.066 A 
HETATM    3  O   UNL     1      44.136 -17.870   5.681  1.00  0.00    -0.314 OA
HETATM    4  C   UNL     1      43.950 -18.740   4.657  1.00  0.00     0.087 A 
HETATM    5  C   UNL     1      43.475 -18.074   3.529  1.00  0.00     0.019 A 
HETATM    6  C   UNL     1      43.342 -16.698   3.914  1.00  0.00     0.074 A 
HETATM    7  C   UNL     1      44.207 -20.109   4.722  1.00  0.00     0.041 A 
HETATM    8  C   UNL     1      43.976 -20.849   3.560  1.00  0.00     0.039 A 
HETATM    9  C   UNL     1      43.520 -20.217   2.405  1.00  0.00     0.066 A 
HETATM   10  C   UNL     1      43.268 -18.840   2.363  1.00  0.00     0.052 A 
ENDROOT
BRANCH   6  11
HETATM   11  C   UNL     1      42.870 -15.532   3.181  1.00  0.00     0.255 C 
HETATM   12  N   UNL     1      41.619 -15.076   3.530  1.00  0.00    -0.353 N 
HETATM   13  H   UNL     1      41.177 -15.454   4.355  1.00  0.00     0.163 HD
HETATM   14  O   UNL     1      43.566 -14.954   2.350  1.00  0.00    -0.268 OA
BRANCH  12  15
HETATM   15  C   UNL     1      41.160 -13.804   3.024  1.00  0.00     0.161 C 
BRANCH  15  16
HETATM   16  C   UNL     1      41.473 -12.656   3.949  1.00  0.00    -0.041 A 
HETATM   17  C   UNL     1      40.764 -12.475   5.147  1.00  0.00     0.009 A 
HETATM   18  C   UNL     1      41.093 -11.435   6.018  1.00  0.00     0.001 A 
HETATM   19  C   UNL     1      42.143 -10.572   5.709  1.00  0.00     0.000 A 
HETATM   20  C   UNL     1      42.863 -10.746   4.530  1.00  0.00     0.001 A 
HETATM   21  C   UNL     1      42.529 -11.781   3.654  1.00  0.00     0.009 A 
ENDBRANCH  15  16
ENDBRANCH  12  15
ENDBRANCH   6  11
BRANCH   9  22
HETATM   22  O   UNL     1      43.302 -20.924   1.258  1.00  0.00    -0.361 OA
HETATM   23  H   UNL     1      42.346 -20.972   1.095  1.00  0.00     0.217 HD
ENDBRANCH   9  22
TORSDOF 4
ENDMDL
MODEL 5
REMARK VINA RESULT:      -7.8      1.695      2.418
REMARK  4 active torsions:
REMARK  status: ('A' for Active; 'I' for Inactive)
REMARK    1  A    between atoms: C_6  and  C_7 
REMARK       I    between atoms: C_7  and  N_8 
REMARK    2  A    between atoms: N_8  and  C_9 
REMARK    3  A    between atoms: C_9  and  C_10 
REMARK    4  A    between atoms: C_19  and  O_20 
ROOT
HETATM    1  C   UNL     1      41.824 -14.094   4.688  1.00  0.00     0.078 C 
HETATM    2  C   UNL     1      42.183 -15.410   4.113  1.00  0.00     0.066 A 
HETATM    3  O   UNL     1      43.154 -16.099   4.768  1.00  0.00    -0.314 OA
HETATM    4  C   UNL     1      43.346 -17.261   4.095  1.00  0.00     0.087 A 
HETATM    5  C   UNL     1      42.496 -17.335   2.994  1.00  0.00     0.019 A 
HETATM    6  C   UNL     1      41.714 -16.131   3.022  1.00  0.00     0.074 A 
HETATM    7  C   UNL     1      44.271 -18.241   4.450  1.00  0.00     0.041 A 
HETATM    8  C   UNL     1      44.345 -19.366   3.626  1.00  0.00     0.039 A 
HETATM    9  C   UNL     1      43.526 -19.468   2.504  1.00  0.00     0.066 A 
HETATM   10  C   UNL     1      42.603 -18.471   2.166  1.00  0.00     0.052 A 
ENDROOT
BRANCH   6  11
HETATM   11  C   UNL     1      40.647 -15.653   2.155  1.00  0.00     0.255 C 
HETATM   12  N   UNL     1      41.052 -15.112   0.955  1.00  0.00    -0.353 N 
HETATM   13  H   UNL     1      42.016 -15.218   0.676  1.00  0.00     0.163 HD
HETATM   14  O   UNL     1      39.460 -15.782   2.444  1.00  0.00    -0.268 OA
BRANCH  12  15
HETATM   15  C   UNL     1      40.068 -14.820  -0.061  1.00  0.00     0.161 C 
BRANCH  15  16
HETATM   16  C   UNL     1      40.430 -13.623  -0.902  1.00  0.00    -0.041 A 
HETATM   17  C   UNL     1      40.371 -13.678  -2.304  1.00  0.00     0.009 A 
HETATM   18  C   UNL     1      40.663 -12.549  -3.072  1.00  0.00     0.001 A 
HETATM   19  C   UNL     1      41.003 -11.350  -2.449  1.00  0.00     0.000 A 
HETATM   20  C   UNL     1      41.054 -11.278  -1.059  1.00  0.00     0.001 A 
HETATM   21  C   UNL     1      40.770 -12.408  -0.290  1.00  0.00     0.009 A 
ENDBRANCH  15  16
ENDBRANCH  12  15
ENDBRANCH   6  11
BRANCH   9  22
HETATM   22  O   UNL     1      43.596 -20.556   1.681  1.00  0.00    -0.361 OA
HETATM   23  H   UNL     1      42.699 -20.791   1.394  1.00  0.00     0.217 HD
ENDBRANCH   9  22
TORSDOF 4
ENDMDL
MODEL 6
REMARK VINA RESULT:      -7.7      3.811      7.323
REMARK  4 active torsions:
REMARK  status: ('A' for Active; 'I' for Inactive)
REMARK    1  A    between atoms: C_6  and  C_7 
REMARK       I    between atoms: C_7  and  N_8 
REMARK    2  A    between atoms: N_8  and  C_9 
REMARK    3  A    between atoms: C_9  and  C_10 
REMARK    4  A    between atoms: C_19  and  O_20 
ROOT
HETATM    1  C   UNL     1      40.383 -11.895   5.579  1.00  0.00     0.078 C 
HETATM    2  C   UNL     1      41.805 -11.671   5.922  1.00  0.00     0.066 A 
HETATM    3  O   UNL     1      42.037 -10.937   7.042  1.00  0.00    -0.314 OA
HETATM    4  C   UNL     1      43.382 -10.836   7.185  1.00  0.00     0.087 A 
HETATM    5  C   UNL     1      44.035 -11.508   6.154  1.00  0.00     0.019 A 
HETATM    6  C   UNL     1      42.999 -12.078   5.340  1.00  0.00     0.074 A 
HETATM    7  C   UNL     1      44.021 -10.148   8.215  1.00  0.00     0.041 A 
HETATM    8  C   UNL     1      45.418 -10.132   8.190  1.00  0.00     0.039 A 
HETATM    9  C   UNL     1      46.108 -10.776   7.166  1.00  0.00     0.066 A 
HETATM   10  C   UNL     1      45.445 -11.461   6.141  1.00  0.00     0.052 A 
ENDROOT
BRANCH   6  11
HETATM   11  C   UNL     1      43.058 -12.907   4.146  1.00  0.00     0.255 C 
HETATM   12  N   UNL     1      42.837 -14.252   4.342  1.00  0.00    -0.353 N 
HETATM   13  H   UNL     1      42.497 -14.561   5.241  1.00  0.00     0.163 HD
HETATM   14  O   UNL     1      43.230 -12.432   3.026  1.00  0.00    -0.268 OA
BRANCH  12  15
HETATM   15  C   UNL     1      42.652 -15.116   3.200  1.00  0.00     0.161 C 
BRANCH  15  16
HETATM   16  C   UNL     1      43.148 -16.519   3.439  1.00  0.00    -0.041 A 
HETATM   17  C   UNL     1      43.132 -17.478   2.413  1.00  0.00     0.009 A 
HETATM   18  C   UNL     1      43.637 -18.761   2.632  1.00  0.00     0.001 A 
HETATM   19  C   UNL     1      44.176 -19.096   3.872  1.00  0.00     0.000 A 
HETATM   20  C   UNL     1      44.210 -18.152   4.895  1.00  0.00     0.001 A 
HETATM   21  C   UNL     1      43.698 -16.871   4.680  1.00  0.00     0.009 A 
ENDBRANCH  15  16
ENDBRANCH  12  15
ENDBRANCH   6  11
BRANCH   9  22
HETATM   22  O   UNL     1      47.473 -10.758   7.121  1.00  0.00    -0.361 OA
HETATM   23  H   UNL     1      47.817 -11.345   7.813  1.00  0.00     0.217 HD
ENDBRANCH   9  22
TORSDOF 4
ENDMDL
MODEL 7
REMARK VINA RESULT:      -7.6      3.921      7.088
REMARK  4 active torsions:
REMARK  status: ('A' for Active; 'I' for Inactive)
REMARK    1  A    between atoms: C_6  and  C_7 
REMARK       I    between atoms: C_7  and  N_8 
REMARK    2  A    between atoms: N_8  and  C_9 
REMARK    3  A    between atoms: C_9  and  C_10 
REMARK    4  A    between atoms: C_19  and  O_20 
ROOT
HETATM    1  C   UNL     1      40.162 -14.906   5.905  1.00  0.00     0.078 C 
HETATM    2  C   UNL     1      41.368 -14.074   6.115  1.00  0.00     0.066 A 
HETATM    3  O   UNL     1      41.171 -12.729   6.097  1.00  0.00    -0.314 OA
HETATM    4  C   UNL     1      42.379 -12.144   6.297  1.00  0.00     0.087 A 
HETATM    5  C   UNL     1      43.371 -13.109   6.449  1.00  0.00     0.019 A 
HETATM    6  C   UNL     1      42.702 -14.376   6.355  1.00  0.00     0.074 A 
HETATM    7  C   UNL     1      42.597 -10.768   6.338  1.00  0.00     0.041 A 
HETATM    8  C   UNL     1      43.913 -10.344   6.534  1.00  0.00     0.039 A 
HETATM    9  C   UNL     1      44.937 -11.278   6.670  1.00  0.00     0.066 A 
HETATM   10  C   UNL     1      44.695 -12.657   6.627  1.00  0.00     0.052 A 
ENDROOT
BRANCH   6  11
HETATM   11  C   UNL     1      43.200 -15.740   6.462  1.00  0.00     0.255 C 
HETATM   12  N   UNL     1      43.743 -16.268   5.312  1.00  0.00    -0.353 N 
HETATM   13  H   UNL     1      43.911 -15.653   4.529  1.00  0.00     0.163 HD
HETATM   14  O   UNL     1      43.196 -16.358   7.524  1.00  0.00    -0.268 OA
BRANCH  12  15
HETATM   15  C   UNL     1      44.461 -17.519   5.374  1.00  0.00     0.161 C 
BRANCH  15  16
HETATM   16  C   UNL     1      44.071 -18.476   4.278  1.00  0.00    -0.041 A 
HETATM   17  C   UNL     1      44.220 -19.863   4.439  1.00  0.00     0.009 A 
HETATM   18  C   UNL     1      43.812 -20.743   3.434  1.00  0.00     0.001 A 
HETATM   19  C   UNL     1      43.238 -20.249   2.265  1.00  0.00     0.000 A 
HETATM   20  C   UNL     1      43.072 -18.876   2.097  1.00  0.00     0.001 A 
HETATM   21  C   UNL     1      43.488 -17.995   3.097  1.00  0.00     0.009 A 
ENDBRANCH  15  16
ENDBRANCH  12  15
ENDBRANCH   6  11
BRANCH   9  22
HETATM   22  O   UNL     1      46.231 -10.880   6.850  1.00  0.00    -0.361 OA
HETATM   23  H   UNL     1      46.236  -9.966   7.177  1.00  0.00     0.217 HD
ENDBRANCH   9  22
TORSDOF 4
ENDMDL
MODEL 8
REMARK VINA RESULT:      -7.5      1.759      2.650
REMARK  4 active torsions:
REMARK  status: ('A' for Active; 'I' for Inactive)
REMARK    1  A    between atoms: C_6  and  C_7 
REMARK       I    between atoms: C_7  and  N_8 
REMARK    2  A    between atoms: N_8  and  C_9 
REMARK    3  A    between atoms: C_9  and  C_10 
REMARK    4  A    between atoms: C_19  and  O_20 
ROOT
HETATM    1  C   UNL     1      42.906 -14.710   5.396  1.00  0.00     0.078 C 
HETATM    2  C   UNL     1      43.030 -15.974   4.636  1.00  0.00     0.066 A 
HETATM    3  O   UNL     1      43.626 -17.005   5.293  1.00  0.00    -0.314 OA
HETATM    4  C   UNL     1      43.653 -18.061   4.441  1.00  0.00     0.087 A 
HETATM    5  C   UNL     1      43.071 -17.721   3.222  1.00  0.00     0.019 A 
HETATM    6  C   UNL     1      42.639 -16.359   3.360  1.00  0.00     0.074 A 
HETATM    7  C   UNL     1      44.195 -19.309   4.742  1.00  0.00     0.041 A 
HETATM    8  C   UNL     1      44.153 -20.274   3.733  1.00  0.00     0.039 A 
HETATM    9  C   UNL     1      43.598 -19.967   2.493  1.00  0.00     0.066 A 
HETATM   10  C   UNL     1      43.059 -18.706   2.212  1.00  0.00     0.052 A 
ENDROOT
BRANCH   6  11
HETATM   11  C   UNL     1      41.945 -15.469   2.440  1.00  0.00     0.255 C 
HETATM   12  N   UNL     1      40.583 -15.373   2.619  1.00  0.00    -0.353 N 
HETATM   13  H   UNL     1      40.173 -15.778   3.447  1.00  0.00     0.163 HD
HETATM   14  O   UNL     1      42.541 -14.799   1.601  1.00  0.00    -0.268 OA
BRANCH  12  15
HETATM   15  C   UNL     1      39.844 -14.354   1.911  1.00  0.00     0.161 C 
BRANCH  15  16
HETATM   16  C   UNL     1      39.613 -13.114   2.735  1.00  0.00    -0.041 A 
HETATM   17  C   UNL     1      39.118 -11.937   2.151  1.00  0.00     0.009 A 
HETATM   18  C   UNL     1      38.864 -10.809   2.934  1.00  0.00     0.001 A 
HETATM   19  C   UNL     1      39.088 -10.848   4.308  1.00  0.00     0.000 A 
HETATM   20  C   UNL     1      39.568 -12.012   4.902  1.00  0.00     0.001 A 
HETATM   21  C   UNL     1      39.830 -13.139   4.120  1.00  0.00     0.009 A 
ENDBRANCH  15  16
ENDBRANCH  12  15
ENDBRANCH   6  11
BRANCH   9  22
HETATM   22  O   UNL     1      43.562 -20.896   1.492  1.00  0.00    -0.361 OA
HETATM   23  H   UNL     1      43.584 -20.437   0.637  1.00  0.00     0.217 HD
ENDBRANCH   9  22
TORSDOF 4
ENDMDL
MODEL 9
REMARK VINA RESULT:      -7.5      2.846      7.383
REMARK  4 active torsions:
REMARK  status: ('A' for Active; 'I' for Inactive)
REMARK    1  A    between atoms: C_6  and  C_7 
REMARK       I    between atoms: C_7  and  N_8 
REMARK    2  A    between atoms: N_8  and  C_9 
REMARK    3  A    between atoms: C_9  and  C_10 
REMARK    4  A    between atoms: C_19  and  O_20 
ROOT
HETATM    1  C   UNL     1      40.096 -12.552   2.685  1.00  0.00     0.078 C 
HETATM    2  C   UNL     1      39.744 -12.917   1.294  1.00  0.00     0.066 A 
HETATM    3  O   UNL     1      39.038 -11.988   0.597  1.00  0.00    -0.314 OA
HETATM    4  C   UNL     1      38.807 -12.502  -0.637  1.00  0.00     0.087 A 
HETATM    5  C   UNL     1      39.366 -13.772  -0.750  1.00  0.00     0.019 A 
HETATM    6  C   UNL     1      40.004 -14.034   0.509  1.00  0.00     0.074 A 
HETATM    7  C   UNL     1      38.102 -11.851  -1.648  1.00  0.00     0.041 A 
HETATM    8  C   UNL     1      37.944 -12.543  -2.852  1.00  0.00     0.039 A 
HETATM    9  C   UNL     1      38.471 -13.824  -2.998  1.00  0.00     0.066 A 
HETATM   10  C   UNL     1      39.177 -14.458  -1.968  1.00  0.00     0.052 A 
ENDROOT
BRANCH   6  11
HETATM   11  C   UNL     1      40.772 -15.176   0.982  1.00  0.00     0.255 C 
HETATM   12  N   UNL     1      42.141 -15.025   0.955  1.00  0.00    -0.353 N 
HETATM   13  H   UNL     1      42.524 -14.110   0.771  1.00  0.00     0.163 HD
HETATM   14  O   UNL     1      40.237 -16.183   1.437  1.00  0.00    -0.268 OA
BRANCH  12  15
HETATM   15  C   UNL     1      42.977 -16.005   1.608  1.00  0.00     0.161 C 
BRANCH  15  16
HETATM   16  C   UNL     1      43.148 -15.742   3.082  1.00  0.00    -0.041 A 
HETATM   17  C   UNL     1      42.940 -14.462   3.620  1.00  0.00     0.009 A 
HETATM   18  C   UNL     1      43.057 -14.241   4.994  1.00  0.00     0.001 A 
HETATM   19  C   UNL     1      43.368 -15.298   5.847  1.00  0.00     0.000 A 
HETATM   20  C   UNL     1      43.566 -16.575   5.329  1.00  0.00     0.001 A 
HETATM   21  C   UNL     1      43.458 -16.796   3.954  1.00  0.00     0.009 A 
ENDBRANCH  15  16
ENDBRANCH  12  15
ENDBRANCH   6  11
BRANCH   9  22
HETATM   22  O   UNL     1      38.314 -14.518  -4.164  1.00  0.00    -0.361 OA
HETATM   23  H   UNL     1      38.308 -15.468  -3.965  1.00  0.00     0.217 HD
ENDBRANCH   9  22
TORSDOF 4
ENDMDL
MODEL 10
REMARK VINA RESULT:      -7.4      2.551      4.686
REMARK  4 active torsions:
REMARK  status: ('A' for Active; 'I' for Inactive)
REMARK    1  A    between atoms: C_6  and  C_7 
REMARK       I    between atoms: C_7  and  N_8 
REMARK    2  A    between atoms: N_8  and  C_9 
REMARK    3  A    between atoms: C_9  and  C_10 
REMARK    4  A    between atoms: C_19  and  O_20 
ROOT
HETATM    1  C   UNL     1      42.930 -15.114   2.339  1.00  0.00     0.078 C 
HETATM    2  C   UNL     1      43.229 -16.443   2.919  1.00  0.00     0.066 A 
HETATM    3  O   UNL     1      43.257 -17.480   2.041  1.00  0.00    -0.314 OA
HETATM    4  C   UNL     1      43.535 -18.601   2.753  1.00  0.00     0.087 A 
HETATM    5  C   UNL     1      43.692 -18.297   4.103  1.00  0.00     0.019 A 
HETATM    6  C   UNL     1      43.516 -16.876   4.207  1.00  0.00     0.074 A 
HETATM    7  C   UNL     1      43.642 -19.880   2.209  1.00  0.00     0.041 A 
HETATM    8  C   UNL     1      43.915 -20.922   3.099  1.00  0.00     0.039 A 
HETATM    9  C   UNL     1      44.059 -20.662   4.460  1.00  0.00     0.066 A 
HETATM   10  C   UNL     1      43.948 -19.368   4.984  1.00  0.00     0.052 A 
ENDROOT
BRANCH   6  11
HETATM   11  C   UNL     1      43.590 -15.976   5.349  1.00  0.00     0.255 C 
HETATM   12  N   UNL     1      42.491 -15.169   5.543  1.00  0.00    -0.353 N 
HETATM   13  H   UNL     1      41.656 -15.349   5.004  1.00  0.00     0.163 HD
HETATM   14  O   UNL     1      44.540 -15.980   6.127  1.00  0.00    -0.268 OA
BRANCH  12  15
HETATM   15  C   UNL     1      42.373 -14.411   6.766  1.00  0.00     0.161 C 
BRANCH  15  16
HETATM   16  C   UNL     1      42.829 -12.982   6.618  1.00  0.00    -0.041 A 
HETATM   17  C   UNL     1      44.116 -12.587   7.016  1.00  0.00     0.009 A 
HETATM   18  C   UNL     1      44.543 -11.270   6.831  1.00  0.00     0.001 A 
HETATM   19  C   UNL     1      43.696 -10.339   6.236  1.00  0.00     0.000 A 
HETATM   20  C   UNL     1      42.421 -10.720   5.826  1.00  0.00     0.001 A 
HETATM   21  C   UNL     1      41.989 -12.034   6.017  1.00  0.00     0.009 A 
ENDBRANCH  15  16
ENDBRANCH  12  15
ENDBRANCH   6  11
BRANCH   9  22
HETATM   22  O   UNL     1      44.312 -21.671   5.344  1.00  0.00    -0.361 OA
HETATM   23  H   UNL     1      45.074 -21.424   5.892  1.00  0.00     0.217 HD
ENDBRANCH   9  22
TORSDOF 4
ENDMDL
