MODEL 1
REMARK VINA RESULT:      -7.7      0.000      0.000
REMARK  6 active torsions:
REMARK  status: ('A' for Active; 'I' for Inactive)
REMARK    1  A    between atoms: C_2  and  C_3 
REMARK    2  A    between atoms: C_3  and  N_4 
REMARK    3  A    between atoms: C_3  and  C_17 
REMARK    4  A    between atoms: N_4  and  C_5 
REMARK    5  A    between atoms: C_5  and  C_6 
REMARK       I    between atoms: C_6  and  N_7 
REMARK    6  A    between atoms: N_7  and  C_8 
ROOT
HETATM    1  N   UNL     1      41.326 -15.827   2.771  1.00  0.00     0.101 N 
HETATM    2  H   UNL     1      41.536 -14.848   2.970  1.00  0.00     0.317 HD
ENDROOT
BRANCH   1   3
HETATM    3  C   UNL     1      42.469 -16.412   2.037  1.00  0.00     0.256 C 
BRANCH   3   4
HETATM    4  C   UNL     1      43.548 -15.364   1.655  1.00  0.00     0.036 C 
HETATM    5  C   UNL     1      43.340 -13.967   2.232  1.00  0.00     0.007 C 
ENDBRANCH   3   4
BRANCH   3   6
HETATM    6  C   UNL     1      43.089 -17.585   2.790  1.00  0.00     0.013 A 
HETATM    7  C   UNL     1      43.586 -17.370   4.087  1.00  0.00     0.127 A 
HETATM    8  F   UNL     1      43.523 -16.144   4.628  1.00  0.00    -0.205 F 
HETATM    9  C   UNL     1      44.141 -18.396   4.843  1.00  0.00     0.085 A 
HETATM   10  C   UNL     1      44.212 -19.666   4.295  1.00  0.00     0.119 A 
HETATM   11  F   UNL     1      44.744 -20.667   5.010  1.00  0.00    -0.206 F 
HETATM   12  C   UNL     1      43.736 -19.921   3.014  1.00  0.00     0.043 A 
HETATM   13  C   UNL     1      43.173 -18.885   2.262  1.00  0.00     0.015 A 
ENDBRANCH   3   6
ENDBRANCH   1   3
BRANCH   1  14
HETATM   14  C   UNL     1      40.080 -15.868   1.969  1.00  0.00     0.372 C 
BRANCH  14  15
HETATM   15  C   UNL     1      39.875 -14.539   1.224  1.00  0.00     0.250 C 
HETATM   16  N   UNL     1      40.196 -14.637  -0.113  1.00  0.00    -0.322 N 
HETATM   17  H   UNL     1      40.577 -15.537  -0.391  1.00  0.00     0.169 HD
HETATM   18  O   UNL     1      39.506 -13.538   1.827  1.00  0.00    -0.271 OA
BRANCH  16  19
HETATM   19  C   UNL     1      40.060 -13.672  -1.092  1.00  0.00     0.085 A 
HETATM   20  C   UNL     1      40.478 -12.313  -1.206  1.00  0.00     0.079 A 
HETATM   21  C   UNL     1      41.216 -11.446  -0.253  1.00  0.00     0.075 C 
HETATM   22  N   UNL     1      40.085 -11.777  -2.372  1.00  0.00    -0.177 NA
HETATM   23  N   UNL     1      39.434 -12.766  -2.989  1.00  0.00    -0.280 N 
HETATM   24  H   UNL     1      39.048 -12.580  -3.908  1.00  0.00     0.189 HD
HETATM   25  C   UNL     1      39.376 -13.924  -2.268  1.00  0.00     0.052 A 
HETATM   26  C   UNL     1      38.687 -15.129  -2.785  1.00  0.00     0.072 C 
ENDBRANCH  16  19
ENDBRANCH  14  15
ENDBRANCH   1  14
TORSDOF 6
ENDMDL
MODEL 2
REMARK VINA RESULT:      -7.6      1.974      2.821
REMARK  6 active torsions:
REMARK  status: ('A' for Active; 'I' for Inactive)
REMARK    1  A    between atoms: C_2  and  C_3 
REMARK    2  A    between atoms: C_3  and  N_4 
REMARK    3  A    between atoms: C_3  and  C_17 
REMARK    4  A    between atoms: N_4  and  C_5 
REMARK    5  A    between atoms: C_5  and  C_6 
REMARK       I    between atoms: C_6  and  N_7 
REMARK    6  A    between atoms: N_7  and  C_8 
ROOT
HETATM    1  N   UNL     1      42.931 -14.150   4.171  1.00  0.00     0.101 N 
HETATM    2  H   UNL     1      42.755 -14.474   3.219  1.00  0.00     0.317 HD
ENDROOT
BRANCH   1   3
HETATM    3  C   UNL     1      43.135 -15.330   5.038  1.00  0.00     0.256 C 
BRANCH   3   4
HETATM    4  C   UNL     1      41.988 -15.541   6.061  1.00  0.00     0.036 C 
HETATM    5  C   UNL     1      42.425 -15.687   7.516  1.00  0.00     0.007 C 
ENDBRANCH   3   4
BRANCH   3   6
HETATM    6  C   UNL     1      43.383 -16.597   4.225  1.00  0.00     0.013 A 
HETATM    7  C   UNL     1      44.216 -17.594   4.763  1.00  0.00     0.127 A 
HETATM    8  F   UNL     1      44.787 -17.407   5.962  1.00  0.00    -0.205 F 
HETATM    9  C   UNL     1      44.467 -18.785   4.092  1.00  0.00     0.085 A 
HETATM   10  C   UNL     1      43.884 -18.989   2.852  1.00  0.00     0.119 A 
HETATM   11  F   UNL     1      44.116 -20.131   2.192  1.00  0.00    -0.206 F 
HETATM   12  C   UNL     1      43.057 -18.027   2.282  1.00  0.00     0.043 A 
HETATM   13  C   UNL     1      42.804 -16.834   2.966  1.00  0.00     0.015 A 
ENDBRANCH   3   6
ENDBRANCH   1   3
BRANCH   1  14
HETATM   14  C   UNL     1      41.759 -13.349   4.599  1.00  0.00     0.372 C 
BRANCH  14  15
HETATM   15  C   UNL     1      40.765 -13.186   3.439  1.00  0.00     0.250 C 
HETATM   16  N   UNL     1      41.312 -13.554   2.228  1.00  0.00    -0.322 N 
HETATM   17  H   UNL     1      42.295 -13.811   2.270  1.00  0.00     0.169 HD
HETATM   18  O   UNL     1      39.644 -12.734   3.638  1.00  0.00    -0.271 OA
BRANCH  16  19
HETATM   19  C   UNL     1      40.690 -13.612   0.996  1.00  0.00     0.085 A 
HETATM   20  C   UNL     1      40.528 -12.682  -0.074  1.00  0.00     0.079 A 
HETATM   21  C   UNL     1      40.982 -11.276  -0.209  1.00  0.00     0.075 C 
HETATM   22  N   UNL     1      39.814 -13.214  -1.079  1.00  0.00    -0.177 NA
HETATM   23  N   UNL     1      39.528 -14.451  -0.664  1.00  0.00    -0.280 N 
HETATM   24  H   UNL     1      38.988 -15.046  -1.282  1.00  0.00     0.189 HD
HETATM   25  C   UNL     1      40.017 -14.745   0.577  1.00  0.00     0.052 A 
HETATM   26  C   UNL     1      39.793 -16.066   1.208  1.00  0.00     0.072 C 
ENDBRANCH  16  19
ENDBRANCH  14  15
ENDBRANCH   1  14
TORSDOF 6
ENDMDL
MODEL 3
REMARK VINA RESULT:      -7.5      2.018      2.948
REMARK  6 active torsions:
REMARK  status: ('A' for Active; 'I' for Inactive)
REMARK    1  A    between atoms: C_2  and  C_3 
REMARK    2  A    between atoms: C_3  and  N_4 
REMARK    3  A    between atoms: C_3  and  C_17 
REMARK    4  A    between atoms: N_4  and  C_5 
REMARK    5  A    between atoms: C_5  and  C_6 
REMARK       I    between atoms: C_6  and  N_7 
REMARK    6  A    between atoms: N_7  and  C_8 
ROOT
HETATM    1  N   UNL     1      40.901 -15.709   2.539  1.00  0.00     0.101 N 
HETATM    2  H   UNL     1      40.835 -14.905   3.165  1.00  0.00     0.317 HD
ENDROOT
BRANCH   1   3
HETATM    3  C   UNL     1      41.723 -16.748   3.195  1.00  0.00     0.256 C 
BRANCH   3   4
HETATM    4  C   UNL     1      42.953 -17.175   2.352  1.00  0.00     0.036 C 
HETATM    5  C   UNL     1      43.199 -18.679   2.266  1.00  0.00     0.007 C 
ENDBRANCH   3   4
BRANCH   3   6
HETATM    6  C   UNL     1      42.141 -16.337   4.603  1.00  0.00     0.013 A 
HETATM    7  C   UNL     1      41.173 -16.330   5.623  1.00  0.00     0.127 A 
HETATM    8  F   UNL     1      39.906 -16.665   5.337  1.00  0.00    -0.205 F 
HETATM    9  C   UNL     1      41.486 -15.992   6.934  1.00  0.00     0.085 A 
HETATM   10  C   UNL     1      42.791 -15.643   7.241  1.00  0.00     0.119 A 
HETATM   11  F   UNL     1      43.109 -15.314   8.500  1.00  0.00    -0.206 F 
HETATM   12  C   UNL     1      43.779 -15.632   6.262  1.00  0.00     0.043 A 
HETATM   13  C   UNL     1      43.457 -15.980   4.946  1.00  0.00     0.015 A 
ENDBRANCH   3   6
ENDBRANCH   1   3
BRANCH   1  14
HETATM   14  C   UNL     1      41.512 -15.243   1.271  1.00  0.00     0.372 C 
BRANCH  14  15
HETATM   15  C   UNL     1      40.622 -14.186   0.600  1.00  0.00     0.250 C 
HETATM   16  N   UNL     1      40.893 -14.054  -0.745  1.00  0.00    -0.322 N 
HETATM   17  H   UNL     1      41.672 -14.617  -1.076  1.00  0.00     0.169 HD
HETATM   18  O   UNL     1      39.813 -13.543   1.259  1.00  0.00    -0.271 OA
BRANCH  16  19
HETATM   19  C   UNL     1      40.240 -13.263  -1.671  1.00  0.00     0.085 A 
HETATM   20  C   UNL     1      40.293 -11.876  -1.999  1.00  0.00     0.079 A 
HETATM   21  C   UNL     1      41.094 -10.774  -1.410  1.00  0.00     0.075 C 
HETATM   22  N   UNL     1      39.435 -11.574  -2.986  1.00  0.00    -0.177 NA
HETATM   23  N   UNL     1      38.849 -12.737  -3.283  1.00  0.00    -0.280 N 
HETATM   24  H   UNL     1      38.153 -12.743  -4.021  1.00  0.00     0.189 HD
HETATM   25  C   UNL     1      39.281 -13.785  -2.522  1.00  0.00     0.052 A 
HETATM   26  C   UNL     1      38.740 -15.151  -2.700  1.00  0.00     0.072 C 
ENDBRANCH  16  19
ENDBRANCH  14  15
ENDBRANCH   1  14
TORSDOF 6
ENDMDL
MODEL 4
REMARK VINA RESULT:      -7.5      4.269      6.596
REMARK  6 active torsions:
REMARK  status: ('A' for Active; 'I' for Inactive)
REMARK    1  A    between atoms: C_2  and  C_3 
REMARK    2  A    between atoms: C_3  and  N_4 
REMARK    3  A    between atoms: C_3  and  C_17 
REMARK    4  A    between atoms: N_4  and  C_5 
REMARK    5  A    between atoms: C_5  and  C_6 
REMARK       I    between atoms: C_6  and  N_7 
REMARK    6  A    between atoms: N_7  and  C_8 
ROOT
HETATM    1  N   UNL     1      42.976 -17.442   5.009  1.00  0.00     0.101 N 
HETATM    2  H   UNL     1      42.897 -18.458   5.075  1.00  0.00     0.317 HD
ENDROOT
BRANCH   1   3
HETATM    3  C   UNL     1      43.429 -17.095   3.645  1.00  0.00     0.256 C 
BRANCH   3   4
HETATM    4  C   UNL     1      43.968 -18.315   2.852  1.00  0.00     0.036 C 
HETATM    5  C   UNL     1      42.905 -19.269   2.312  1.00  0.00     0.007 C 
ENDBRANCH   3   4
BRANCH   3   6
HETATM    6  C   UNL     1      42.347 -16.365   2.855  1.00  0.00     0.013 A 
HETATM    7  C   UNL     1      42.721 -15.618   1.725  1.00  0.00     0.127 A 
HETATM    8  F   UNL     1      44.014 -15.546   1.375  1.00  0.00    -0.205 F 
HETATM    9  C   UNL     1      41.789 -14.947   0.942  1.00  0.00     0.085 A 
HETATM   10  C   UNL     1      40.451 -15.013   1.294  1.00  0.00     0.119 A 
HETATM   11  F   UNL     1      39.539 -14.373   0.550  1.00  0.00    -0.206 F 
HETATM   12  C   UNL     1      40.037 -15.738   2.406  1.00  0.00     0.043 A 
HETATM   13  C   UNL     1      40.981 -16.415   3.185  1.00  0.00     0.015 A 
ENDBRANCH   3   6
ENDBRANCH   1   3
BRANCH   1  14
HETATM   14  C   UNL     1      43.945 -16.997   6.039  1.00  0.00     0.372 C 
BRANCH  14  15
HETATM   15  C   UNL     1      43.438 -15.729   6.744  1.00  0.00     0.250 C 
HETATM   16  N   UNL     1      43.462 -14.628   5.916  1.00  0.00    -0.322 N 
HETATM   17  H   UNL     1      43.866 -14.798   4.999  1.00  0.00     0.169 HD
HETATM   18  O   UNL     1      43.107 -15.762   7.923  1.00  0.00    -0.271 OA
BRANCH  16  19
HETATM   19  C   UNL     1      43.009 -13.351   6.186  1.00  0.00     0.085 A 
HETATM   20  C   UNL     1      43.647 -12.138   6.579  1.00  0.00     0.079 A 
HETATM   21  C   UNL     1      45.076 -11.844   6.857  1.00  0.00     0.075 C 
HETATM   22  N   UNL     1      42.757 -11.145   6.737  1.00  0.00    -0.177 NA
HETATM   23  N   UNL     1      41.580 -11.708   6.452  1.00  0.00    -0.280 N 
HETATM   24  H   UNL     1      40.751 -11.126   6.504  1.00  0.00     0.189 HD
HETATM   25  C   UNL     1      41.664 -13.031   6.125  1.00  0.00     0.052 A 
HETATM   26  C   UNL     1      40.462 -13.826   5.786  1.00  0.00     0.072 C 
ENDBRANCH  16  19
ENDBRANCH  14  15
ENDBRANCH   1  14
TORSDOF 6
ENDMDL
MODEL 5
REMARK VINA RESULT:      -7.5      1.626      1.958
REMARK  6 active torsions:
REMARK  status: ('A' for Active; 'I' for Inactive)
REMARK    1  A    between atoms: C_2  and  C_3 
REMARK    2  A    between atoms: C_3  and  N_4 
REMARK    3  A    between atoms: C_3  and  C_17 
REMARK    4  A    between atoms: N_4  and  C_5 
REMARK    5  A    between atoms: C_5  and  C_6 
REMARK       I    between atoms: C_6  and  N_7 
REMARK    6  A    between atoms: N_7  and  C_8 
ROOT
HETATM    1  N   UNL     1      42.647 -15.373   1.493  1.00  0.00     0.101 N 
HETATM    2  H   UNL     1      41.979 -16.055   1.130  1.00  0.00     0.317 HD
ENDROOT
BRANCH   1   3
HETATM    3  C   UNL     1      43.010 -15.760   2.873  1.00  0.00     0.256 C 
BRANCH   3   4
HETATM    4  C   UNL     1      41.961 -15.316   3.927  1.00  0.00     0.036 C 
HETATM    5  C   UNL     1      40.697 -16.169   3.994  1.00  0.00     0.007 C 
ENDBRANCH   3   4
BRANCH   3   6
HETATM    6  C   UNL     1      43.301 -17.253   2.988  1.00  0.00     0.013 A 
HETATM    7  C   UNL     1      44.018 -17.720   4.103  1.00  0.00     0.127 A 
HETATM    8  F   UNL     1      44.444 -16.849   5.030  1.00  0.00    -0.205 F 
HETATM    9  C   UNL     1      44.299 -19.068   4.288  1.00  0.00     0.085 A 
HETATM   10  C   UNL     1      43.865 -19.977   3.337  1.00  0.00     0.119 A 
HETATM   11  F   UNL     1      44.127 -21.281   3.499  1.00  0.00    -0.206 F 
HETATM   12  C   UNL     1      43.157 -19.558   2.216  1.00  0.00     0.043 A 
HETATM   13  C   UNL     1      42.872 -18.200   2.041  1.00  0.00     0.015 A 
ENDBRANCH   3   6
ENDBRANCH   1   3
BRANCH   1  14
HETATM   14  C   UNL     1      42.000 -14.040   1.448  1.00  0.00     0.372 C 
BRANCH  14  15
HETATM   15  C   UNL     1      40.723 -14.090   0.594  1.00  0.00     0.250 C 
HETATM   16  N   UNL     1      40.469 -12.890  -0.035  1.00  0.00    -0.322 N 
HETATM   17  H   UNL     1      41.115 -12.143   0.206  1.00  0.00     0.169 HD
HETATM   18  O   UNL     1      40.036 -15.104   0.559  1.00  0.00    -0.271 OA
BRANCH  16  19
HETATM   19  C   UNL     1      39.462 -12.597  -0.934  1.00  0.00     0.085 A 
HETATM   20  C   UNL     1      38.192 -11.959  -0.822  1.00  0.00     0.079 A 
HETATM   21  C   UNL     1      37.498 -11.388   0.360  1.00  0.00     0.075 C 
HETATM   22  N   UNL     1      37.556 -11.925  -2.004  1.00  0.00    -0.177 NA
HETATM   23  N   UNL     1      38.396 -12.525  -2.849  1.00  0.00    -0.280 N 
HETATM   24  H   UNL     1      38.114 -12.608  -3.820  1.00  0.00     0.189 HD
HETATM   25  C   UNL     1      39.552 -12.960  -2.266  1.00  0.00     0.052 A 
HETATM   26  C   UNL     1      40.601 -13.657  -3.044  1.00  0.00     0.072 C 
ENDBRANCH  16  19
ENDBRANCH  14  15
ENDBRANCH   1  14
TORSDOF 6
ENDMDL
MODEL 6
REMARK VINA RESULT:      -7.5      1.759      2.616
REMARK  6 active torsions:
REMARK  status: ('A' for Active; 'I' for Inactive)
REMARK    1  A    between atoms: C_2  and  C_3 
REMARK    2  A    between atoms: C_3  and  N_4 
REMARK    3  A    between atoms: C_3  and  C_17 
REMARK    4  A    between atoms: N_4  and  C_5 
REMARK    5  A    between atoms: C_5  and  C_6 
REMARK       I    between atoms: C_6  and  N_7 
REMARK    6  A    between atoms: N_7  and  C_8 
ROOT
HETATM    1  N   UNL     1      42.988 -15.564   1.940  1.00  0.00     0.101 N 
HETATM    2  H   UNL     1      42.141 -15.484   1.376  1.00  0.00     0.317 HD
ENDROOT
BRANCH   1   3
HETATM    3  C   UNL     1      42.647 -16.253   3.203  1.00  0.00     0.256 C 
BRANCH   3   4
HETATM    4  C   UNL     1      41.147 -16.131   3.579  1.00  0.00     0.036 C 
HETATM    5  C   UNL     1      40.846 -16.094   5.074  1.00  0.00     0.007 C 
ENDBRANCH   3   4
BRANCH   3   6
HETATM    6  C   UNL     1      43.092 -17.713   3.194  1.00  0.00     0.013 A 
HETATM    7  C   UNL     1      43.778 -18.219   4.312  1.00  0.00     0.127 A 
HETATM    8  F   UNL     1      44.042 -17.412   5.350  1.00  0.00    -0.205 F 
HETATM    9  C   UNL     1      44.191 -19.544   4.385  1.00  0.00     0.085 A 
HETATM   10  C   UNL     1      43.924 -20.387   3.319  1.00  0.00     0.119 A 
HETATM   11  F   UNL     1      44.316 -21.667   3.373  1.00  0.00    -0.206 F 
HETATM   12  C   UNL     1      43.252 -19.926   2.192  1.00  0.00     0.043 A 
HETATM   13  C   UNL     1      42.834 -18.593   2.128  1.00  0.00     0.015 A 
ENDBRANCH   3   6
ENDBRANCH   1   3
BRANCH   1  14
HETATM   14  C   UNL     1      43.500 -14.194   2.182  1.00  0.00     0.372 C 
BRANCH  14  15
HETATM   15  C   UNL     1      42.429 -13.150   1.830  1.00  0.00     0.250 C 
HETATM   16  N   UNL     1      41.517 -13.626   0.914  1.00  0.00    -0.322 N 
HETATM   17  H   UNL     1      41.720 -14.558   0.562  1.00  0.00     0.169 HD
HETATM   18  O   UNL     1      42.472 -12.026   2.317  1.00  0.00    -0.271 OA
BRANCH  16  19
HETATM   19  C   UNL     1      40.385 -12.996   0.433  1.00  0.00     0.085 A 
HETATM   20  C   UNL     1      40.015 -12.462  -0.836  1.00  0.00     0.079 A 
HETATM   21  C   UNL     1      40.771 -12.390  -2.112  1.00  0.00     0.075 C 
HETATM   22  N   UNL     1      38.786 -11.923  -0.800  1.00  0.00    -0.177 NA
HETATM   23  N   UNL     1      38.380 -12.109   0.458  1.00  0.00    -0.280 N 
HETATM   24  H   UNL     1      37.456 -11.776   0.713  1.00  0.00     0.189 HD
HETATM   25  C   UNL     1      39.299 -12.737   1.249  1.00  0.00     0.052 A 
HETATM   26  C   UNL     1      39.030 -13.021   2.677  1.00  0.00     0.072 C 
ENDBRANCH  16  19
ENDBRANCH  14  15
ENDBRANCH   1  14
TORSDOF 6
ENDMDL
MODEL 7
REMARK VINA RESULT:      -7.4      3.443      5.490
REMARK  6 active torsions:
REMARK  status: ('A' for Active; 'I' for Inactive)
REMARK    1  A    between atoms: C_2  and  C_3 
REMARK    2  A    between atoms: C_3  and  N_4 
REMARK    3  A    between atoms: C_3  and  C_17 
REMARK    4  A    between atoms: N_4  and  C_5 
REMARK    5  A    between atoms: C_5  and  C_6 
REMARK       I    between atoms: C_6  and  N_7 
REMARK    6  A    between atoms: N_7  and  C_8 
ROOT
HETATM    1  N   UNL     1      42.631 -15.261   2.209  1.00  0.00     0.101 N 
HETATM    2  H   UNL     1      42.227 -15.765   1.417  1.00  0.00     0.317 HD
ENDROOT
BRANCH   1   3
HETATM    3  C   UNL     1      42.412 -16.061   3.433  1.00  0.00     0.256 C 
BRANCH   3   4
HETATM    4  C   UNL     1      40.935 -16.057   3.908  1.00  0.00     0.036 C 
HETATM    5  C   UNL     1      40.732 -16.134   5.419  1.00  0.00     0.007 C 
ENDBRANCH   3   4
BRANCH   3   6
HETATM    6  C   UNL     1      42.935 -17.486   3.283  1.00  0.00     0.013 A 
HETATM    7  C   UNL     1      43.730 -18.028   4.309  1.00  0.00     0.127 A 
HETATM    8  F   UNL     1      44.026 -17.281   5.383  1.00  0.00    -0.205 F 
HETATM    9  C   UNL     1      44.220 -19.327   4.253  1.00  0.00     0.085 A 
HETATM   10  C   UNL     1      43.921 -20.107   3.149  1.00  0.00     0.119 A 
HETATM   11  F   UNL     1      44.385 -21.362   3.079  1.00  0.00    -0.206 F 
HETATM   12  C   UNL     1      43.141 -19.610   2.110  1.00  0.00     0.043 A 
HETATM   13  C   UNL     1      42.647 -18.303   2.176  1.00  0.00     0.015 A 
ENDBRANCH   3   6
ENDBRANCH   1   3
BRANCH   1  14
HETATM   14  C   UNL     1      41.967 -13.939   2.289  1.00  0.00     0.372 C 
BRANCH  14  15
HETATM   15  C   UNL     1      42.731 -13.009   3.245  1.00  0.00     0.250 C 
HETATM   16  N   UNL     1      42.003 -12.715   4.378  1.00  0.00    -0.322 N 
HETATM   17  H   UNL     1      41.061 -13.094   4.385  1.00  0.00     0.169 HD
HETATM   18  O   UNL     1      43.840 -12.584   2.946  1.00  0.00    -0.271 OA
BRANCH  16  19
HETATM   19  C   UNL     1      42.403 -11.980   5.478  1.00  0.00     0.085 A 
HETATM   20  C   UNL     1      42.297 -10.604   5.839  1.00  0.00     0.079 A 
HETATM   21  C   UNL     1      41.711  -9.455   5.105  1.00  0.00     0.075 C 
HETATM   22  N   UNL     1      42.866 -10.368   7.032  1.00  0.00    -0.177 NA
HETATM   23  N   UNL     1      43.321 -11.560   7.424  1.00  0.00    -0.280 N 
HETATM   24  H   UNL     1      43.792 -11.617   8.321  1.00  0.00     0.189 HD
HETATM   25  C   UNL     1      43.084 -12.564   6.531  1.00  0.00     0.052 A 
HETATM   26  C   UNL     1      43.523 -13.955   6.788  1.00  0.00     0.072 C 
ENDBRANCH  16  19
ENDBRANCH  14  15
ENDBRANCH   1  14
TORSDOF 6
ENDMDL
MODEL 8
REMARK VINA RESULT:      -7.4      3.744      5.831
REMARK  6 active torsions:
REMARK  status: ('A' for Active; 'I' for Inactive)
REMARK    1  A    between atoms: C_2  and  C_3 
REMARK    2  A    between atoms: C_3  and  N_4 
REMARK    3  A    between atoms: C_3  and  C_17 
REMARK    4  A    between atoms: N_4  and  C_5 
REMARK    5  A    between atoms: C_5  and  C_6 
REMARK       I    between atoms: C_6  and  N_7 
REMARK    6  A    between atoms: N_7  and  C_8 
ROOT
HETATM    1  N   UNL     1      40.775 -14.039   2.986  1.00  0.00     0.101 N 
HETATM    2  H   UNL     1      40.839 -13.649   2.045  1.00  0.00     0.317 HD
ENDROOT
BRANCH   1   3
HETATM    3  C   UNL     1      40.468 -15.482   2.876  1.00  0.00     0.256 C 
BRANCH   3   4
HETATM    4  C   UNL     1      39.905 -15.880   1.486  1.00  0.00     0.036 C 
HETATM    5  C   UNL     1      40.173 -14.887   0.359  1.00  0.00     0.007 C 
ENDBRANCH   3   4
BRANCH   3   6
HETATM    6  C   UNL     1      41.666 -16.349   3.249  1.00  0.00     0.013 A 
HETATM    7  C   UNL     1      41.974 -16.528   4.609  1.00  0.00     0.127 A 
HETATM    8  F   UNL     1      41.226 -15.925   5.544  1.00  0.00    -0.205 F 
HETATM    9  C   UNL     1      43.034 -17.325   5.026  1.00  0.00     0.085 A 
HETATM   10  C   UNL     1      43.815 -17.953   4.069  1.00  0.00     0.119 A 
HETATM   11  F   UNL     1      44.841 -18.723   4.453  1.00  0.00    -0.206 F 
HETATM   12  C   UNL     1      43.548 -17.798   2.713  1.00  0.00     0.043 A 
HETATM   13  C   UNL     1      42.475 -17.001   2.302  1.00  0.00     0.015 A 
ENDBRANCH   3   6
ENDBRANCH   1   3
BRANCH   1  14
HETATM   14  C   UNL     1      39.709 -13.304   3.708  1.00  0.00     0.372 C 
BRANCH  14  15
HETATM   15  C   UNL     1      40.211 -12.842   5.085  1.00  0.00     0.250 C 
HETATM   16  N   UNL     1      41.517 -12.405   5.044  1.00  0.00    -0.322 N 
HETATM   17  H   UNL     1      41.970 -12.512   4.141  1.00  0.00     0.169 HD
HETATM   18  O   UNL     1      39.487 -12.924   6.071  1.00  0.00    -0.271 OA
BRANCH  16  19
HETATM   19  C   UNL     1      42.261 -11.851   6.068  1.00  0.00     0.085 A 
HETATM   20  C   UNL     1      42.280 -10.570   6.695  1.00  0.00     0.079 A 
HETATM   21  C   UNL     1      41.477  -9.350   6.425  1.00  0.00     0.075 C 
HETATM   22  N   UNL     1      43.215 -10.510   7.656  1.00  0.00    -0.177 NA
HETATM   23  N   UNL     1      43.779 -11.720   7.645  1.00  0.00    -0.280 N 
HETATM   24  H   UNL     1      44.525 -11.902   8.308  1.00  0.00     0.189 HD
HETATM   25  C   UNL     1      43.258 -12.565   6.708  1.00  0.00     0.052 A 
HETATM   26  C   UNL     1      43.763 -13.947   6.540  1.00  0.00     0.072 C 
ENDBRANCH  16  19
ENDBRANCH  14  15
ENDBRANCH   1  14
TORSDOF 6
ENDMDL
MODEL 9
REMARK VINA RESULT:      -7.2     14.026     16.160
REMARK  6 active torsions:
REMARK  status: ('A' for Active; 'I' for Inactive)
REMARK    1  A    between atoms: C_2  and  C_3 
REMARK    2  A    between atoms: C_3  and  N_4 
REMARK    3  A    between atoms: C_3  and  C_17 
REMARK    4  A    between atoms: N_4  and  C_5 
REMARK    5  A    between atoms: C_5  and  C_6 
REMARK       I    between atoms: C_6  and  N_7 
REMARK    6  A    between atoms: N_7  and  C_8 
ROOT
HETATM    1  N   UNL     1      44.702 -28.609   1.781  1.00  0.00     0.101 N 
HETATM    2  H   UNL     1      44.017 -28.185   2.409  1.00  0.00     0.317 HD
ENDROOT
BRANCH   1   3
HETATM    3  C   UNL     1      43.997 -29.550   0.885  1.00  0.00     0.256 C 
BRANCH   3   4
HETATM    4  C   UNL     1      42.461 -29.567   1.105  1.00  0.00     0.036 C 
HETATM    5  C   UNL     1      41.897 -30.853   1.702  1.00  0.00     0.007 C 
ENDBRANCH   3   4
BRANCH   3   6
HETATM    6  C   UNL     1      44.337 -29.303  -0.582  1.00  0.00     0.013 A 
HETATM    7  C   UNL     1      44.113 -30.333  -1.511  1.00  0.00     0.127 A 
HETATM    8  F   UNL     1      43.626 -31.511  -1.093  1.00  0.00    -0.205 F 
HETATM    9  C   UNL     1      44.375 -30.172  -2.867  1.00  0.00     0.085 A 
HETATM   10  C   UNL     1      44.880 -28.961  -3.311  1.00  0.00     0.119 A 
HETATM   11  F   UNL     1      45.138 -28.789  -4.614  1.00  0.00    -0.206 F 
HETATM   12  C   UNL     1      45.120 -27.917  -2.424  1.00  0.00     0.043 A 
HETATM   13  C   UNL     1      44.848 -28.085  -1.062  1.00  0.00     0.015 A 
ENDBRANCH   3   6
ENDBRANCH   1   3
BRANCH   1  14
HETATM   14  C   UNL     1      45.714 -29.298   2.617  1.00  0.00     0.372 C 
BRANCH  14  15
HETATM   15  C   UNL     1      47.130 -29.008   2.097  1.00  0.00     0.250 C 
HETATM   16  N   UNL     1      47.690 -30.100   1.469  1.00  0.00    -0.322 N 
HETATM   17  H   UNL     1      47.120 -30.942   1.500  1.00  0.00     0.169 HD
HETATM   18  O   UNL     1      47.655 -27.918   2.293  1.00  0.00    -0.271 OA
BRANCH  16  19
HETATM   19  C   UNL     1      48.906 -30.178   0.819  1.00  0.00     0.085 A 
HETATM   20  C   UNL     1      50.261 -30.241   1.260  1.00  0.00     0.079 A 
HETATM   21  C   UNL     1      50.832 -30.226   2.630  1.00  0.00     0.075 C 
HETATM   22  N   UNL     1      51.111 -30.290   0.222  1.00  0.00    -0.177 NA
HETATM   23  N   UNL     1      50.322 -30.259  -0.854  1.00  0.00    -0.280 N 
HETATM   24  H   UNL     1      50.763 -30.292  -1.767  1.00  0.00     0.189 HD
HETATM   25  C   UNL     1      48.990 -30.181  -0.562  1.00  0.00     0.052 A 
HETATM   26  C   UNL     1      47.962 -30.128  -1.627  1.00  0.00     0.072 C 
ENDBRANCH  16  19
ENDBRANCH  14  15
ENDBRANCH   1  14
TORSDOF 6
ENDMDL
MODEL 10
REMARK VINA RESULT:      -7.2      5.414      7.431
REMARK  6 active torsions:
REMARK  status: ('A' for Active; 'I' for Inactive)
REMARK    1  A    between atoms: C_2  and  C_3 
REMARK    2  A    between atoms: C_3  and  N_4 
REMARK    3  A    between atoms: C_3  and  C_17 
REMARK    4  A    between atoms: N_4  and  C_5 
REMARK    5  A    between atoms: C_5  and  C_6 
REMARK       I    between atoms: C_6  and  N_7 
REMARK    6  A    between atoms: N_7  and  C_8 
ROOT
HETATM    1  N   UNL     1      42.649 -13.849   5.072  1.00  0.00     0.101 N 
HETATM    2  H   UNL     1      41.948 -14.023   4.350  1.00  0.00     0.317 HD
ENDROOT
BRANCH   1   3
HETATM    3  C   UNL     1      42.930 -15.124   5.767  1.00  0.00     0.256 C 
BRANCH   3   4
HETATM    4  C   UNL     1      41.801 -15.549   6.741  1.00  0.00     0.036 C 
HETATM    5  C   UNL     1      40.512 -16.031   6.081  1.00  0.00     0.007 C 
ENDBRANCH   3   4
BRANCH   3   6
HETATM    6  C   UNL     1      43.260 -16.246   4.788  1.00  0.00     0.013 A 
HETATM    7  C   UNL     1      43.965 -17.368   5.256  1.00  0.00     0.127 A 
HETATM    8  F   UNL     1      44.348 -17.423   6.540  1.00  0.00    -0.205 F 
HETATM    9  C   UNL     1      44.278 -18.440   4.428  1.00  0.00     0.085 A 
HETATM   10  C   UNL     1      43.888 -18.394   3.100  1.00  0.00     0.119 A 
HETATM   11  F   UNL     1      44.182 -19.419   2.288  1.00  0.00    -0.206 F 
HETATM   12  C   UNL     1      43.193 -17.301   2.594  1.00  0.00     0.043 A 
HETATM   13  C   UNL     1      42.876 -16.229   3.435  1.00  0.00     0.015 A 
ENDBRANCH   3   6
ENDBRANCH   1   3
BRANCH   1  14
HETATM   14  C   UNL     1      42.102 -12.828   5.996  1.00  0.00     0.372 C 
BRANCH  14  15
HETATM   15  C   UNL     1      43.023 -11.599   6.048  1.00  0.00     0.250 C 
HETATM   16  N   UNL     1      43.018 -10.996   7.287  1.00  0.00    -0.322 N 
HETATM   17  H   UNL     1      42.368 -11.404   7.953  1.00  0.00     0.169 HD
HETATM   18  O   UNL     1      43.629 -11.232   5.048  1.00  0.00    -0.271 OA
BRANCH  16  19
HETATM   19  C   UNL     1      43.780  -9.925   7.715  1.00  0.00     0.085 A 
HETATM   20  C   UNL     1      45.180  -9.710   7.876  1.00  0.00     0.079 A 
HETATM   21  C   UNL     1      46.331 -10.619   7.641  1.00  0.00     0.075 C 
HETATM   22  N   UNL     1      45.435  -8.479   8.348  1.00  0.00    -0.177 NA
HETATM   23  N   UNL     1      44.229  -7.921   8.484  1.00  0.00    -0.280 N 
HETATM   24  H   UNL     1      44.183  -6.969   8.830  1.00  0.00     0.189 HD
HETATM   25  C   UNL     1      43.197  -8.742   8.131  1.00  0.00     0.052 A 
HETATM   26  C   UNL     1      41.786  -8.301   8.223  1.00  0.00     0.072 C 
ENDBRANCH  16  19
ENDBRANCH  14  15
ENDBRANCH   1  14
TORSDOF 6
ENDMDL
