MODEL 1
REMARK VINA RESULT:      -9.4      0.000      0.000
REMARK  7 active torsions:
REMARK  status: ('A' for Active; 'I' for Inactive)
REMARK    1  A    between atoms: C_8  and  C_9 
REMARK    2  A    between atoms: C_9  and  N_10 
REMARK    3  A    between atoms: C_14  and  C_15 
REMARK    4  A    between atoms: C_15  and  C_16 
REMARK    5  A    between atoms: C_16  and  C_17 
REMARK    6  A    between atoms: N_27  and  C_28 
REMARK    7  A    between atoms: C_28  and  C_29 
ROOT
HETATM    1  C   UNL     1      42.284 -16.111   4.131  1.00  0.00     0.123 A 
HETATM    2  N   UNL     1      41.264 -16.483   5.100  1.00  0.00    -0.324 N 
HETATM    3  C   UNL     1      40.827 -15.437   5.875  1.00  0.00     0.326 A 
HETATM    4  O   UNL     1      39.981 -15.537   6.742  1.00  0.00    -0.247 OA
HETATM    5  N   UNL     1      41.470 -14.310   5.465  1.00  0.00    -0.268 N 
HETATM    6  C   UNL     1      42.347 -14.605   4.462  1.00  0.00     0.257 A 
HETATM    7  O   UNL     1      43.039 -13.792   3.864  1.00  0.00    -0.270 OA
HETATM    8  H   UNL     1      40.952 -17.430   5.298  1.00  0.00     0.165 HD
ENDROOT
BRANCH   1   9
HETATM    9  C   UNL     1      41.775 -16.430   2.680  1.00  0.00     0.027 C 
HETATM   10  C   UNL     1      42.569 -15.844   1.500  1.00  0.00     0.035 C 
HETATM   11  C   UNL     1      42.288 -14.389   1.151  1.00  0.00     0.235 C 
HETATM   12  N   UNL     1      40.814 -14.076   1.104  1.00  0.00    -0.067 N 
HETATM   13  H   UNL     1      40.461 -14.435   0.205  1.00  0.00     0.280 HD
HETATM   14  C   UNL     1      39.956 -14.678   2.183  1.00  0.00     0.235 C 
HETATM   15  C   UNL     1      40.283 -16.142   2.417  1.00  0.00     0.035 C 
BRANCH  12  16
HETATM   16  C   UNL     1      40.579 -12.570   1.070  1.00  0.00     0.278 C 
BRANCH  16  17
HETATM   17  C   UNL     1      39.407 -12.156   0.275  1.00  0.00     0.034 A 
HETATM   18  C   UNL     1      38.271 -11.404   0.692  1.00  0.00     0.062 A 
HETATM   19  C   UNL     1      37.982 -10.814   2.026  1.00  0.00     0.073 C 
HETATM   20  N   UNL     1      37.396 -11.233  -0.305  1.00  0.00    -0.176 NA
HETATM   21  N   UNL     1      37.920 -11.912  -1.344  1.00  0.00    -0.262 N 
HETATM   22  C   UNL     1      37.173 -12.020  -2.576  1.00  0.00     0.181 C 
HETATM   23  C   UNL     1      39.138 -12.440  -1.042  1.00  0.00     0.131 A 
HETATM   24 CL   UNL     1      40.048 -13.298  -2.195  1.00  0.00    -0.062 Cl
ENDBRANCH  16  17
ENDBRANCH  12  16
ENDBRANCH   1   9
BRANCH   1  25
HETATM   25  C   UNL     1      43.660 -16.719   4.511  1.00  0.00     0.080 C 
BRANCH  25  26
HETATM   26  C   UNL     1      43.762 -18.219   4.350  1.00  0.00    -0.052 A 
HETATM   27  C   UNL     1      43.788 -18.816   3.083  1.00  0.00     0.049 A 
HETATM   28  C   UNL     1      43.867 -20.202   2.966  1.00  0.00     0.116 A 
HETATM   29  F   UNL     1      43.877 -20.754   1.746  1.00  0.00    -0.206 F 
HETATM   30  C   UNL     1      43.932 -21.016   4.089  1.00  0.00     0.042 A 
HETATM   31  C   UNL     1      43.921 -20.435   5.353  1.00  0.00     0.003 A 
HETATM   32  C   UNL     1      43.838 -19.046   5.484  1.00  0.00     0.007 A 
ENDBRANCH  25  26
ENDBRANCH   1  25
BRANCH   5  33
HETATM   33  C   UNL     1      41.219 -12.984   5.995  1.00  0.00     0.140 C 
BRANCH  33  34
HETATM   34  C   UNL     1      40.187 -12.180   5.188  1.00  0.00    -0.004 C 
HETATM   35  C   UNL     1      39.092 -11.592   6.079  1.00  0.00     0.011 C 
HETATM   36  C   UNL     1      40.899 -11.058   4.428  1.00  0.00     0.011 C 
ENDBRANCH  33  34
ENDBRANCH   5  33
TORSDOF 7
ENDMDL
MODEL 2
REMARK VINA RESULT:      -9.3      1.833      2.480
REMARK  7 active torsions:
REMARK  status: ('A' for Active; 'I' for Inactive)
REMARK    1  A    between atoms: C_8  and  C_9 
REMARK    2  A    between atoms: C_9  and  N_10 
REMARK    3  A    between atoms: C_14  and  C_15 
REMARK    4  A    between atoms: C_15  and  C_16 
REMARK    5  A    between atoms: C_16  and  C_17 
REMARK    6  A    between atoms: N_27  and  C_28 
REMARK    7  A    between atoms: C_28  and  C_29 
ROOT
HETATM    1  C   UNL     1      42.180 -15.849   3.682  1.00  0.00     0.123 A 
HETATM    2  N   UNL     1      41.972 -16.256   5.064  1.00  0.00    -0.324 N 
HETATM    3  C   UNL     1      42.130 -15.237   5.971  1.00  0.00     0.326 A 
HETATM    4  O   UNL     1      42.001 -15.368   7.173  1.00  0.00    -0.247 OA
HETATM    5  N   UNL     1      42.401 -14.096   5.282  1.00  0.00    -0.268 N 
HETATM    6  C   UNL     1      42.463 -14.354   3.944  1.00  0.00     0.257 A 
HETATM    7  O   UNL     1      42.652 -13.521   3.069  1.00  0.00    -0.270 OA
HETATM    8  H   UNL     1      41.832 -17.209   5.386  1.00  0.00     0.165 HD
ENDROOT
BRANCH   1   9
HETATM    9  C   UNL     1      40.876 -16.120   2.850  1.00  0.00     0.027 C 
HETATM   10  C   UNL     1      40.976 -16.036   1.318  1.00  0.00     0.035 C 
HETATM   11  C   UNL     1      40.930 -14.639   0.712  1.00  0.00     0.235 C 
HETATM   12  N   UNL     1      39.830 -13.789   1.295  1.00  0.00    -0.067 N 
HETATM   13  H   UNL     1      38.951 -14.090   0.849  1.00  0.00     0.280 HD
HETATM   14  C   UNL     1      39.619 -13.875   2.782  1.00  0.00     0.235 C 
HETATM   15  C   UNL     1      39.633 -15.311   3.274  1.00  0.00     0.035 C 
BRANCH  12  16
HETATM   16  C   UNL     1      40.012 -12.325   0.906  1.00  0.00     0.278 C 
BRANCH  16  17
HETATM   17  C   UNL     1      39.205 -11.900  -0.254  1.00  0.00     0.034 A 
HETATM   18  C   UNL     1      39.571 -11.882  -1.631  1.00  0.00     0.062 A 
HETATM   19  C   UNL     1      40.847 -12.312  -2.264  1.00  0.00     0.073 C 
HETATM   20  N   UNL     1      38.580 -11.417  -2.400  1.00  0.00    -0.176 NA
HETATM   21  N   UNL     1      37.603 -11.079  -1.537  1.00  0.00    -0.262 N 
HETATM   22  C   UNL     1      36.403 -10.442  -2.031  1.00  0.00     0.181 C 
HETATM   23  C   UNL     1      37.929 -11.393  -0.254  1.00  0.00     0.131 A 
HETATM   24 CL   UNL     1      36.847 -11.127   1.032  1.00  0.00    -0.062 Cl
ENDBRANCH  16  17
ENDBRANCH  12  16
ENDBRANCH   1   9
BRANCH   1  25
HETATM   25  C   UNL     1      43.484 -16.466   3.111  1.00  0.00     0.080 C 
BRANCH  25  26
HETATM   26  C   UNL     1      43.572 -17.973   3.203  1.00  0.00    -0.052 A 
HETATM   27  C   UNL     1      44.076 -18.604   4.347  1.00  0.00     0.049 A 
HETATM   28  C   UNL     1      44.160 -19.994   4.398  1.00  0.00     0.116 A 
HETATM   29  F   UNL     1      44.658 -20.577   5.496  1.00  0.00    -0.206 F 
HETATM   30  C   UNL     1      43.742 -20.779   3.332  1.00  0.00     0.042 A 
HETATM   31  C   UNL     1      43.226 -20.164   2.194  1.00  0.00     0.003 A 
HETATM   32  C   UNL     1      43.141 -18.771   2.130  1.00  0.00     0.007 A 
ENDBRANCH  25  26
ENDBRANCH   1  25
BRANCH   5  33
HETATM   33  C   UNL     1      42.558 -12.788   5.891  1.00  0.00     0.140 C 
BRANCH  33  34
HETATM   34  C   UNL     1      44.016 -12.428   6.215  1.00  0.00    -0.004 C 
HETATM   35  C   UNL     1      44.615 -11.469   5.186  1.00  0.00     0.011 C 
HETATM   36  C   UNL     1      44.087 -11.803   7.611  1.00  0.00     0.011 C 
ENDBRANCH  33  34
ENDBRANCH   5  33
TORSDOF 7
ENDMDL
MODEL 3
REMARK VINA RESULT:      -9.2      1.100      1.508
REMARK  7 active torsions:
REMARK  status: ('A' for Active; 'I' for Inactive)
REMARK    1  A    between atoms: C_8  and  C_9 
REMARK    2  A    between atoms: C_9  and  N_10 
REMARK    3  A    between atoms: C_14  and  C_15 
REMARK    4  A    between atoms: C_15  and  C_16 
REMARK    5  A    between atoms: C_16  and  C_17 
REMARK    6  A    between atoms: N_27  and  C_28 
REMARK    7  A    between atoms: C_28  and  C_29 
ROOT
HETATM    1  C   UNL     1      42.175 -16.027   4.177  1.00  0.00     0.123 A 
HETATM    2  N   UNL     1      41.174 -16.429   5.154  1.00  0.00    -0.324 N 
HETATM    3  C   UNL     1      40.727 -15.398   5.944  1.00  0.00     0.326 A 
HETATM    4  O   UNL     1      39.894 -15.523   6.821  1.00  0.00    -0.247 OA
HETATM    5  N   UNL     1      41.341 -14.255   5.537  1.00  0.00    -0.268 N 
HETATM    6  C   UNL     1      42.211 -14.523   4.520  1.00  0.00     0.257 A 
HETATM    7  O   UNL     1      42.880 -13.691   3.922  1.00  0.00    -0.270 OA
HETATM    8  H   UNL     1      40.884 -17.383   5.347  1.00  0.00     0.165 HD
ENDROOT
BRANCH   1   9
HETATM    9  C   UNL     1      41.655 -16.342   2.729  1.00  0.00     0.027 C 
HETATM   10  C   UNL     1      42.527 -15.896   1.543  1.00  0.00     0.035 C 
HETATM   11  C   UNL     1      42.417 -14.433   1.135  1.00  0.00     0.235 C 
HETATM   12  N   UNL     1      40.989 -13.959   1.049  1.00  0.00    -0.067 N 
HETATM   13  H   UNL     1      40.610 -14.311   0.158  1.00  0.00     0.280 HD
HETATM   14  C   UNL     1      40.053 -14.418   2.133  1.00  0.00     0.235 C 
HETATM   15  C   UNL     1      40.208 -15.899   2.427  1.00  0.00     0.035 C 
BRANCH  12  16
HETATM   16  C   UNL     1      40.926 -12.438   0.955  1.00  0.00     0.278 C 
BRANCH  16  17
HETATM   17  C   UNL     1      39.933 -11.930  -0.012  1.00  0.00     0.034 A 
HETATM   18  C   UNL     1      40.090 -11.705  -1.411  1.00  0.00     0.062 A 
HETATM   19  C   UNL     1      41.280 -11.951  -2.267  1.00  0.00     0.073 C 
HETATM   20  N   UNL     1      38.971 -11.223  -1.962  1.00  0.00    -0.176 NA
HETATM   21  N   UNL     1      38.114 -11.076  -0.933  1.00  0.00    -0.262 N 
HETATM   22  C   UNL     1      36.820 -10.475  -1.163  1.00  0.00     0.181 C 
HETATM   23  C   UNL     1      38.644 -11.528   0.236  1.00  0.00     0.131 A 
HETATM   24 CL   UNL     1      37.750 -11.513   1.684  1.00  0.00    -0.062 Cl
ENDBRANCH  16  17
ENDBRANCH  12  16
ENDBRANCH   1   9
BRANCH   1  25
HETATM   25  C   UNL     1      43.567 -16.610   4.534  1.00  0.00     0.080 C 
BRANCH  25  26
HETATM   26  C   UNL     1      43.691 -18.110   4.380  1.00  0.00    -0.052 A 
HETATM   27  C   UNL     1      43.703 -18.714   3.117  1.00  0.00     0.049 A 
HETATM   28  C   UNL     1      43.803 -20.099   3.007  1.00  0.00     0.116 A 
HETATM   29  F   UNL     1      43.799 -20.658   1.790  1.00  0.00    -0.206 F 
HETATM   30  C   UNL     1      43.901 -20.906   4.133  1.00  0.00     0.042 A 
HETATM   31  C   UNL     1      43.903 -20.316   5.394  1.00  0.00     0.003 A 
HETATM   32  C   UNL     1      43.800 -18.928   5.518  1.00  0.00     0.007 A 
ENDBRANCH  25  26
ENDBRANCH   1  25
BRANCH   5  33
HETATM   33  C   UNL     1      41.071 -12.939   6.083  1.00  0.00     0.140 C 
BRANCH  33  34
HETATM   34  C   UNL     1      39.836 -12.257   5.471  1.00  0.00    -0.004 C 
HETATM   35  C   UNL     1      39.053 -11.449   6.506  1.00  0.00     0.011 C 
HETATM   36  C   UNL     1      40.276 -11.347   4.322  1.00  0.00     0.011 C 
ENDBRANCH  33  34
ENDBRANCH   5  33
TORSDOF 7
ENDMDL
MODEL 4
REMARK VINA RESULT:      -9.0      4.419      7.977
REMARK  7 active torsions:
REMARK  status: ('A' for Active; 'I' for Inactive)
REMARK    1  A    between atoms: C_8  and  C_9 
REMARK    2  A    between atoms: C_9  and  N_10 
REMARK    3  A    between atoms: C_14  and  C_15 
REMARK    4  A    between atoms: C_15  and  C_16 
REMARK    5  A    between atoms: C_16  and  C_17 
REMARK    6  A    between atoms: N_27  and  C_28 
REMARK    7  A    between atoms: C_28  and  C_29 
ROOT
HETATM    1  C   UNL     1      42.255 -10.502   6.181  1.00  0.00     0.123 A 
HETATM    2  N   UNL     1      41.368 -11.477   6.796  1.00  0.00    -0.324 N 
HETATM    3  C   UNL     1      40.137 -11.566   6.191  1.00  0.00     0.326 A 
HETATM    4  O   UNL     1      39.253 -12.318   6.552  1.00  0.00    -0.247 OA
HETATM    5  N   UNL     1      40.126 -10.717   5.129  1.00  0.00    -0.268 N 
HETATM    6  C   UNL     1      41.311 -10.044   5.049  1.00  0.00     0.257 A 
HETATM    7  O   UNL     1      41.613  -9.241   4.176  1.00  0.00    -0.270 OA
HETATM    8  H   UNL     1      41.551 -11.985   7.656  1.00  0.00     0.165 HD
ENDROOT
BRANCH   1   9
HETATM    9  C   UNL     1      43.559 -11.218   5.679  1.00  0.00     0.027 C 
HETATM   10  C   UNL     1      43.605 -11.672   4.210  1.00  0.00     0.035 C 
HETATM   11  C   UNL     1      42.901 -12.983   3.884  1.00  0.00     0.235 C 
HETATM   12  N   UNL     1      43.229 -14.078   4.866  1.00  0.00    -0.067 N 
HETATM   13  H   UNL     1      44.163 -14.434   4.617  1.00  0.00     0.280 HD
HETATM   14  C   UNL     1      43.279 -13.695   6.320  1.00  0.00     0.235 C 
HETATM   15  C   UNL     1      44.044 -12.403   6.539  1.00  0.00     0.035 C 
BRANCH  12  16
HETATM   16  C   UNL     1      42.277 -15.258   4.700  1.00  0.00     0.278 C 
BRANCH  16  17
HETATM   17  C   UNL     1      42.942 -16.528   4.346  1.00  0.00     0.034 A 
HETATM   18  C   UNL     1      43.298 -17.015   3.056  1.00  0.00     0.062 A 
HETATM   19  C   UNL     1      43.123 -16.362   1.731  1.00  0.00     0.073 C 
HETATM   20  N   UNL     1      43.876 -18.220   3.123  1.00  0.00    -0.176 NA
HETATM   21  N   UNL     1      43.845 -18.545   4.430  1.00  0.00    -0.262 N 
HETATM   22  C   UNL     1      44.308 -19.846   4.853  1.00  0.00     0.181 C 
HETATM   23  C   UNL     1      43.331 -17.539   5.191  1.00  0.00     0.131 A 
HETATM   24 CL   UNL     1      43.231 -17.665   6.884  1.00  0.00    -0.062 Cl
ENDBRANCH  16  17
ENDBRANCH  12  16
ENDBRANCH   1   9
BRANCH   1  25
HETATM   25  C   UNL     1      42.473  -9.282   7.113  1.00  0.00     0.080 C 
BRANCH  25  26
HETATM   26  C   UNL     1      43.459  -9.505   8.238  1.00  0.00    -0.052 A 
HETATM   27  C   UNL     1      43.084 -10.161   9.416  1.00  0.00     0.049 A 
HETATM   28  C   UNL     1      44.009 -10.339  10.442  1.00  0.00     0.116 A 
HETATM   29  F   UNL     1      43.626 -10.958  11.567  1.00  0.00    -0.206 F 
HETATM   30  C   UNL     1      45.315  -9.883  10.320  1.00  0.00     0.042 A 
HETATM   31  C   UNL     1      45.705  -9.241   9.148  1.00  0.00     0.003 A 
HETATM   32  C   UNL     1      44.784  -9.053   8.113  1.00  0.00     0.007 A 
ENDBRANCH  25  26
ENDBRANCH   1  25
BRANCH   5  33
HETATM   33  C   UNL     1      39.023 -10.585   4.196  1.00  0.00     0.140 C 
BRANCH  33  34
HETATM   34  C   UNL     1      39.246 -11.323   2.866  1.00  0.00    -0.004 C 
HETATM   35  C   UNL     1      39.218 -12.841   3.039  1.00  0.00     0.011 C 
HETATM   36  C   UNL     1      38.175 -10.893   1.861  1.00  0.00     0.011 C 
ENDBRANCH  33  34
ENDBRANCH   5  33
TORSDOF 7
ENDMDL
MODEL 5
REMARK VINA RESULT:      -8.7      3.161      7.607
REMARK  7 active torsions:
REMARK  status: ('A' for Active; 'I' for Inactive)
REMARK    1  A    between atoms: C_8  and  C_9 
REMARK    2  A    between atoms: C_9  and  N_10 
REMARK    3  A    between atoms: C_14  and  C_15 
REMARK    4  A    between atoms: C_15  and  C_16 
REMARK    5  A    between atoms: C_16  and  C_17 
REMARK    6  A    between atoms: N_27  and  C_28 
REMARK    7  A    between atoms: C_28  and  C_29 
ROOT
HETATM    1  C   UNL     1      40.542 -12.748   1.745  1.00  0.00     0.123 A 
HETATM    2  N   UNL     1      41.958 -12.420   1.666  1.00  0.00    -0.324 N 
HETATM    3  C   UNL     1      42.454 -11.828   2.802  1.00  0.00     0.326 A 
HETATM    4  O   UNL     1      43.610 -11.477   2.939  1.00  0.00    -0.247 OA
HETATM    5  N   UNL     1      41.450 -11.760   3.716  1.00  0.00    -0.268 N 
HETATM    6  C   UNL     1      40.295 -12.260   3.189  1.00  0.00     0.257 A 
HETATM    7  O   UNL     1      39.231 -12.368   3.784  1.00  0.00    -0.270 OA
HETATM    8  H   UNL     1      42.539 -12.499   0.836  1.00  0.00     0.165 HD
ENDROOT
BRANCH   1   9
HETATM    9  C   UNL     1      40.347 -14.293   1.547  1.00  0.00     0.027 C 
HETATM   10  C   UNL     1      39.905 -15.119   2.767  1.00  0.00     0.035 C 
HETATM   11  C   UNL     1      40.997 -15.504   3.756  1.00  0.00     0.235 C 
HETATM   12  N   UNL     1      42.232 -16.039   3.078  1.00  0.00    -0.067 N 
HETATM   13  H   UNL     1      42.030 -17.013   2.812  1.00  0.00     0.280 HD
HETATM   14  C   UNL     1      42.686 -15.330   1.832  1.00  0.00     0.235 C 
HETATM   15  C   UNL     1      41.529 -15.038   0.893  1.00  0.00     0.035 C 
BRANCH  12  16
HETATM   16  C   UNL     1      43.400 -16.110   4.057  1.00  0.00     0.278 C 
BRANCH  16  17
HETATM   17  C   UNL     1      43.505 -17.391   4.784  1.00  0.00     0.034 A 
HETATM   18  C   UNL     1      43.330 -17.639   6.176  1.00  0.00     0.062 A 
HETATM   19  C   UNL     1      42.967 -16.683   7.255  1.00  0.00     0.073 C 
HETATM   20  N   UNL     1      43.519 -18.929   6.476  1.00  0.00    -0.176 NA
HETATM   21  N   UNL     1      43.872 -19.507   5.311  1.00  0.00    -0.262 N 
HETATM   22  C   UNL     1      44.249 -20.901   5.292  1.00  0.00     0.181 C 
HETATM   23  C   UNL     1      43.833 -18.624   4.276  1.00  0.00     0.131 A 
HETATM   24 CL   UNL     1      44.177 -19.106   2.681  1.00  0.00    -0.062 Cl
ENDBRANCH  16  17
ENDBRANCH  12  16
ENDBRANCH   1   9
BRANCH   1  25
HETATM   25  C   UNL     1      39.707 -11.838   0.807  1.00  0.00     0.080 C 
BRANCH  25  26
HETATM   26  C   UNL     1      39.510 -12.373  -0.594  1.00  0.00    -0.052 A 
HETATM   27  C   UNL     1      38.248 -12.767  -1.053  1.00  0.00     0.049 A 
HETATM   28  C   UNL     1      38.099 -13.270  -2.343  1.00  0.00     0.116 A 
HETATM   29  F   UNL     1      36.885 -13.654  -2.758  1.00  0.00    -0.206 F 
HETATM   30  C   UNL     1      39.186 -13.384  -3.201  1.00  0.00     0.042 A 
HETATM   31  C   UNL     1      40.445 -12.983  -2.761  1.00  0.00     0.003 A 
HETATM   32  C   UNL     1      40.606 -12.480  -1.467  1.00  0.00     0.007 A 
ENDBRANCH  25  26
ENDBRANCH   1  25
BRANCH   5  33
HETATM   33  C   UNL     1      41.606 -11.264   5.071  1.00  0.00     0.140 C 
BRANCH  33  34
HETATM   34  C   UNL     1      42.779 -11.902   5.831  1.00  0.00    -0.004 C 
HETATM   35  C   UNL     1      43.242 -11.038   7.004  1.00  0.00     0.011 C 
HETATM   36  C   UNL     1      42.364 -13.287   6.337  1.00  0.00     0.011 C 
ENDBRANCH  33  34
ENDBRANCH   5  33
TORSDOF 7
ENDMDL
MODEL 6
REMARK VINA RESULT:      -8.4      3.759      7.001
REMARK  7 active torsions:
REMARK  status: ('A' for Active; 'I' for Inactive)
REMARK    1  A    between atoms: C_8  and  C_9 
REMARK    2  A    between atoms: C_9  and  N_10 
REMARK    3  A    between atoms: C_14  and  C_15 
REMARK    4  A    between atoms: C_15  and  C_16 
REMARK    5  A    between atoms: C_16  and  C_17 
REMARK    6  A    between atoms: N_27  and  C_28 
REMARK    7  A    between atoms: C_28  and  C_29 
ROOT
HETATM    1  C   UNL     1      40.594 -14.223   3.899  1.00  0.00     0.123 A 
HETATM    2  N   UNL     1      41.951 -13.770   3.631  1.00  0.00    -0.324 N 
HETATM    3  C   UNL     1      42.034 -12.822   2.640  1.00  0.00     0.326 A 
HETATM    4  O   UNL     1      43.074 -12.317   2.265  1.00  0.00    -0.247 OA
HETATM    5  N   UNL     1      40.772 -12.543   2.217  1.00  0.00    -0.268 N 
HETATM    6  C   UNL     1      39.867 -13.317   2.882  1.00  0.00     0.257 A 
HETATM    7  O   UNL     1      38.652 -13.264   2.745  1.00  0.00    -0.270 OA
HETATM    8  H   UNL     1      42.797 -14.166   4.030  1.00  0.00     0.165 HD
ENDROOT
BRANCH   1   9
HETATM    9  C   UNL     1      40.227 -13.929   5.397  1.00  0.00     0.027 C 
HETATM   10  C   UNL     1      39.539 -12.591   5.716  1.00  0.00     0.035 C 
HETATM   11  C   UNL     1      40.447 -11.372   5.823  1.00  0.00     0.235 C 
HETATM   12  N   UNL     1      41.676 -11.635   6.656  1.00  0.00    -0.067 N 
HETATM   13  H   UNL     1      41.383 -11.594   7.643  1.00  0.00     0.280 HD
HETATM   14  C   UNL     1      42.362 -12.959   6.457  1.00  0.00     0.235 C 
HETATM   15  C   UNL     1      41.373 -14.109   6.414  1.00  0.00     0.035 C 
BRANCH  12  16
HETATM   16  C   UNL     1      42.699 -10.518   6.480  1.00  0.00     0.278 C 
BRANCH  16  17
HETATM   17  C   UNL     1      43.716 -10.453   7.548  1.00  0.00     0.034 A 
HETATM   18  C   UNL     1      45.080 -10.863   7.502  1.00  0.00     0.062 A 
HETATM   19  C   UNL     1      45.844 -11.434   6.361  1.00  0.00     0.073 C 
HETATM   20  N   UNL     1      45.696 -10.664   8.672  1.00  0.00    -0.176 NA
HETATM   21  N   UNL     1      44.738 -10.189   9.491  1.00  0.00    -0.262 N 
HETATM   22  C   UNL     1      45.042  -9.954  10.884  1.00  0.00     0.181 C 
HETATM   23  C   UNL     1      43.556 -10.013   8.839  1.00  0.00     0.131 A 
HETATM   24 CL   UNL     1      42.193  -9.368   9.626  1.00  0.00    -0.062 Cl
ENDBRANCH  16  17
ENDBRANCH  12  16
ENDBRANCH   1   9
BRANCH   1  25
HETATM   25  C   UNL     1      40.392 -15.687   3.430  1.00  0.00     0.080 C 
BRANCH  25  26
HETATM   26  C   UNL     1      41.634 -16.550   3.476  1.00  0.00    -0.052 A 
HETATM   27  C   UNL     1      42.257 -16.865   4.690  1.00  0.00     0.049 A 
HETATM   28  C   UNL     1      43.409 -17.649   4.701  1.00  0.00     0.116 A 
HETATM   29  F   UNL     1      43.997 -17.928   5.871  1.00  0.00    -0.206 F 
HETATM   30  C   UNL     1      43.956 -18.140   3.523  1.00  0.00     0.042 A 
HETATM   31  C   UNL     1      43.338 -17.845   2.310  1.00  0.00     0.003 A 
HETATM   32  C   UNL     1      42.185 -17.056   2.287  1.00  0.00     0.007 A 
ENDBRANCH  25  26
ENDBRANCH   1  25
BRANCH   5  33
HETATM   33  C   UNL     1      40.444 -11.533   1.228  1.00  0.00     0.140 C 
BRANCH  33  34
HETATM   34  C   UNL     1      39.698 -12.085   0.004  1.00  0.00    -0.004 C 
HETATM   35  C   UNL     1      39.214 -10.972  -0.926  1.00  0.00     0.011 C 
HETATM   36  C   UNL     1      40.616 -13.041  -0.762  1.00  0.00     0.011 C 
ENDBRANCH  33  34
ENDBRANCH   5  33
TORSDOF 7
ENDMDL
MODEL 7
REMARK VINA RESULT:      -8.3      4.492      7.789
REMARK  7 active torsions:
REMARK  status: ('A' for Active; 'I' for Inactive)
REMARK    1  A    between atoms: C_8  and  C_9 
REMARK    2  A    between atoms: C_9  and  N_10 
REMARK    3  A    between atoms: C_14  and  C_15 
REMARK    4  A    between atoms: C_15  and  C_16 
REMARK    5  A    between atoms: C_16  and  C_17 
REMARK    6  A    between atoms: N_27  and  C_28 
REMARK    7  A    between atoms: C_28  and  C_29 
ROOT
HETATM    1  C   UNL     1      41.756 -13.931   4.726  1.00  0.00     0.123 A 
HETATM    2  N   UNL     1      41.822 -14.040   6.176  1.00  0.00    -0.324 N 
HETATM    3  C   UNL     1      42.638 -15.053   6.618  1.00  0.00     0.326 A 
HETATM    4  O   UNL     1      42.829 -15.313   7.791  1.00  0.00    -0.247 OA
HETATM    5  N   UNL     1      43.197 -15.650   5.532  1.00  0.00    -0.268 N 
HETATM    6  C   UNL     1      42.735 -15.073   4.385  1.00  0.00     0.257 A 
HETATM    7  O   UNL     1      43.087 -15.369   3.251  1.00  0.00    -0.270 OA
HETATM    8  H   UNL     1      41.255 -13.516   6.836  1.00  0.00     0.165 HD
ENDROOT
BRANCH   1   9
HETATM    9  C   UNL     1      42.249 -12.508   4.282  1.00  0.00     0.027 C 
HETATM   10  C   UNL     1      43.728 -12.158   4.519  1.00  0.00     0.035 C 
HETATM   11  C   UNL     1      44.102 -11.717   5.928  1.00  0.00     0.235 C 
HETATM   12  N   UNL     1      43.142 -10.702   6.493  1.00  0.00    -0.067 N 
HETATM   13  H   UNL     1      43.381  -9.795   6.068  1.00  0.00     0.280 HD
HETATM   14  C   UNL     1      41.678 -10.934   6.237  1.00  0.00     0.235 C 
HETATM   15  C   UNL     1      41.409 -11.319   4.793  1.00  0.00     0.035 C 
BRANCH  12  16
HETATM   16  C   UNL     1      43.357 -10.527   7.993  1.00  0.00     0.278 C 
BRANCH  16  17
HETATM   17  C   UNL     1      43.656  -9.142   8.405  1.00  0.00     0.034 A 
HETATM   18  C   UNL     1      44.919  -8.486   8.466  1.00  0.00     0.062 A 
HETATM   19  C   UNL     1      46.262  -9.012   8.102  1.00  0.00     0.073 C 
HETATM   20  N   UNL     1      44.803  -7.227   8.903  1.00  0.00    -0.176 NA
HETATM   21  N   UNL     1      43.494  -7.078   9.183  1.00  0.00    -0.262 N 
HETATM   22  C   UNL     1      43.027  -5.847   9.778  1.00  0.00     0.181 C 
HETATM   23  C   UNL     1      42.777  -8.189   8.858  1.00  0.00     0.131 A 
HETATM   24 CL   UNL     1      41.088  -8.248   9.055  1.00  0.00    -0.062 Cl
ENDBRANCH  16  17
ENDBRANCH  12  16
ENDBRANCH   1   9
BRANCH   1  25
HETATM   25  C   UNL     1      40.360 -14.354   4.200  1.00  0.00     0.080 C 
BRANCH  25  26
HETATM   26  C   UNL     1      40.244 -14.442   2.694  1.00  0.00    -0.052 A 
HETATM   27  C   UNL     1      40.415 -13.313   1.884  1.00  0.00     0.049 A 
HETATM   28  C   UNL     1      40.287 -13.420   0.501  1.00  0.00     0.116 A 
HETATM   29  F   UNL     1      40.441 -12.325  -0.256  1.00  0.00    -0.206 F 
HETATM   30  C   UNL     1      39.999 -14.637  -0.103  1.00  0.00     0.042 A 
HETATM   31  C   UNL     1      39.840 -15.770   0.690  1.00  0.00     0.003 A 
HETATM   32  C   UNL     1      39.962 -15.674   2.080  1.00  0.00     0.007 A 
ENDBRANCH  25  26
ENDBRANCH   1  25
BRANCH   5  33
HETATM   33  C   UNL     1      44.177 -16.718   5.596  1.00  0.00     0.140 C 
BRANCH  33  34
HETATM   34  C   UNL     1      43.642 -18.078   5.122  1.00  0.00    -0.004 C 
HETATM   35  C   UNL     1      44.528 -18.701   4.043  1.00  0.00     0.011 C 
HETATM   36  C   UNL     1      43.534 -19.027   6.319  1.00  0.00     0.011 C 
ENDBRANCH  33  34
ENDBRANCH   5  33
TORSDOF 7
ENDMDL
MODEL 8
REMARK VINA RESULT:      -8.3      3.905      7.673
REMARK  7 active torsions:
REMARK  status: ('A' for Active; 'I' for Inactive)
REMARK    1  A    between atoms: C_8  and  C_9 
REMARK    2  A    between atoms: C_9  and  N_10 
REMARK    3  A    between atoms: C_14  and  C_15 
REMARK    4  A    between atoms: C_15  and  C_16 
REMARK    5  A    between atoms: C_16  and  C_17 
REMARK    6  A    between atoms: N_27  and  C_28 
REMARK    7  A    between atoms: C_28  and  C_29 
ROOT
HETATM    1  C   UNL     1      41.217 -14.055   3.187  1.00  0.00     0.123 A 
HETATM    2  N   UNL     1      40.984 -14.341   4.595  1.00  0.00    -0.324 N 
HETATM    3  C   UNL     1      41.826 -15.295   5.114  1.00  0.00     0.326 A 
HETATM    4  O   UNL     1      41.795 -15.677   6.267  1.00  0.00    -0.247 OA
HETATM    5  N   UNL     1      42.690 -15.673   4.134  1.00  0.00    -0.268 N 
HETATM    6  C   UNL     1      42.407 -15.015   2.973  1.00  0.00     0.257 A 
HETATM    7  O   UNL     1      43.036 -15.116   1.928  1.00  0.00    -0.270 OA
HETATM    8  H   UNL     1      40.215 -13.982   5.153  1.00  0.00     0.165 HD
ENDROOT
BRANCH   1   9
HETATM    9  C   UNL     1      41.576 -12.537   3.011  1.00  0.00     0.027 C 
HETATM   10  C   UNL     1      43.059 -12.138   3.105  1.00  0.00     0.035 C 
HETATM   11  C   UNL     1      43.631 -11.988   4.508  1.00  0.00     0.235 C 
HETATM   12  N   UNL     1      42.731 -11.195   5.421  1.00  0.00    -0.067 N 
HETATM   13  H   UNL     1      42.863 -10.201   5.183  1.00  0.00     0.280 HD
HETATM   14  C   UNL     1      41.255 -11.474   5.333  1.00  0.00     0.235 C 
HETATM   15  C   UNL     1      40.779 -11.554   3.893  1.00  0.00     0.035 C 
BRANCH  12  16
HETATM   16  C   UNL     1      43.172 -11.335   6.874  1.00  0.00     0.278 C 
BRANCH  16  17
HETATM   17  C   UNL     1      43.642 -10.078   7.490  1.00  0.00     0.034 A 
HETATM   18  C   UNL     1      44.968  -9.714   7.863  1.00  0.00     0.062 A 
HETATM   19  C   UNL     1      46.228 -10.487   7.705  1.00  0.00     0.073 C 
HETATM   20  N   UNL     1      45.011  -8.493   8.410  1.00  0.00    -0.176 NA
HETATM   21  N   UNL     1      43.726  -8.088   8.449  1.00  0.00    -0.262 N 
HETATM   22  C   UNL     1      43.394  -6.831   9.079  1.00  0.00     0.181 C 
HETATM   23  C   UNL     1      42.891  -8.994   7.871  1.00  0.00     0.131 A 
HETATM   24 CL   UNL     1      41.220  -8.704   7.735  1.00  0.00    -0.062 Cl
ENDBRANCH  16  17
ENDBRANCH  12  16
ENDBRANCH   1   9
BRANCH   1  25
HETATM   25  C   UNL     1      40.048 -14.577   2.312  1.00  0.00     0.080 C 
BRANCH  25  26
HETATM   26  C   UNL     1      39.853 -13.846   1.002  1.00  0.00    -0.052 A 
HETATM   27  C   UNL     1      40.336 -14.370  -0.203  1.00  0.00     0.049 A 
HETATM   28  C   UNL     1      40.156 -13.666  -1.392  1.00  0.00     0.116 A 
HETATM   29  F   UNL     1      40.637 -14.178  -2.532  1.00  0.00    -0.206 F 
HETATM   30  C   UNL     1      39.492 -12.446  -1.413  1.00  0.00     0.042 A 
HETATM   31  C   UNL     1      38.996 -11.921  -0.223  1.00  0.00     0.003 A 
HETATM   32  C   UNL     1      39.174 -12.616   0.977  1.00  0.00     0.007 A 
ENDBRANCH  25  26
ENDBRANCH   1  25
BRANCH   5  33
HETATM   33  C   UNL     1      43.782 -16.610   4.320  1.00  0.00     0.140 C 
BRANCH  33  34
HETATM   34  C   UNL     1      43.379 -18.078   4.110  1.00  0.00    -0.004 C 
HETATM   35  C   UNL     1      43.770 -18.590   2.724  1.00  0.00     0.011 C 
HETATM   36  C   UNL     1      44.034 -18.945   5.189  1.00  0.00     0.011 C 
ENDBRANCH  33  34
ENDBRANCH   5  33
TORSDOF 7
ENDMDL
MODEL 9
REMARK VINA RESULT:      -8.2      3.462      6.498
REMARK  7 active torsions:
REMARK  status: ('A' for Active; 'I' for Inactive)
REMARK    1  A    between atoms: C_8  and  C_9 
REMARK    2  A    between atoms: C_9  and  N_10 
REMARK    3  A    between atoms: C_14  and  C_15 
REMARK    4  A    between atoms: C_15  and  C_16 
REMARK    5  A    between atoms: C_16  and  C_17 
REMARK    6  A    between atoms: N_27  and  C_28 
REMARK    7  A    between atoms: C_28  and  C_29 
ROOT
HETATM    1  C   UNL     1      42.405 -14.853   3.000  1.00  0.00     0.123 A 
HETATM    2  N   UNL     1      42.603 -13.446   2.682  1.00  0.00    -0.324 N 
HETATM    3  C   UNL     1      41.703 -12.952   1.769  1.00  0.00     0.326 A 
HETATM    4  O   UNL     1      41.698 -11.804   1.369  1.00  0.00    -0.247 OA
HETATM    5  N   UNL     1      40.833 -13.948   1.452  1.00  0.00    -0.268 N 
HETATM    6  C   UNL     1      41.167 -15.096   2.110  1.00  0.00     0.257 A 
HETATM    7  O   UNL     1      40.548 -16.150   2.057  1.00  0.00    -0.270 OA
HETATM    8  H   UNL     1      43.383 -12.873   2.991  1.00  0.00     0.165 HD
ENDROOT
BRANCH   1   9
HETATM    9  C   UNL     1      42.132 -15.012   4.538  1.00  0.00     0.027 C 
HETATM   10  C   UNL     1      40.840 -14.395   5.101  1.00  0.00     0.035 C 
HETATM   11  C   UNL     1      40.871 -12.898   5.382  1.00  0.00     0.235 C 
HETATM   12  N   UNL     1      42.117 -12.471   6.115  1.00  0.00    -0.067 N 
HETATM   13  H   UNL     1      41.984 -12.727   7.105  1.00  0.00     0.280 HD
HETATM   14  C   UNL     1      43.414 -13.090   5.673  1.00  0.00     0.235 C 
HETATM   15  C   UNL     1      43.286 -14.589   5.470  1.00  0.00     0.035 C 
BRANCH  12  16
HETATM   16  C   UNL     1      42.263 -10.953   6.097  1.00  0.00     0.278 C 
BRANCH  16  17
HETATM   17  C   UNL     1      42.462 -10.345   7.427  1.00  0.00     0.034 A 
HETATM   18  C   UNL     1      41.529  -9.615   8.219  1.00  0.00     0.062 A 
HETATM   19  C   UNL     1      40.105  -9.299   7.928  1.00  0.00     0.073 C 
HETATM   20  N   UNL     1      42.072  -9.203   9.369  1.00  0.00    -0.176 NA
HETATM   21  N   UNL     1      43.357  -9.603   9.308  1.00  0.00    -0.262 N 
HETATM   22  C   UNL     1      44.271  -9.231  10.363  1.00  0.00     0.181 C 
HETATM   23  C   UNL     1      43.610 -10.323   8.181  1.00  0.00     0.131 A 
HETATM   24 CL   UNL     1      45.142 -10.999   7.881  1.00  0.00    -0.062 Cl
ENDBRANCH  16  17
ENDBRANCH  12  16
ENDBRANCH   1   9
BRANCH   1  25
HETATM   25  C   UNL     1      43.556 -15.720   2.427  1.00  0.00     0.080 C 
BRANCH  25  26
HETATM   26  C   UNL     1      43.528 -17.175   2.843  1.00  0.00    -0.052 A 
HETATM   27  C   UNL     1      43.869 -17.567   4.143  1.00  0.00     0.049 A 
HETATM   28  C   UNL     1      43.850 -18.915   4.494  1.00  0.00     0.116 A 
HETATM   29  F   UNL     1      44.192 -19.270   5.739  1.00  0.00    -0.206 F 
HETATM   30  C   UNL     1      43.487 -19.892   3.576  1.00  0.00     0.042 A 
HETATM   31  C   UNL     1      43.133 -19.514   2.284  1.00  0.00     0.003 A 
HETATM   32  C   UNL     1      43.153 -18.164   1.919  1.00  0.00     0.007 A 
ENDBRANCH  25  26
ENDBRANCH   1  25
BRANCH   5  33
HETATM   33  C   UNL     1      39.690 -13.790   0.573  1.00  0.00     0.140 C 
BRANCH  33  34
HETATM   34  C   UNL     1      40.046 -13.844  -0.921  1.00  0.00    -0.004 C 
HETATM   35  C   UNL     1      39.224 -14.892  -1.671  1.00  0.00     0.011 C 
HETATM   36  C   UNL     1      39.826 -12.464  -1.546  1.00  0.00     0.011 C 
ENDBRANCH  33  34
ENDBRANCH   5  33
TORSDOF 7
ENDMDL
MODEL 10
REMARK VINA RESULT:      -8.1      2.045      2.707
REMARK  7 active torsions:
REMARK  status: ('A' for Active; 'I' for Inactive)
REMARK    1  A    between atoms: C_8  and  C_9 
REMARK    2  A    between atoms: C_9  and  N_10 
REMARK    3  A    between atoms: C_14  and  C_15 
REMARK    4  A    between atoms: C_15  and  C_16 
REMARK    5  A    between atoms: C_16  and  C_17 
REMARK    6  A    between atoms: N_27  and  C_28 
REMARK    7  A    between atoms: C_28  and  C_29 
ROOT
HETATM    1  C   UNL     1      41.274 -14.643   3.691  1.00  0.00     0.123 A 
HETATM    2  N   UNL     1      40.000 -13.942   3.653  1.00  0.00    -0.324 N 
HETATM    3  C   UNL     1      39.905 -12.915   4.560  1.00  0.00     0.326 A 
HETATM    4  O   UNL     1      38.925 -12.207   4.690  1.00  0.00    -0.247 OA
HETATM    5  N   UNL     1      41.090 -12.825   5.221  1.00  0.00    -0.268 N 
HETATM    6  C   UNL     1      41.946 -13.796   4.792  1.00  0.00     0.257 A 
HETATM    7  O   UNL     1      43.099 -13.945   5.174  1.00  0.00    -0.270 OA
HETATM    8  H   UNL     1      39.188 -14.216   3.106  1.00  0.00     0.165 HD
ENDROOT
BRANCH   1   9
HETATM    9  C   UNL     1      41.973 -14.543   2.288  1.00  0.00     0.027 C 
HETATM   10  C   UNL     1      42.618 -13.200   1.905  1.00  0.00     0.035 C 
HETATM   11  C   UNL     1      41.677 -12.123   1.382  1.00  0.00     0.235 C 
HETATM   12  N   UNL     1      40.711 -12.646   0.350  1.00  0.00    -0.067 N 
HETATM   13  H   UNL     1      41.232 -12.724  -0.535  1.00  0.00     0.280 HD
HETATM   14  C   UNL     1      40.095 -13.993   0.615  1.00  0.00     0.235 C 
HETATM   15  C   UNL     1      41.126 -15.004   1.084  1.00  0.00     0.035 C 
BRANCH  12  16
HETATM   16  C   UNL     1      39.597 -11.638   0.089  1.00  0.00     0.278 C 
BRANCH  16  17
HETATM   17  C   UNL     1      39.601 -11.068  -1.273  1.00  0.00     0.034 A 
HETATM   18  C   UNL     1      38.656 -11.262  -2.321  1.00  0.00     0.062 A 
HETATM   19  C   UNL     1      37.403 -12.064  -2.309  1.00  0.00     0.073 C 
HETATM   20  N   UNL     1      38.998 -10.593  -3.427  1.00  0.00    -0.176 NA
HETATM   21  N   UNL     1      40.179 -10.017  -3.131  1.00  0.00    -0.262 N 
HETATM   22  C   UNL     1      40.892  -9.285  -4.152  1.00  0.00     0.181 C 
HETATM   23  C   UNL     1      40.546 -10.247  -1.840  1.00  0.00     0.131 A 
HETATM   24 CL   UNL     1      41.970  -9.585  -1.187  1.00  0.00    -0.062 Cl
ENDBRANCH  16  17
ENDBRANCH  12  16
ENDBRANCH   1   9
BRANCH   1  25
HETATM   25  C   UNL     1      41.104 -16.077   4.258  1.00  0.00     0.080 C 
BRANCH  25  26
HETATM   26  C   UNL     1      42.262 -17.013   3.988  1.00  0.00    -0.052 A 
HETATM   27  C   UNL     1      42.317 -17.787   2.823  1.00  0.00     0.049 A 
HETATM   28  C   UNL     1      43.388 -18.652   2.610  1.00  0.00     0.116 A 
HETATM   29  F   UNL     1      43.415 -19.394   1.495  1.00  0.00    -0.206 F 
HETATM   30  C   UNL     1      44.421 -18.759   3.532  1.00  0.00     0.042 A 
HETATM   31  C   UNL     1      44.384 -17.985   4.688  1.00  0.00     0.003 A 
HETATM   32  C   UNL     1      43.313 -17.116   4.915  1.00  0.00     0.007 A 
ENDBRANCH  25  26
ENDBRANCH   1  25
BRANCH   5  33
HETATM   33  C   UNL     1      41.403 -11.809   6.209  1.00  0.00     0.140 C 
BRANCH  33  34
HETATM   34  C   UNL     1      42.443 -10.783   5.732  1.00  0.00    -0.004 C 
HETATM   35  C   UNL     1      41.971 -10.018   4.495  1.00  0.00     0.011 C 
HETATM   36  C   UNL     1      42.745  -9.801   6.867  1.00  0.00     0.011 C 
ENDBRANCH  33  34
ENDBRANCH   5  33
TORSDOF 7
ENDMDL
