MODEL 1
REMARK VINA RESULT:      -8.6      0.000      0.000
REMARK  5 active torsions:
REMARK  status: ('A' for Active; 'I' for Inactive)
REMARK    1  A    between atoms: C_4  and  N_5 
REMARK    2  A    between atoms: C_8  and  N_9 
REMARK    3  A    between atoms: C_14  and  N_15 
REMARK    4  A    between atoms: N_15  and  C_16 
REMARK    5  A    between atoms: C_19  and  C_20 
REMARK       I    between atoms: C_20  and  N_21 
ROOT
HETATM    1  C   UNL     1      39.449 -12.657   5.590  1.00  0.00     0.071 C 
HETATM    2  C   UNL     1      40.911 -12.874   5.336  1.00  0.00     0.053 A 
HETATM    3  N   UNL     1      41.778 -12.127   6.039  1.00  0.00    -0.066 NA
HETATM    4  C   UNL     1      43.091 -12.311   5.787  1.00  0.00     0.751 A 
HETATM    5  N   UNL     1      43.577 -13.180   4.874  1.00  0.00    -0.043 NA
HETATM    6  C   UNL     1      42.690 -13.923   4.194  1.00  0.00     0.149 A 
HETATM    7  C   UNL     1      41.328 -13.803   4.407  1.00  0.00     0.078 A 
ENDROOT
BRANCH   6   8
HETATM    8  N   UNL     1      43.118 -14.859   3.225  1.00  0.00    -0.340 N 
HETATM    9  H   UNL     1      42.842 -14.556   2.297  1.00  0.00     0.167 HD
BRANCH   8  10
HETATM   10  C   UNL     1      43.229 -16.259   3.340  1.00  0.00     0.033 A 
HETATM   11  C   UNL     1      42.927 -17.064   2.230  1.00  0.00     0.030 A 
HETATM   12  C   UNL     1      43.119 -18.451   2.264  1.00  0.00     0.019 A 
HETATM   13  C   UNL     1      43.637 -19.057   3.412  1.00  0.00     0.032 A 
HETATM   14  C   UNL     1      43.969 -18.264   4.514  1.00  0.00     0.019 A 
HETATM   15  C   UNL     1      43.768 -16.879   4.473  1.00  0.00     0.030 A 
BRANCH  13  16
HETATM   16  C   UNL     1      43.901 -20.519   3.490  1.00  0.00     0.249 C 
HETATM   17  N   UNL     1      44.101 -21.061   4.729  1.00  0.00    -0.366 N 
HETATM   18  H   UNL     1      44.308 -20.500   5.542  1.00  0.00     0.159 HD
HETATM   19  H   UNL     1      44.382 -22.033   4.746  1.00  0.00     0.159 HD
HETATM   20  O   UNL     1      43.964 -21.217   2.485  1.00  0.00    -0.268 OA
ENDBRANCH  13  16
ENDBRANCH   8  10
ENDBRANCH   6   8
BRANCH   4  21
HETATM   21  N   UNL     1      44.045 -11.555   6.552  1.00  0.00    -0.069 N 
HETATM   22  N   UNL     1      45.394 -11.774   6.478  1.00  0.00    -0.163 NA
HETATM   23  C   UNL     1      45.927 -10.868   7.301  1.00  0.00     0.177 A 
HETATM   24  C   UNL     1      44.957 -10.063   7.911  1.00  0.00     0.140 A 
HETATM   25  C   UNL     1      43.753 -10.523   7.425  1.00  0.00     0.175 A 
BRANCH  24  26
HETATM   26  N   UNL     1      45.166  -8.990   8.830  1.00  0.00    -0.113 N 
HETATM   27  O   UNL     1      45.359  -9.300  10.012  1.00  0.00    -0.532 OA
HETATM   28  O   UNL     1      45.143  -7.841   8.372  1.00  0.00    -0.532 OA
ENDBRANCH  24  26
ENDBRANCH   4  21
TORSDOF 5
ENDMDL
MODEL 2
REMARK VINA RESULT:      -8.6      5.015      6.820
REMARK  5 active torsions:
REMARK  status: ('A' for Active; 'I' for Inactive)
REMARK    1  A    between atoms: C_4  and  N_5 
REMARK    2  A    between atoms: C_8  and  N_9 
REMARK    3  A    between atoms: C_14  and  N_15 
REMARK    4  A    between atoms: N_15  and  C_16 
REMARK    5  A    between atoms: C_19  and  C_20 
REMARK       I    between atoms: C_20  and  N_21 
ROOT
HETATM    1  C   UNL     1      39.176 -12.332   5.426  1.00  0.00     0.071 C 
HETATM    2  C   UNL     1      40.000 -12.951   4.337  1.00  0.00     0.053 A 
HETATM    3  N   UNL     1      39.566 -12.806   3.074  1.00  0.00    -0.066 NA
HETATM    4  C   UNL     1      40.300 -13.387   2.103  1.00  0.00     0.751 A 
HETATM    5  N   UNL     1      41.422 -14.107   2.322  1.00  0.00    -0.043 NA
HETATM    6  C   UNL     1      41.841 -14.226   3.591  1.00  0.00     0.149 A 
HETATM    7  C   UNL     1      41.151 -13.646   4.641  1.00  0.00     0.078 A 
ENDROOT
BRANCH   6   8
HETATM    8  N   UNL     1      43.008 -14.959   3.905  1.00  0.00    -0.340 N 
HETATM    9  H   UNL     1      43.826 -14.363   3.841  1.00  0.00     0.167 HD
BRANCH   8  10
HETATM   10  C   UNL     1      43.292 -16.316   3.651  1.00  0.00     0.033 A 
HETATM   11  C   UNL     1      43.848 -17.103   4.672  1.00  0.00     0.030 A 
HETATM   12  C   UNL     1      44.053 -18.478   4.501  1.00  0.00     0.019 A 
HETATM   13  C   UNL     1      43.686 -19.096   3.302  1.00  0.00     0.032 A 
HETATM   14  C   UNL     1      43.105 -18.329   2.288  1.00  0.00     0.019 A 
HETATM   15  C   UNL     1      42.910 -16.954   2.465  1.00  0.00     0.030 A 
BRANCH  13  16
HETATM   16  C   UNL     1      43.842 -20.558   3.080  1.00  0.00     0.249 C 
HETATM   17  N   UNL     1      44.067 -21.344   4.176  1.00  0.00    -0.366 N 
HETATM   18  H   UNL     1      44.358 -20.968   5.066  1.00  0.00     0.159 HD
HETATM   19  H   UNL     1      44.275 -22.317   3.986  1.00  0.00     0.159 HD
HETATM   20  O   UNL     1      43.800 -21.047   1.958  1.00  0.00    -0.268 OA
ENDBRANCH  13  16
ENDBRANCH   8  10
ENDBRANCH   6   8
BRANCH   4  21
HETATM   21  N   UNL     1      39.882 -13.216   0.738  1.00  0.00    -0.069 N 
HETATM   22  N   UNL     1      38.948 -12.289   0.360  1.00  0.00    -0.163 NA
HETATM   23  C   UNL     1      38.859 -12.422  -0.966  1.00  0.00     0.177 A 
HETATM   24  C   UNL     1      39.714 -13.415  -1.461  1.00  0.00     0.140 A 
HETATM   25  C   UNL     1      40.357 -13.921  -0.353  1.00  0.00     0.175 A 
BRANCH  24  26
HETATM   26  N   UNL     1      39.891 -13.814  -2.821  1.00  0.00    -0.113 N 
HETATM   27  O   UNL     1      40.917 -13.420  -3.387  1.00  0.00    -0.532 OA
HETATM   28  O   UNL     1      39.008 -14.523  -3.322  1.00  0.00    -0.532 OA
ENDBRANCH  24  26
ENDBRANCH   4  21
TORSDOF 5
ENDMDL
MODEL 3
REMARK VINA RESULT:      -8.2      1.591      8.660
REMARK  5 active torsions:
REMARK  status: ('A' for Active; 'I' for Inactive)
REMARK    1  A    between atoms: C_4  and  N_5 
REMARK    2  A    between atoms: C_8  and  N_9 
REMARK    3  A    between atoms: C_14  and  N_15 
REMARK    4  A    between atoms: N_15  and  C_16 
REMARK    5  A    between atoms: C_19  and  C_20 
REMARK       I    between atoms: C_20  and  N_21 
ROOT
HETATM    1  C   UNL     1      41.411 -13.516   1.064  1.00  0.00     0.071 C 
HETATM    2  C   UNL     1      41.882 -14.061   2.379  1.00  0.00     0.053 A 
HETATM    3  N   UNL     1      42.366 -15.314   2.391  1.00  0.00    -0.066 NA
HETATM    4  C   UNL     1      42.765 -15.806   3.582  1.00  0.00     0.751 A 
HETATM    5  N   UNL     1      42.696 -15.128   4.749  1.00  0.00    -0.043 NA
HETATM    6  C   UNL     1      42.220 -13.874   4.707  1.00  0.00     0.149 A 
HETATM    7  C   UNL     1      41.805 -13.295   3.521  1.00  0.00     0.078 A 
ENDROOT
BRANCH   6   8
HETATM    8  N   UNL     1      42.119 -13.097   5.883  1.00  0.00    -0.340 N 
HETATM    9  H   UNL     1      41.163 -12.791   6.022  1.00  0.00     0.167 HD
BRANCH   8  10
HETATM   10  C   UNL     1      43.068 -12.217   6.443  1.00  0.00     0.033 A 
HETATM   11  C   UNL     1      44.430 -12.554   6.389  1.00  0.00     0.030 A 
HETATM   12  C   UNL     1      45.417 -11.668   6.840  1.00  0.00     0.019 A 
HETATM   13  C   UNL     1      45.055 -10.413   7.339  1.00  0.00     0.032 A 
HETATM   14  C   UNL     1      43.704 -10.054   7.371  1.00  0.00     0.019 A 
HETATM   15  C   UNL     1      42.724 -10.949   6.925  1.00  0.00     0.030 A 
BRANCH  13  16
HETATM   16  C   UNL     1      46.061  -9.416   7.792  1.00  0.00     0.249 C 
HETATM   17  N   UNL     1      47.379  -9.772   7.724  1.00  0.00    -0.366 N 
HETATM   18  H   UNL     1      47.680 -10.728   7.609  1.00  0.00     0.159 HD
HETATM   19  H   UNL     1      48.035  -9.120   8.136  1.00  0.00     0.159 HD
HETATM   20  O   UNL     1      45.731  -8.324   8.237  1.00  0.00    -0.268 OA
ENDBRANCH  13  16
ENDBRANCH   8  10
ENDBRANCH   6   8
BRANCH   4  21
HETATM   21  N   UNL     1      43.325 -17.130   3.620  1.00  0.00    -0.069 N 
HETATM   22  N   UNL     1      44.222 -17.527   4.575  1.00  0.00    -0.163 NA
HETATM   23  C   UNL     1      44.475 -18.806   4.287  1.00  0.00     0.177 A 
HETATM   24  C   UNL     1      43.764 -19.252   3.166  1.00  0.00     0.140 A 
HETATM   25  C   UNL     1      43.037 -18.161   2.744  1.00  0.00     0.175 A 
BRANCH  24  26
HETATM   26  N   UNL     1      43.778 -20.558   2.587  1.00  0.00    -0.113 N 
HETATM   27  O   UNL     1      43.496 -20.636   1.385  1.00  0.00    -0.532 OA
HETATM   28  O   UNL     1      44.076 -21.502   3.329  1.00  0.00    -0.532 OA
ENDBRANCH  24  26
ENDBRANCH   4  21
TORSDOF 5
ENDMDL
MODEL 4
REMARK VINA RESULT:      -8.2      4.965      8.246
REMARK  5 active torsions:
REMARK  status: ('A' for Active; 'I' for Inactive)
REMARK    1  A    between atoms: C_4  and  N_5 
REMARK    2  A    between atoms: C_8  and  N_9 
REMARK    3  A    between atoms: C_14  and  N_15 
REMARK    4  A    between atoms: N_15  and  C_16 
REMARK    5  A    between atoms: C_19  and  C_20 
REMARK       I    between atoms: C_20  and  N_21 
ROOT
HETATM    1  C   UNL     1      41.767 -13.201   5.889  1.00  0.00     0.071 C 
HETATM    2  C   UNL     1      42.096 -13.895   4.601  1.00  0.00     0.053 A 
HETATM    3  N   UNL     1      42.591 -15.141   4.679  1.00  0.00    -0.066 NA
HETATM    4  C   UNL     1      42.908 -15.750   3.518  1.00  0.00     0.751 A 
HETATM    5  N   UNL     1      42.772 -15.184   2.299  1.00  0.00    -0.043 NA
HETATM    6  C   UNL     1      42.264 -13.943   2.247  1.00  0.00     0.149 A 
HETATM    7  C   UNL     1      41.900 -13.259   3.394  1.00  0.00     0.078 A 
ENDROOT
BRANCH   6   8
HETATM    8  N   UNL     1      42.085 -13.282   1.010  1.00  0.00    -0.340 N 
HETATM    9  H   UNL     1      42.437 -12.333   1.064  1.00  0.00     0.167 HD
BRANCH   8  10
HETATM   10  C   UNL     1      41.044 -13.434   0.072  1.00  0.00     0.033 A 
HETATM   11  C   UNL     1      40.779 -12.394  -0.832  1.00  0.00     0.030 A 
HETATM   12  C   UNL     1      39.824 -12.538  -1.847  1.00  0.00     0.019 A 
HETATM   13  C   UNL     1      39.126 -13.741  -1.984  1.00  0.00     0.032 A 
HETATM   14  C   UNL     1      39.400 -14.794  -1.107  1.00  0.00     0.019 A 
HETATM   15  C   UNL     1      40.352 -14.639  -0.093  1.00  0.00     0.030 A 
BRANCH  13  16
HETATM   16  C   UNL     1      38.131 -13.964  -3.067  1.00  0.00     0.249 C 
HETATM   17  N   UNL     1      37.016 -13.172  -3.076  1.00  0.00    -0.366 N 
HETATM   18  H   UNL     1      36.731 -12.624  -2.279  1.00  0.00     0.159 HD
HETATM   19  H   UNL     1      36.308 -13.414  -3.758  1.00  0.00     0.159 HD
HETATM   20  O   UNL     1      38.282 -14.841  -3.909  1.00  0.00    -0.268 OA
ENDBRANCH  13  16
ENDBRANCH   8  10
ENDBRANCH   6   8
BRANCH   4  21
HETATM   21  N   UNL     1      43.403 -17.099   3.567  1.00  0.00    -0.069 N 
HETATM   22  N   UNL     1      44.221 -17.551   4.567  1.00  0.00    -0.163 NA
HETATM   23  C   UNL     1      44.432 -18.836   4.273  1.00  0.00     0.177 A 
HETATM   24  C   UNL     1      43.769 -19.233   3.105  1.00  0.00     0.140 A 
HETATM   25  C   UNL     1      43.120 -18.103   2.659  1.00  0.00     0.175 A 
BRANCH  24  26
HETATM   26  N   UNL     1      43.758 -20.530   2.507  1.00  0.00    -0.113 N 
HETATM   27  O   UNL     1      44.032 -21.485   3.243  1.00  0.00    -0.532 OA
HETATM   28  O   UNL     1      43.471 -20.595   1.305  1.00  0.00    -0.532 OA
ENDBRANCH  24  26
ENDBRANCH   4  21
TORSDOF 5
ENDMDL
MODEL 5
REMARK VINA RESULT:      -7.8      3.816      5.370
REMARK  5 active torsions:
REMARK  status: ('A' for Active; 'I' for Inactive)
REMARK    1  A    between atoms: C_4  and  N_5 
REMARK    2  A    between atoms: C_8  and  N_9 
REMARK    3  A    between atoms: C_14  and  N_15 
REMARK    4  A    between atoms: N_15  and  C_16 
REMARK    5  A    between atoms: C_19  and  C_20 
REMARK       I    between atoms: C_20  and  N_21 
ROOT
HETATM    1  C   UNL     1      43.334 -17.373   5.036  1.00  0.00     0.071 C 
HETATM    2  C   UNL     1      42.706 -16.027   4.834  1.00  0.00     0.053 A 
HETATM    3  N   UNL     1      43.206 -14.999   5.539  1.00  0.00    -0.066 NA
HETATM    4  C   UNL     1      42.620 -13.796   5.370  1.00  0.00     0.751 A 
HETATM    5  N   UNL     1      41.566 -13.569   4.556  1.00  0.00    -0.043 NA
HETATM    6  C   UNL     1      41.093 -14.610   3.853  1.00  0.00     0.149 A 
HETATM    7  C   UNL     1      41.651 -15.872   3.961  1.00  0.00     0.078 A 
ENDROOT
BRANCH   6   8
HETATM    8  N   UNL     1      39.996 -14.456   2.976  1.00  0.00    -0.340 N 
HETATM    9  H   UNL     1      39.230 -15.056   3.260  1.00  0.00     0.167 HD
BRANCH   8  10
HETATM   10  C   UNL     1      40.004 -14.188   1.592  1.00  0.00     0.033 A 
HETATM   11  C   UNL     1      40.401 -12.920   1.141  1.00  0.00     0.030 A 
HETATM   12  C   UNL     1      40.524 -12.638  -0.226  1.00  0.00     0.019 A 
HETATM   13  C   UNL     1      40.265 -13.636  -1.170  1.00  0.00     0.032 A 
HETATM   14  C   UNL     1      39.897 -14.912  -0.734  1.00  0.00     0.019 A 
HETATM   15  C   UNL     1      39.771 -15.181   0.634  1.00  0.00     0.030 A 
BRANCH  13  16
HETATM   16  C   UNL     1      40.419 -13.406  -2.632  1.00  0.00     0.249 C 
HETATM   17  N   UNL     1      41.579 -12.826  -3.063  1.00  0.00    -0.366 N 
HETATM   18  H   UNL     1      42.213 -12.348  -2.441  1.00  0.00     0.159 HD
HETATM   19  H   UNL     1      41.614 -12.585  -4.046  1.00  0.00     0.159 HD
HETATM   20  O   UNL     1      39.533 -13.698  -3.426  1.00  0.00    -0.268 OA
ENDBRANCH  13  16
ENDBRANCH   8  10
ENDBRANCH   6   8
BRANCH   4  21
HETATM   21  N   UNL     1      43.159 -12.668   6.081  1.00  0.00    -0.069 N 
HETATM   22  N   UNL     1      42.513 -11.464   6.157  1.00  0.00    -0.163 NA
HETATM   23  C   UNL     1      43.309 -10.703   6.911  1.00  0.00     0.177 A 
HETATM   24  C   UNL     1      44.460 -11.384   7.330  1.00  0.00     0.140 A 
HETATM   25  C   UNL     1      44.351 -12.642   6.781  1.00  0.00     0.175 A 
BRANCH  24  26
HETATM   26  N   UNL     1      45.514 -10.888   8.156  1.00  0.00    -0.113 N 
HETATM   27  O   UNL     1      46.551 -10.537   7.582  1.00  0.00    -0.532 OA
HETATM   28  O   UNL     1      45.305 -10.846   9.375  1.00  0.00    -0.532 OA
ENDBRANCH  24  26
ENDBRANCH   4  21
TORSDOF 5
ENDMDL
MODEL 6
REMARK VINA RESULT:      -7.4      5.979      7.358
REMARK  5 active torsions:
REMARK  status: ('A' for Active; 'I' for Inactive)
REMARK    1  A    between atoms: C_4  and  N_5 
REMARK    2  A    between atoms: C_8  and  N_9 
REMARK    3  A    between atoms: C_14  and  N_15 
REMARK    4  A    between atoms: N_15  and  C_16 
REMARK    5  A    between atoms: C_19  and  C_20 
REMARK       I    between atoms: C_20  and  N_21 
ROOT
HETATM    1  C   UNL     1      38.687 -15.160  -2.724  1.00  0.00     0.071 C 
HETATM    2  C   UNL     1      39.433 -14.222  -1.823  1.00  0.00     0.053 A 
HETATM    3  N   UNL     1      39.812 -13.040  -2.337  1.00  0.00    -0.066 NA
HETATM    4  C   UNL     1      40.505 -12.212  -1.528  1.00  0.00     0.751 A 
HETATM    5  N   UNL     1      40.846 -12.502  -0.253  1.00  0.00    -0.043 NA
HETATM    6  C   UNL     1      40.445 -13.683   0.241  1.00  0.00     0.149 A 
HETATM    7  C   UNL     1      39.718 -14.579  -0.523  1.00  0.00     0.078 A 
ENDROOT
BRANCH   6   8
HETATM    8  N   UNL     1      40.757 -14.059   1.567  1.00  0.00    -0.340 N 
HETATM    9  H   UNL     1      40.910 -13.237   2.140  1.00  0.00     0.167 HD
BRANCH   8  10
HETATM   10  C   UNL     1      41.471 -15.188   2.018  1.00  0.00     0.033 A 
HETATM   11  C   UNL     1      42.688 -15.521   1.404  1.00  0.00     0.030 A 
HETATM   12  C   UNL     1      43.482 -16.571   1.882  1.00  0.00     0.019 A 
HETATM   13  C   UNL     1      43.075 -17.299   3.004  1.00  0.00     0.032 A 
HETATM   14  C   UNL     1      41.879 -16.960   3.643  1.00  0.00     0.019 A 
HETATM   15  C   UNL     1      41.089 -15.913   3.153  1.00  0.00     0.030 A 
BRANCH  13  16
HETATM   16  C   UNL     1      43.897 -18.397   3.580  1.00  0.00     0.249 C 
HETATM   17  N   UNL     1      43.814 -19.627   2.989  1.00  0.00    -0.366 N 
HETATM   18  H   UNL     1      43.071 -19.877   2.353  1.00  0.00     0.159 HD
HETATM   19  H   UNL     1      44.299 -20.378   3.463  1.00  0.00     0.159 HD
HETATM   20  O   UNL     1      44.605 -18.223   4.564  1.00  0.00    -0.268 OA
ENDBRANCH  13  16
ENDBRANCH   8  10
ENDBRANCH   6   8
BRANCH   4  21
HETATM   21  N   UNL     1      40.890 -10.924  -2.038  1.00  0.00    -0.069 N 
HETATM   22  N   UNL     1      40.404 -10.418  -3.214  1.00  0.00    -0.163 NA
HETATM   23  C   UNL     1      40.970  -9.214  -3.320  1.00  0.00     0.177 A 
HETATM   24  C   UNL     1      41.813  -8.922  -2.240  1.00  0.00     0.140 A 
HETATM   25  C   UNL     1      41.757 -10.035  -1.431  1.00  0.00     0.175 A 
BRANCH  24  26
HETATM   26  N   UNL     1      42.563  -7.727  -2.018  1.00  0.00    -0.113 N 
HETATM   27  O   UNL     1      42.172  -6.708  -2.600  1.00  0.00    -0.532 OA
HETATM   28  O   UNL     1      43.538  -7.805  -1.261  1.00  0.00    -0.532 OA
ENDBRANCH  24  26
ENDBRANCH   4  21
TORSDOF 5
ENDMDL
MODEL 7
REMARK VINA RESULT:      -7.3      1.578      2.034
REMARK  5 active torsions:
REMARK  status: ('A' for Active; 'I' for Inactive)
REMARK    1  A    between atoms: C_4  and  N_5 
REMARK    2  A    between atoms: C_8  and  N_9 
REMARK    3  A    between atoms: C_14  and  N_15 
REMARK    4  A    between atoms: N_15  and  C_16 
REMARK    5  A    between atoms: C_19  and  C_20 
REMARK       I    between atoms: C_20  and  N_21 
ROOT
HETATM    1  C   UNL     1      39.103 -13.406   2.761  1.00  0.00     0.071 C 
HETATM    2  C   UNL     1      40.340 -13.282   3.600  1.00  0.00     0.053 A 
HETATM    3  N   UNL     1      40.394 -12.264   4.475  1.00  0.00    -0.066 NA
HETATM    4  C   UNL     1      41.519 -12.144   5.209  1.00  0.00     0.751 A 
HETATM    5  N   UNL     1      42.586 -12.968   5.109  1.00  0.00    -0.043 NA
HETATM    6  C   UNL     1      42.501 -13.984   4.237  1.00  0.00     0.149 A 
HETATM    7  C   UNL     1      41.374 -14.182   3.460  1.00  0.00     0.078 A 
ENDROOT
BRANCH   6   8
HETATM    8  N   UNL     1      43.572 -14.893   4.076  1.00  0.00    -0.340 N 
HETATM    9  H   UNL     1      44.360 -14.434   3.635  1.00  0.00     0.167 HD
BRANCH   8  10
HETATM   10  C   UNL     1      43.521 -16.278   3.816  1.00  0.00     0.033 A 
HETATM   11  C   UNL     1      43.208 -16.721   2.521  1.00  0.00     0.030 A 
HETATM   12  C   UNL     1      43.245 -18.081   2.189  1.00  0.00     0.019 A 
HETATM   13  C   UNL     1      43.616 -19.025   3.150  1.00  0.00     0.032 A 
HETATM   14  C   UNL     1      43.958 -18.595   4.435  1.00  0.00     0.019 A 
HETATM   15  C   UNL     1      43.912 -17.234   4.760  1.00  0.00     0.030 A 
BRANCH  13  16
HETATM   16  C   UNL     1      43.712 -20.478   2.843  1.00  0.00     0.249 C 
HETATM   17  N   UNL     1      43.964 -21.329   3.882  1.00  0.00    -0.366 N 
HETATM   18  H   UNL     1      44.310 -21.011   4.775  1.00  0.00     0.159 HD
HETATM   19  H   UNL     1      44.129 -22.296   3.632  1.00  0.00     0.159 HD
HETATM   20  O   UNL     1      43.598 -20.903   1.700  1.00  0.00    -0.268 OA
ENDBRANCH  13  16
ENDBRANCH   8  10
ENDBRANCH   6   8
BRANCH   4  21
HETATM   21  N   UNL     1      41.590 -11.088   6.181  1.00  0.00    -0.069 N 
HETATM   22  N   UNL     1      40.478 -10.466   6.682  1.00  0.00    -0.163 NA
HETATM   23  C   UNL     1      40.954  -9.581   7.560  1.00  0.00     0.177 A 
HETATM   24  C   UNL     1      42.352  -9.611   7.645  1.00  0.00     0.140 A 
HETATM   25  C   UNL     1      42.745 -10.577   6.746  1.00  0.00     0.175 A 
BRANCH  24  26
HETATM   26  N   UNL     1      43.192  -8.818   8.486  1.00  0.00    -0.113 N 
HETATM   27  O   UNL     1      43.442  -9.273   9.608  1.00  0.00    -0.532 OA
HETATM   28  O   UNL     1      43.604  -7.747   8.024  1.00  0.00    -0.532 OA
ENDBRANCH  24  26
ENDBRANCH   4  21
TORSDOF 5
ENDMDL
MODEL 8
REMARK VINA RESULT:      -7.2     18.177     21.566
REMARK  5 active torsions:
REMARK  status: ('A' for Active; 'I' for Inactive)
REMARK    1  A    between atoms: C_4  and  N_5 
REMARK    2  A    between atoms: C_8  and  N_9 
REMARK    3  A    between atoms: C_14  and  N_15 
REMARK    4  A    between atoms: N_15  and  C_16 
REMARK    5  A    between atoms: C_19  and  C_20 
REMARK       I    between atoms: C_20  and  N_21 
ROOT
HETATM    1  C   UNL     1      35.814 -33.134   3.969  1.00  0.00     0.071 C 
HETATM    2  C   UNL     1      36.510 -33.510   5.243  1.00  0.00     0.053 A 
HETATM    3  N   UNL     1      37.713 -32.959   5.476  1.00  0.00    -0.066 NA
HETATM    4  C   UNL     1      38.344 -33.321   6.612  1.00  0.00     0.751 A 
HETATM    5  N   UNL     1      37.852 -34.202   7.510  1.00  0.00    -0.043 NA
HETATM    6  C   UNL     1      36.643 -34.728   7.260  1.00  0.00     0.149 A 
HETATM    7  C   UNL     1      35.927 -34.395   6.123  1.00  0.00     0.078 A 
ENDROOT
BRANCH   6   8
HETATM    8  N   UNL     1      36.055 -35.654   8.152  1.00  0.00    -0.340 N 
HETATM    9  H   UNL     1      36.274 -36.603   7.870  1.00  0.00     0.167 HD
BRANCH   8  10
HETATM   10  C   UNL     1      34.836 -35.552   8.851  1.00  0.00     0.033 A 
HETATM   11  C   UNL     1      34.726 -34.636   9.908  1.00  0.00     0.030 A 
HETATM   12  C   UNL     1      33.507 -34.426  10.566  1.00  0.00     0.019 A 
HETATM   13  C   UNL     1      32.365 -35.124  10.161  1.00  0.00     0.032 A 
HETATM   14  C   UNL     1      32.455 -36.018   9.090  1.00  0.00     0.019 A 
HETATM   15  C   UNL     1      33.678 -36.226   8.443  1.00  0.00     0.030 A 
BRANCH  13  16
HETATM   16  C   UNL     1      31.036 -34.912  10.795  1.00  0.00     0.249 C 
HETATM   17  N   UNL     1      30.919 -35.192  12.128  1.00  0.00    -0.366 N 
HETATM   18  H   UNL     1      31.601 -35.739  12.632  1.00  0.00     0.159 HD
HETATM   19  H   UNL     1      29.983 -35.140  12.510  1.00  0.00     0.159 HD
HETATM   20  O   UNL     1      30.069 -34.527  10.150  1.00  0.00    -0.268 OA
ENDBRANCH  13  16
ENDBRANCH   8  10
ENDBRANCH   6   8
BRANCH   4  21
HETATM   21  N   UNL     1      39.615 -32.717   6.908  1.00  0.00    -0.069 N 
HETATM   22  N   UNL     1      40.473 -32.282   5.935  1.00  0.00    -0.163 NA
HETATM   23  C   UNL     1      41.509 -31.770   6.603  1.00  0.00     0.177 A 
HETATM   24  C   UNL     1      41.346 -31.860   7.992  1.00  0.00     0.140 A 
HETATM   25  C   UNL     1      40.128 -32.479   8.170  1.00  0.00     0.175 A 
BRANCH  24  26
HETATM   26  N   UNL     1      42.241 -31.402   9.006  1.00  0.00    -0.113 N 
HETATM   27  O   UNL     1      41.730 -31.008  10.061  1.00  0.00    -0.532 OA
HETATM   28  O   UNL     1      43.451 -31.442   8.751  1.00  0.00    -0.532 OA
ENDBRANCH  24  26
ENDBRANCH   4  21
TORSDOF 5
ENDMDL
MODEL 9
REMARK VINA RESULT:      -7.2      4.412      7.352
REMARK  5 active torsions:
REMARK  status: ('A' for Active; 'I' for Inactive)
REMARK    1  A    between atoms: C_4  and  N_5 
REMARK    2  A    between atoms: C_8  and  N_9 
REMARK    3  A    between atoms: C_14  and  N_15 
REMARK    4  A    between atoms: N_15  and  C_16 
REMARK    5  A    between atoms: C_19  and  C_20 
REMARK       I    between atoms: C_20  and  N_21 
ROOT
HETATM    1  C   UNL     1      42.770 -10.493   5.376  1.00  0.00     0.071 C 
HETATM    2  C   UNL     1      42.578 -11.533   4.313  1.00  0.00     0.053 A 
HETATM    3  N   UNL     1      42.892 -12.801   4.624  1.00  0.00    -0.066 NA
HETATM    4  C   UNL     1      42.740 -13.727   3.655  1.00  0.00     0.751 A 
HETATM    5  N   UNL     1      42.310 -13.456   2.403  1.00  0.00    -0.043 NA
HETATM    6  C   UNL     1      41.991 -12.183   2.121  1.00  0.00     0.149 A 
HETATM    7  C   UNL     1      42.105 -11.180   3.068  1.00  0.00     0.078 A 
ENDROOT
BRANCH   6   8
HETATM    8  N   UNL     1      41.528 -11.818   0.837  1.00  0.00    -0.340 N 
HETATM    9  H   UNL     1      41.330 -10.825   0.803  1.00  0.00     0.167 HD
BRANCH   8  10
HETATM   10  C   UNL     1      40.747 -12.569  -0.065  1.00  0.00     0.033 A 
HETATM   11  C   UNL     1      40.639 -12.142  -1.398  1.00  0.00     0.030 A 
HETATM   12  C   UNL     1      39.959 -12.908  -2.354  1.00  0.00     0.019 A 
HETATM   13  C   UNL     1      39.387 -14.131  -1.992  1.00  0.00     0.032 A 
HETATM   14  C   UNL     1      39.512 -14.581  -0.675  1.00  0.00     0.019 A 
HETATM   15  C   UNL     1      40.188 -13.806   0.275  1.00  0.00     0.030 A 
BRANCH  13  16
HETATM   16  C   UNL     1      38.689 -15.004  -2.974  1.00  0.00     0.249 C 
HETATM   17  N   UNL     1      38.255 -16.225  -2.538  1.00  0.00    -0.366 N 
HETATM   18  H   UNL     1      38.582 -16.645  -1.680  1.00  0.00     0.159 HD
HETATM   19  H   UNL     1      37.880 -16.840  -3.249  1.00  0.00     0.159 HD
HETATM   20  O   UNL     1      38.527 -14.663  -4.139  1.00  0.00    -0.268 OA
ENDBRANCH  13  16
ENDBRANCH   8  10
ENDBRANCH   6   8
BRANCH   4  21
HETATM   21  N   UNL     1      43.031 -15.099   3.970  1.00  0.00    -0.069 N 
HETATM   22  N   UNL     1      43.102 -15.564   5.256  1.00  0.00    -0.163 NA
HETATM   23  C   UNL     1      43.359 -16.868   5.128  1.00  0.00     0.177 A 
HETATM   24  C   UNL     1      43.458 -17.264   3.788  1.00  0.00     0.140 A 
HETATM   25  C   UNL     1      43.253 -16.115   3.058  1.00  0.00     0.175 A 
BRANCH  24  26
HETATM   26  N   UNL     1      43.707 -18.577   3.283  1.00  0.00    -0.113 N 
HETATM   27  O   UNL     1      43.007 -18.950   2.334  1.00  0.00    -0.532 OA
HETATM   28  O   UNL     1      44.602 -19.232   3.831  1.00  0.00    -0.532 OA
ENDBRANCH  24  26
ENDBRANCH   4  21
TORSDOF 5
ENDMDL
MODEL 10
REMARK VINA RESULT:      -7.2      5.022      7.592
REMARK  5 active torsions:
REMARK  status: ('A' for Active; 'I' for Inactive)
REMARK    1  A    between atoms: C_4  and  N_5 
REMARK    2  A    between atoms: C_8  and  N_9 
REMARK    3  A    between atoms: C_14  and  N_15 
REMARK    4  A    between atoms: N_15  and  C_16 
REMARK    5  A    between atoms: C_19  and  C_20 
REMARK       I    between atoms: C_20  and  N_21 
ROOT
HETATM    1  C   UNL     1      38.373  -9.129   3.867  1.00  0.00     0.071 C 
HETATM    2  C   UNL     1      38.732 -10.486   3.340  1.00  0.00     0.053 A 
HETATM    3  N   UNL     1      38.575 -10.700   2.023  1.00  0.00    -0.066 NA
HETATM    4  C   UNL     1      38.876 -11.930   1.560  1.00  0.00     0.751 A 
HETATM    5  N   UNL     1      39.309 -12.950   2.333  1.00  0.00    -0.043 NA
HETATM    6  C   UNL     1      39.470 -12.708   3.643  1.00  0.00     0.149 A 
HETATM    7  C   UNL     1      39.196 -11.466   4.190  1.00  0.00     0.078 A 
ENDROOT
BRANCH   6   8
HETATM    8  N   UNL     1      39.924 -13.720   4.519  1.00  0.00    -0.340 N 
HETATM    9  H   UNL     1      39.904 -13.391   5.477  1.00  0.00     0.167 HD
BRANCH   8  10
HETATM   10  C   UNL     1      40.904 -14.708   4.292  1.00  0.00     0.033 A 
HETATM   11  C   UNL     1      42.091 -14.679   5.039  1.00  0.00     0.030 A 
HETATM   12  C   UNL     1      43.049 -15.694   4.923  1.00  0.00     0.019 A 
HETATM   13  C   UNL     1      42.824 -16.772   4.062  1.00  0.00     0.032 A 
HETATM   14  C   UNL     1      41.632 -16.828   3.334  1.00  0.00     0.019 A 
HETATM   15  C   UNL     1      40.684 -15.805   3.452  1.00  0.00     0.030 A 
BRANCH  13  16
HETATM   16  C   UNL     1      43.786 -17.899   3.929  1.00  0.00     0.249 C 
HETATM   17  N   UNL     1      43.937 -18.459   2.691  1.00  0.00    -0.366 N 
HETATM   18  H   UNL     1      43.280 -18.308   1.941  1.00  0.00     0.159 HD
HETATM   19  H   UNL     1      44.516 -19.288   2.649  1.00  0.00     0.159 HD
HETATM   20  O   UNL     1      44.405 -18.334   4.892  1.00  0.00    -0.268 OA
ENDBRANCH  13  16
ENDBRANCH   8  10
ENDBRANCH   6   8
BRANCH   4  21
HETATM   21  N   UNL     1      38.755 -12.177   0.149  1.00  0.00    -0.069 N 
HETATM   22  N   UNL     1      37.855 -11.517  -0.643  1.00  0.00    -0.163 NA
HETATM   23  C   UNL     1      38.070 -11.999  -1.870  1.00  0.00     0.177 A 
HETATM   24  C   UNL     1      39.091 -12.958  -1.896  1.00  0.00     0.140 A 
HETATM   25  C   UNL     1      39.514 -13.066  -0.590  1.00  0.00     0.175 A 
BRANCH  24  26
HETATM   26  N   UNL     1      39.594 -13.665  -3.030  1.00  0.00    -0.113 N 
HETATM   27  O   UNL     1      40.777 -13.467  -3.329  1.00  0.00    -0.532 OA
HETATM   28  O   UNL     1      38.810 -14.421  -3.618  1.00  0.00    -0.532 OA
ENDBRANCH  24  26
ENDBRANCH   4  21
TORSDOF 5
ENDMDL
