MODEL 1
REMARK VINA RESULT:      -8.5      0.000      0.000
REMARK  10 active torsions:
REMARK  status: ('A' for Active; 'I' for Inactive)
REMARK    1  A    between atoms: O_2  and  C_3 
REMARK    2  A    between atoms: C_3  and  C_4 
REMARK    3  A    between atoms: C_8  and  N_9 
REMARK       I    between atoms: N_9  and  C_10 
REMARK    4  A    between atoms: C_10  and  C_11 
REMARK    5  A    between atoms: C_12  and  C_13 
REMARK    6  A    between atoms: C_22  and  C_23 
REMARK    7  A    between atoms: C_23  and  N_24 
REMARK    8  A    between atoms: C_26  and  C_27 
REMARK    9  A    between atoms: C_27  and  C_28 
REMARK   10  A    between atoms: C_28  and  O_29 
ROOT
HETATM    1  C   UNL     1      40.600 -11.887   4.438  1.00  0.00     0.110 C 
HETATM    2  S   UNL     1      40.416 -10.335   5.138  1.00  0.00    -0.061 SA
HETATM    3  C   UNL     1      41.855 -10.480   6.023  1.00  0.00     0.111 A 
HETATM    4  C   UNL     1      42.487 -11.704   5.827  1.00  0.00     0.028 A 
HETATM    5  C   UNL     1      41.801 -12.485   4.816  1.00  0.00     0.071 C 
HETATM    6  N   UNL     1      42.253  -9.472   6.837  1.00  0.00    -0.243 NA
HETATM    7  C   UNL     1      43.376  -9.738   7.549  1.00  0.00     0.061 A 
HETATM    8  C   UNL     1      44.070 -10.936   7.497  1.00  0.00     0.030 A 
HETATM    9  C   UNL     1      43.615 -11.937   6.645  1.00  0.00     0.019 A 
ENDROOT
BRANCH   5  10
HETATM   10  N   UNL     1      42.184 -13.715   4.257  1.00  0.00    -0.321 N 
HETATM   11  C   UNL     1      42.996 -13.880   3.155  1.00  0.00     0.245 C 
HETATM   12  O   UNL     1      43.458 -12.987   2.455  1.00  0.00    -0.268 OA
HETATM   13  H   UNL     1      41.647 -14.525   4.567  1.00  0.00     0.169 HD
BRANCH  11  14
HETATM   14  C   UNL     1      43.235 -15.315   2.828  1.00  0.00     0.075 C 
HETATM   15  C   UNL     1      43.270 -16.209   3.830  1.00  0.00     0.017 C 
BRANCH  15  16
HETATM   16  C   UNL     1      43.483 -17.662   3.712  1.00  0.00    -0.036 A 
HETATM   17  C   UNL     1      44.009 -18.457   4.741  1.00  0.00     0.014 A 
HETATM   18  C   UNL     1      44.205 -19.829   4.551  1.00  0.00     0.043 A 
HETATM   19  C   UNL     1      43.881 -20.409   3.331  1.00  0.00     0.116 A 
HETATM   20  F   UNL     1      44.074 -21.722   3.152  1.00  0.00    -0.206 F 
HETATM   21  C   UNL     1      43.367 -19.644   2.295  1.00  0.00     0.043 A 
HETATM   22  C   UNL     1      43.170 -18.274   2.485  1.00  0.00     0.014 A 
ENDBRANCH  15  16
ENDBRANCH  11  14
ENDBRANCH   5  10
BRANCH   1  23
HETATM   23  C   UNL     1      39.612 -12.442   3.524  1.00  0.00     0.302 C 
HETATM   24  O   UNL     1      39.519 -13.639   3.274  1.00  0.00    -0.259 OA
BRANCH  23  25
HETATM   25  O   UNL     1      38.798 -11.483   3.000  1.00  0.00    -0.322 OA
HETATM   26  C   UNL     1      38.865 -11.366   1.576  1.00  0.00     0.213 C 
ENDBRANCH  23  25
ENDBRANCH   1  23
BRANCH   7  27
HETATM   27  C   UNL     1      43.922  -8.612   8.399  1.00  0.00     0.294 C 
BRANCH  27  28
HETATM   28  N   UNL     1      42.889  -7.913   9.277  1.00  0.00    -0.061 N 
HETATM   29  H   UNL     1      42.078  -7.842   8.640  1.00  0.00     0.280 HD
HETATM   30  C   UNL     1      42.372  -8.735  10.465  1.00  0.00     0.190 C 
HETATM   31  C   UNL     1      41.255  -7.924  11.138  1.00  0.00     0.033 C 
HETATM   32  C   UNL     1      41.703  -6.526  11.547  1.00  0.00     0.004 C 
HETATM   33  C   UNL     1      42.234  -5.763  10.342  1.00  0.00     0.028 C 
HETATM   34  C   UNL     1      43.340  -6.519   9.627  1.00  0.00     0.235 C 
BRANCH  30  35
HETATM   35  C   UNL     1      43.515  -9.153  11.399  1.00  0.00     0.059 C 
BRANCH  35  36
HETATM   36  C   UNL     1      43.353 -10.560  11.965  1.00  0.00     0.166 C 
BRANCH  36  37
HETATM   37  O   UNL     1      43.591 -11.474  10.908  1.00  0.00    -0.401 OA
HETATM   38  H   UNL     1      44.539 -11.704  10.917  1.00  0.00     0.209 HD
ENDBRANCH  36  37
ENDBRANCH  35  36
ENDBRANCH  30  35
ENDBRANCH  27  28
ENDBRANCH   7  27
TORSDOF 10
ENDMDL
MODEL 2
REMARK VINA RESULT:      -8.5      1.328      2.192
REMARK  10 active torsions:
REMARK  status: ('A' for Active; 'I' for Inactive)
REMARK    1  A    between atoms: O_2  and  C_3 
REMARK    2  A    between atoms: C_3  and  C_4 
REMARK    3  A    between atoms: C_8  and  N_9 
REMARK       I    between atoms: N_9  and  C_10 
REMARK    4  A    between atoms: C_10  and  C_11 
REMARK    5  A    between atoms: C_12  and  C_13 
REMARK    6  A    between atoms: C_22  and  C_23 
REMARK    7  A    between atoms: C_23  and  N_24 
REMARK    8  A    between atoms: C_26  and  C_27 
REMARK    9  A    between atoms: C_27  and  C_28 
REMARK   10  A    between atoms: C_28  and  O_29 
ROOT
HETATM    1  C   UNL     1      41.057 -11.712   4.946  1.00  0.00     0.110 C 
HETATM    2  S   UNL     1      41.054 -10.228   5.800  1.00  0.00    -0.061 SA
HETATM    3  C   UNL     1      42.494 -10.606   6.611  1.00  0.00     0.111 A 
HETATM    4  C   UNL     1      42.990 -11.861   6.273  1.00  0.00     0.028 A 
HETATM    5  C   UNL     1      42.199 -12.463   5.217  1.00  0.00     0.071 C 
HETATM    6  N   UNL     1      43.018  -9.731   7.504  1.00  0.00    -0.243 NA
HETATM    7  C   UNL     1      44.126 -10.178   8.143  1.00  0.00     0.061 A 
HETATM    8  C   UNL     1      44.691 -11.429   7.949  1.00  0.00     0.030 A 
HETATM    9  C   UNL     1      44.111 -12.287   7.021  1.00  0.00     0.019 A 
ENDROOT
BRANCH   5  10
HETATM   10  N   UNL     1      42.436 -13.662   4.527  1.00  0.00    -0.321 N 
HETATM   11  C   UNL     1      42.978 -13.770   3.264  1.00  0.00     0.245 C 
HETATM   12  O   UNL     1      43.277 -12.842   2.522  1.00  0.00    -0.268 OA
HETATM   13  H   UNL     1      41.976 -14.489   4.910  1.00  0.00     0.169 HD
BRANCH  11  14
HETATM   14  C   UNL     1      43.126 -15.186   2.821  1.00  0.00     0.075 C 
HETATM   15  C   UNL     1      43.339 -16.134   3.749  1.00  0.00     0.017 C 
BRANCH  15  16
HETATM   16  C   UNL     1      43.502 -17.580   3.515  1.00  0.00    -0.036 A 
HETATM   17  C   UNL     1      43.113 -18.223   2.331  1.00  0.00     0.014 A 
HETATM   18  C   UNL     1      43.279 -19.605   2.185  1.00  0.00     0.043 A 
HETATM   19  C   UNL     1      43.826 -20.348   3.223  1.00  0.00     0.116 A 
HETATM   20  F   UNL     1      43.979 -21.670   3.081  1.00  0.00    -0.206 F 
HETATM   21  C   UNL     1      44.211 -19.736   4.407  1.00  0.00     0.043 A 
HETATM   22  C   UNL     1      44.048 -18.356   4.552  1.00  0.00     0.014 A 
ENDBRANCH  15  16
ENDBRANCH  11  14
ENDBRANCH   5  10
BRANCH   1  23
HETATM   23  C   UNL     1      39.991 -12.069   4.020  1.00  0.00     0.302 C 
HETATM   24  O   UNL     1      39.384 -13.135   4.066  1.00  0.00    -0.259 OA
BRANCH  23  25
HETATM   25  O   UNL     1      39.737 -11.081   3.118  1.00  0.00    -0.322 OA
HETATM   26  C   UNL     1      40.050 -11.422   1.765  1.00  0.00     0.213 C 
ENDBRANCH  23  25
ENDBRANCH   1  23
BRANCH   7  27
HETATM   27  C   UNL     1      44.810  -9.205   9.078  1.00  0.00     0.294 C 
BRANCH  27  28
HETATM   28  N   UNL     1      44.297  -9.229  10.514  1.00  0.00    -0.061 N 
HETATM   29  H   UNL     1      45.176  -9.257  11.057  1.00  0.00     0.280 HD
HETATM   30  C   UNL     1      43.596  -7.948  10.983  1.00  0.00     0.190 C 
HETATM   31  C   UNL     1      43.278  -8.114  12.477  1.00  0.00     0.033 C 
HETATM   32  C   UNL     1      42.461  -9.367  12.771  1.00  0.00     0.004 C 
HETATM   33  C   UNL     1      43.184 -10.606  12.262  1.00  0.00     0.028 C 
HETATM   34  C   UNL     1      43.533 -10.499  10.788  1.00  0.00     0.235 C 
BRANCH  30  35
HETATM   35  C   UNL     1      42.386  -7.615  10.101  1.00  0.00     0.059 C 
BRANCH  35  36
HETATM   36  C   UNL     1      42.547  -6.317   9.315  1.00  0.00     0.166 C 
BRANCH  36  37
HETATM   37  O   UNL     1      42.794  -6.666   7.963  1.00  0.00    -0.401 OA
HETATM   38  H   UNL     1      43.758  -6.762   7.848  1.00  0.00     0.209 HD
ENDBRANCH  36  37
ENDBRANCH  35  36
ENDBRANCH  30  35
ENDBRANCH  27  28
ENDBRANCH   7  27
TORSDOF 10
ENDMDL
MODEL 3
REMARK VINA RESULT:      -8.1      6.149      7.886
REMARK  10 active torsions:
REMARK  status: ('A' for Active; 'I' for Inactive)
REMARK    1  A    between atoms: O_2  and  C_3 
REMARK    2  A    between atoms: C_3  and  C_4 
REMARK    3  A    between atoms: C_8  and  N_9 
REMARK       I    between atoms: N_9  and  C_10 
REMARK    4  A    between atoms: C_10  and  C_11 
REMARK    5  A    between atoms: C_12  and  C_13 
REMARK    6  A    between atoms: C_22  and  C_23 
REMARK    7  A    between atoms: C_23  and  N_24 
REMARK    8  A    between atoms: C_26  and  C_27 
REMARK    9  A    between atoms: C_27  and  C_28 
REMARK   10  A    between atoms: C_28  and  O_29 
ROOT
HETATM    1  C   UNL     1      39.785 -12.935  -1.509  1.00  0.00     0.110 C 
HETATM    2  S   UNL     1      39.331 -11.412  -2.146  1.00  0.00    -0.061 SA
HETATM    3  C   UNL     1      40.157 -10.571  -0.926  1.00  0.00     0.111 A 
HETATM    4  C   UNL     1      40.768 -11.419  -0.007  1.00  0.00     0.028 A 
HETATM    5  C   UNL     1      40.635 -12.805  -0.412  1.00  0.00     0.071 C 
HETATM    6  N   UNL     1      40.141  -9.216  -0.908  1.00  0.00    -0.243 NA
HETATM    7  C   UNL     1      40.770  -8.663   0.158  1.00  0.00     0.061 A 
HETATM    8  C   UNL     1      41.367  -9.388   1.177  1.00  0.00     0.030 A 
HETATM    9  C   UNL     1      41.352 -10.777   1.108  1.00  0.00     0.019 A 
ENDROOT
BRANCH   5  10
HETATM   10  N   UNL     1      41.204 -13.944   0.181  1.00  0.00    -0.321 N 
HETATM   11  C   UNL     1      40.795 -14.526   1.361  1.00  0.00     0.245 C 
HETATM   12  O   UNL     1      39.918 -14.110   2.108  1.00  0.00    -0.268 OA
HETATM   13  H   UNL     1      42.115 -14.221  -0.186  1.00  0.00     0.169 HD
BRANCH  11  14
HETATM   14  C   UNL     1      41.588 -15.740   1.707  1.00  0.00     0.075 C 
HETATM   15  C   UNL     1      41.947 -15.934   2.987  1.00  0.00     0.017 C 
BRANCH  15  16
HETATM   16  C   UNL     1      42.719 -17.068   3.527  1.00  0.00    -0.036 A 
HETATM   17  C   UNL     1      43.109 -17.173   4.870  1.00  0.00     0.014 A 
HETATM   18  C   UNL     1      43.860 -18.269   5.309  1.00  0.00     0.043 A 
HETATM   19  C   UNL     1      44.227 -19.259   4.406  1.00  0.00     0.116 A 
HETATM   20  F   UNL     1      44.949 -20.304   4.830  1.00  0.00    -0.206 F 
HETATM   21  C   UNL     1      43.860 -19.174   3.072  1.00  0.00     0.043 A 
HETATM   22  C   UNL     1      43.109 -18.081   2.634  1.00  0.00     0.014 A 
ENDBRANCH  15  16
ENDBRANCH  11  14
ENDBRANCH   5  10
BRANCH   1  23
HETATM   23  C   UNL     1      39.347 -14.184  -2.115  1.00  0.00     0.302 C 
HETATM   24  O   UNL     1      39.139 -15.210  -1.475  1.00  0.00    -0.259 OA
BRANCH  23  25
HETATM   25  O   UNL     1      39.179 -14.074  -3.462  1.00  0.00    -0.322 OA
HETATM   26  C   UNL     1      38.038 -14.768  -3.973  1.00  0.00     0.213 C 
ENDBRANCH  23  25
ENDBRANCH   1  23
BRANCH   7  27
HETATM   27  C   UNL     1      40.870  -7.153   0.178  1.00  0.00     0.294 C 
BRANCH  27  28
HETATM   28  N   UNL     1      42.259  -6.600  -0.124  1.00  0.00    -0.061 N 
HETATM   29  H   UNL     1      42.871  -7.270   0.370  1.00  0.00     0.280 HD
HETATM   30  C   UNL     1      42.697  -6.689  -1.591  1.00  0.00     0.190 C 
HETATM   31  C   UNL     1      44.156  -6.214  -1.670  1.00  0.00     0.033 C 
HETATM   32  C   UNL     1      44.355  -4.820  -1.085  1.00  0.00     0.004 C 
HETATM   33  C   UNL     1      43.880  -4.775   0.360  1.00  0.00     0.028 C 
HETATM   34  C   UNL     1      42.442  -5.241   0.504  1.00  0.00     0.235 C 
BRANCH  30  35
HETATM   35  C   UNL     1      41.727  -5.941  -2.514  1.00  0.00     0.059 C 
BRANCH  35  36
HETATM   36  C   UNL     1      41.043  -6.843  -3.537  1.00  0.00     0.166 C 
BRANCH  36  37
HETATM   37  O   UNL     1      41.581  -8.146  -3.381  1.00  0.00    -0.401 OA
HETATM   38  H   UNL     1      42.550  -8.063  -3.295  1.00  0.00     0.209 HD
ENDBRANCH  36  37
ENDBRANCH  35  36
ENDBRANCH  30  35
ENDBRANCH  27  28
ENDBRANCH   7  27
TORSDOF 10
ENDMDL
MODEL 4
REMARK VINA RESULT:      -7.9      4.422     10.348
REMARK  10 active torsions:
REMARK  status: ('A' for Active; 'I' for Inactive)
REMARK    1  A    between atoms: O_2  and  C_3 
REMARK    2  A    between atoms: C_3  and  C_4 
REMARK    3  A    between atoms: C_8  and  N_9 
REMARK       I    between atoms: N_9  and  C_10 
REMARK    4  A    between atoms: C_10  and  C_11 
REMARK    5  A    between atoms: C_12  and  C_13 
REMARK    6  A    between atoms: C_22  and  C_23 
REMARK    7  A    between atoms: C_23  and  N_24 
REMARK    8  A    between atoms: C_26  and  C_27 
REMARK    9  A    between atoms: C_27  and  C_28 
REMARK   10  A    between atoms: C_28  and  O_29 
ROOT
HETATM    1  C   UNL     1      42.827 -15.352   4.538  1.00  0.00     0.110 C 
HETATM    2  S   UNL     1      42.256 -15.953   3.040  1.00  0.00    -0.061 SA
HETATM    3  C   UNL     1      41.421 -14.517   2.696  1.00  0.00     0.111 A 
HETATM    4  C   UNL     1      41.537 -13.571   3.710  1.00  0.00     0.028 A 
HETATM    5  C   UNL     1      42.449 -14.026   4.741  1.00  0.00     0.071 C 
HETATM    6  N   UNL     1      40.713 -14.405   1.546  1.00  0.00    -0.243 NA
HETATM    7  C   UNL     1      40.028 -13.242   1.423  1.00  0.00     0.061 A 
HETATM    8  C   UNL     1      40.005 -12.241   2.381  1.00  0.00     0.030 A 
HETATM    9  C   UNL     1      40.749 -12.410   3.543  1.00  0.00     0.019 A 
ENDROOT
BRANCH   5  10
HETATM   10  N   UNL     1      42.916 -13.323   5.863  1.00  0.00    -0.321 N 
HETATM   11  C   UNL     1      43.754 -12.229   5.836  1.00  0.00     0.245 C 
HETATM   12  O   UNL     1      44.272 -11.738   4.840  1.00  0.00    -0.268 OA
HETATM   13  H   UNL     1      42.791 -13.793   6.761  1.00  0.00     0.169 HD
BRANCH  11  14
HETATM   14  C   UNL     1      44.044 -11.693   7.197  1.00  0.00     0.075 C 
HETATM   15  C   UNL     1      43.306 -10.670   7.659  1.00  0.00     0.017 C 
BRANCH  15  16
HETATM   16  C   UNL     1      43.432 -10.012   8.972  1.00  0.00    -0.036 A 
HETATM   17  C   UNL     1      42.406  -9.262   9.566  1.00  0.00     0.014 A 
HETATM   18  C   UNL     1      42.603  -8.647  10.808  1.00  0.00     0.043 A 
HETATM   19  C   UNL     1      43.826  -8.773  11.454  1.00  0.00     0.116 A 
HETATM   20  F   UNL     1      44.011  -8.179  12.640  1.00  0.00    -0.206 F 
HETATM   21  C   UNL     1      44.858  -9.503  10.884  1.00  0.00     0.043 A 
HETATM   22  C   UNL     1      44.661 -10.119   9.645  1.00  0.00     0.014 A 
ENDBRANCH  15  16
ENDBRANCH  11  14
ENDBRANCH   5  10
BRANCH   1  23
HETATM   23  C   UNL     1      43.649 -16.160   5.428  1.00  0.00     0.302 C 
HETATM   24  O   UNL     1      44.295 -15.693   6.361  1.00  0.00    -0.259 OA
BRANCH  23  25
HETATM   25  O   UNL     1      43.601 -17.485   5.115  1.00  0.00    -0.322 OA
HETATM   26  C   UNL     1      43.507 -18.355   6.247  1.00  0.00     0.213 C 
ENDBRANCH  23  25
ENDBRANCH   1  23
BRANCH   7  27
HETATM   27  C   UNL     1      39.299 -13.019   0.115  1.00  0.00     0.294 C 
BRANCH  27  28
HETATM   28  N   UNL     1      40.120 -12.316  -0.962  1.00  0.00    -0.061 N 
HETATM   29  H   UNL     1      41.070 -12.336  -0.558  1.00  0.00     0.280 HD
HETATM   30  C   UNL     1      40.250 -13.075  -2.289  1.00  0.00     0.190 C 
HETATM   31  C   UNL     1      41.212 -12.281  -3.185  1.00  0.00     0.033 C 
HETATM   32  C   UNL     1      40.776 -10.833  -3.382  1.00  0.00     0.004 C 
HETATM   33  C   UNL     1      40.632 -10.132  -2.039  1.00  0.00     0.028 C 
HETATM   34  C   UNL     1      39.696 -10.876  -1.102  1.00  0.00     0.235 C 
BRANCH  30  35
HETATM   35  C   UNL     1      38.877 -13.359  -2.912  1.00  0.00     0.059 C 
BRANCH  35  36
HETATM   36  C   UNL     1      38.642 -14.836  -3.215  1.00  0.00     0.166 C 
BRANCH  36  37
HETATM   37  O   UNL     1      38.058 -14.917  -4.504  1.00  0.00    -0.401 OA
HETATM   38  H   UNL     1      38.616 -15.502  -5.051  1.00  0.00     0.209 HD
ENDBRANCH  36  37
ENDBRANCH  35  36
ENDBRANCH  30  35
ENDBRANCH  27  28
ENDBRANCH   7  27
TORSDOF 10
ENDMDL
MODEL 5
REMARK VINA RESULT:      -7.9      1.987      2.939
REMARK  10 active torsions:
REMARK  status: ('A' for Active; 'I' for Inactive)
REMARK    1  A    between atoms: O_2  and  C_3 
REMARK    2  A    between atoms: C_3  and  C_4 
REMARK    3  A    between atoms: C_8  and  N_9 
REMARK       I    between atoms: N_9  and  C_10 
REMARK    4  A    between atoms: C_10  and  C_11 
REMARK    5  A    between atoms: C_12  and  C_13 
REMARK    6  A    between atoms: C_22  and  C_23 
REMARK    7  A    between atoms: C_23  and  N_24 
REMARK    8  A    between atoms: C_26  and  C_27 
REMARK    9  A    between atoms: C_27  and  C_28 
REMARK   10  A    between atoms: C_28  and  O_29 
ROOT
HETATM    1  C   UNL     1      40.297 -11.592   1.909  1.00  0.00     0.110 C 
HETATM    2  S   UNL     1      39.811 -10.044   2.456  1.00  0.00    -0.061 SA
HETATM    3  C   UNL     1      40.076 -10.452   4.081  1.00  0.00     0.111 A 
HETATM    4  C   UNL     1      40.512 -11.764   4.243  1.00  0.00     0.028 A 
HETATM    5  C   UNL     1      40.740 -12.396   2.958  1.00  0.00     0.071 C 
HETATM    6  N   UNL     1      39.830  -9.543   5.056  1.00  0.00    -0.243 NA
HETATM    7  C   UNL     1      40.006 -10.012   6.315  1.00  0.00     0.061 A 
HETATM    8  C   UNL     1      40.377 -11.311   6.623  1.00  0.00     0.030 A 
HETATM    9  C   UNL     1      40.615 -12.203   5.582  1.00  0.00     0.019 A 
ENDROOT
BRANCH   5  10
HETATM   10  N   UNL     1      41.284 -13.664   2.696  1.00  0.00    -0.321 N 
HETATM   11  C   UNL     1      42.626 -13.957   2.592  1.00  0.00     0.245 C 
HETATM   12  O   UNL     1      43.550 -13.155   2.648  1.00  0.00    -0.268 OA
HETATM   13  H   UNL     1      40.625 -14.362   2.351  1.00  0.00     0.169 HD
BRANCH  11  14
HETATM   14  C   UNL     1      42.879 -15.404   2.333  1.00  0.00     0.075 C 
HETATM   15  C   UNL     1      43.152 -16.208   3.374  1.00  0.00     0.017 C 
BRANCH  15  16
HETATM   16  C   UNL     1      43.421 -17.657   3.325  1.00  0.00    -0.036 A 
HETATM   17  C   UNL     1      43.069 -18.476   2.242  1.00  0.00     0.014 A 
HETATM   18  C   UNL     1      43.335 -19.849   2.272  1.00  0.00     0.043 A 
HETATM   19  C   UNL     1      43.948 -20.408   3.387  1.00  0.00     0.116 A 
HETATM   20  F   UNL     1      44.198 -21.723   3.413  1.00  0.00    -0.206 F 
HETATM   21  C   UNL     1      44.299 -19.621   4.473  1.00  0.00     0.043 A 
HETATM   22  C   UNL     1      44.035 -18.249   4.442  1.00  0.00     0.014 A 
ENDBRANCH  15  16
ENDBRANCH  11  14
ENDBRANCH   5  10
BRANCH   1  23
HETATM   23  C   UNL     1      40.277 -11.952   0.498  1.00  0.00     0.302 C 
HETATM   24  O   UNL     1      40.930 -11.364  -0.359  1.00  0.00    -0.259 OA
BRANCH  23  25
HETATM   25  O   UNL     1      39.470 -13.020   0.249  1.00  0.00    -0.322 OA
HETATM   26  C   UNL     1      39.998 -13.949  -0.701  1.00  0.00     0.213 C 
ENDBRANCH  23  25
ENDBRANCH   1  23
BRANCH   7  27
HETATM   27  C   UNL     1      39.842  -9.013   7.440  1.00  0.00     0.294 C 
BRANCH  27  28
HETATM   28  N   UNL     1      40.385  -9.474   8.789  1.00  0.00    -0.061 N 
HETATM   29  H   UNL     1      40.503 -10.489   8.639  1.00  0.00     0.280 HD
HETATM   30  C   UNL     1      41.791  -8.971   9.138  1.00  0.00     0.190 C 
HETATM   31  C   UNL     1      42.211  -9.644  10.454  1.00  0.00     0.033 C 
HETATM   32  C   UNL     1      41.212  -9.411  11.581  1.00  0.00     0.004 C 
HETATM   33  C   UNL     1      39.828  -9.899  11.176  1.00  0.00     0.028 C 
HETATM   34  C   UNL     1      39.359  -9.272   9.875  1.00  0.00     0.235 C 
BRANCH  30  35
HETATM   35  C   UNL     1      41.853  -7.438   9.152  1.00  0.00     0.059 C 
BRANCH  35  36
HETATM   36  C   UNL     1      43.244  -6.888   9.453  1.00  0.00     0.166 C 
BRANCH  36  37
HETATM   37  O   UNL     1      44.132  -7.430   8.490  1.00  0.00    -0.401 OA
HETATM   38  H   UNL     1      45.010  -7.517   8.906  1.00  0.00     0.209 HD
ENDBRANCH  36  37
ENDBRANCH  35  36
ENDBRANCH  30  35
ENDBRANCH  27  28
ENDBRANCH   7  27
TORSDOF 10
ENDMDL
MODEL 6
REMARK VINA RESULT:      -7.7      3.476      5.572
REMARK  10 active torsions:
REMARK  status: ('A' for Active; 'I' for Inactive)
REMARK    1  A    between atoms: O_2  and  C_3 
REMARK    2  A    between atoms: C_3  and  C_4 
REMARK    3  A    between atoms: C_8  and  N_9 
REMARK       I    between atoms: N_9  and  C_10 
REMARK    4  A    between atoms: C_10  and  C_11 
REMARK    5  A    between atoms: C_12  and  C_13 
REMARK    6  A    between atoms: C_22  and  C_23 
REMARK    7  A    between atoms: C_23  and  N_24 
REMARK    8  A    between atoms: C_26  and  C_27 
REMARK    9  A    between atoms: C_27  and  C_28 
REMARK   10  A    between atoms: C_28  and  O_29 
ROOT
HETATM    1  C   UNL     1      43.151 -15.712   5.230  1.00  0.00     0.110 C 
HETATM    2  S   UNL     1      43.900 -15.385   6.734  1.00  0.00    -0.061 SA
HETATM    3  C   UNL     1      43.697 -13.710   6.557  1.00  0.00     0.111 A 
HETATM    4  C   UNL     1      43.085 -13.366   5.356  1.00  0.00     0.028 A 
HETATM    5  C   UNL     1      42.672 -14.550   4.627  1.00  0.00     0.071 C 
HETATM    6  N   UNL     1      44.146 -12.868   7.520  1.00  0.00    -0.243 NA
HETATM    7  C   UNL     1      43.995 -11.553   7.228  1.00  0.00     0.061 A 
HETATM    8  C   UNL     1      43.460 -11.070   6.045  1.00  0.00     0.030 A 
HETATM    9  C   UNL     1      43.017 -11.980   5.090  1.00  0.00     0.019 A 
ENDROOT
BRANCH   5  10
HETATM   10  N   UNL     1      41.929 -14.625   3.438  1.00  0.00    -0.321 N 
HETATM   11  C   UNL     1      42.420 -14.414   2.167  1.00  0.00     0.245 C 
HETATM   12  O   UNL     1      43.559 -14.068   1.879  1.00  0.00    -0.268 OA
HETATM   13  H   UNL     1      40.915 -14.626   3.553  1.00  0.00     0.169 HD
BRANCH  11  14
HETATM   14  C   UNL     1      41.381 -14.594   1.113  1.00  0.00     0.075 C 
HETATM   15  C   UNL     1      40.740 -13.510   0.646  1.00  0.00     0.017 C 
BRANCH  15  16
HETATM   16  C   UNL     1      39.696 -13.480  -0.394  1.00  0.00    -0.036 A 
HETATM   17  C   UNL     1      39.567 -14.454  -1.394  1.00  0.00     0.014 A 
HETATM   18  C   UNL     1      38.563 -14.351  -2.363  1.00  0.00     0.043 A 
HETATM   19  C   UNL     1      37.689 -13.271  -2.339  1.00  0.00     0.116 A 
HETATM   20  F   UNL     1      36.732 -13.175  -3.270  1.00  0.00    -0.206 F 
HETATM   21  C   UNL     1      37.800 -12.291  -1.364  1.00  0.00     0.043 A 
HETATM   22  C   UNL     1      38.801 -12.395  -0.395  1.00  0.00     0.014 A 
ENDBRANCH  15  16
ENDBRANCH  11  14
ENDBRANCH   5  10
BRANCH   1  23
HETATM   23  C   UNL     1      43.014 -17.067   4.716  1.00  0.00     0.302 C 
HETATM   24  O   UNL     1      42.754 -17.324   3.545  1.00  0.00    -0.259 OA
BRANCH  23  25
HETATM   25  O   UNL     1      43.225 -18.008   5.679  1.00  0.00    -0.322 OA
HETATM   26  C   UNL     1      43.972 -19.145   5.238  1.00  0.00     0.213 C 
ENDBRANCH  23  25
ENDBRANCH   1  23
BRANCH   7  27
HETATM   27  C   UNL     1      44.387 -10.569   8.308  1.00  0.00     0.294 C 
BRANCH  27  28
HETATM   28  N   UNL     1      43.366  -9.467   8.571  1.00  0.00    -0.061 N 
HETATM   29  H   UNL     1      42.699  -9.601   7.793  1.00  0.00     0.280 HD
HETATM   30  C   UNL     1      42.519  -9.645   9.838  1.00  0.00     0.190 C 
HETATM   31  C   UNL     1      41.470  -8.522   9.855  1.00  0.00     0.033 C 
HETATM   32  C   UNL     1      42.090  -7.133   9.758  1.00  0.00     0.004 C 
HETATM   33  C   UNL     1      42.943  -7.016   8.503  1.00  0.00     0.028 C 
HETATM   34  C   UNL     1      43.997  -8.106   8.424  1.00  0.00     0.235 C 
BRANCH  30  35
HETATM   35  C   UNL     1      43.396  -9.725  11.094  1.00  0.00     0.059 C 
BRANCH  35  36
HETATM   36  C   UNL     1      42.610  -9.581  12.393  1.00  0.00     0.166 C 
BRANCH  36  37
HETATM   37  O   UNL     1      41.891 -10.786  12.592  1.00  0.00    -0.401 OA
HETATM   38  H   UNL     1      41.852 -11.258  11.738  1.00  0.00     0.209 HD
ENDBRANCH  36  37
ENDBRANCH  35  36
ENDBRANCH  30  35
ENDBRANCH  27  28
ENDBRANCH   7  27
TORSDOF 10
ENDMDL
MODEL 7
REMARK VINA RESULT:      -7.7      4.440     10.482
REMARK  10 active torsions:
REMARK  status: ('A' for Active; 'I' for Inactive)
REMARK    1  A    between atoms: O_2  and  C_3 
REMARK    2  A    between atoms: C_3  and  C_4 
REMARK    3  A    between atoms: C_8  and  N_9 
REMARK       I    between atoms: N_9  and  C_10 
REMARK    4  A    between atoms: C_10  and  C_11 
REMARK    5  A    between atoms: C_12  and  C_13 
REMARK    6  A    between atoms: C_22  and  C_23 
REMARK    7  A    between atoms: C_23  and  N_24 
REMARK    8  A    between atoms: C_26  and  C_27 
REMARK    9  A    between atoms: C_27  and  C_28 
REMARK   10  A    between atoms: C_28  and  O_29 
ROOT
HETATM    1  C   UNL     1      42.798 -14.638   4.160  1.00  0.00     0.110 C 
HETATM    2  S   UNL     1      42.267 -15.221   2.640  1.00  0.00    -0.061 SA
HETATM    3  C   UNL     1      42.008 -13.654   2.045  1.00  0.00     0.111 A 
HETATM    4  C   UNL     1      42.293 -12.667   2.984  1.00  0.00     0.028 A 
HETATM    5  C   UNL     1      42.856 -13.246   4.188  1.00  0.00     0.071 C 
HETATM    6  N   UNL     1      41.537 -13.477   0.786  1.00  0.00    -0.243 NA
HETATM    7  C   UNL     1      41.299 -12.184   0.454  1.00  0.00     0.061 A 
HETATM    8  C   UNL     1      41.480 -11.110   1.310  1.00  0.00     0.030 A 
HETATM    9  C   UNL     1      41.963 -11.350   2.592  1.00  0.00     0.019 A 
ENDROOT
BRANCH   5  10
HETATM   10  N   UNL     1      43.374 -12.583   5.313  1.00  0.00    -0.321 N 
HETATM   11  C   UNL     1      44.387 -11.648   5.300  1.00  0.00     0.245 C 
HETATM   12  O   UNL     1      45.035 -11.296   4.322  1.00  0.00    -0.268 OA
HETATM   13  H   UNL     1      43.121 -12.986   6.216  1.00  0.00     0.169 HD
BRANCH  11  14
HETATM   14  C   UNL     1      44.689 -11.111   6.658  1.00  0.00     0.075 C 
HETATM   15  C   UNL     1      43.692 -10.562   7.371  1.00  0.00     0.017 C 
BRANCH  15  16
HETATM   16  C   UNL     1      43.787  -9.988   8.726  1.00  0.00    -0.036 A 
HETATM   17  C   UNL     1      44.951 -10.031   9.508  1.00  0.00     0.014 A 
HETATM   18  C   UNL     1      44.964  -9.483  10.795  1.00  0.00     0.043 A 
HETATM   19  C   UNL     1      43.812  -8.897  11.306  1.00  0.00     0.116 A 
HETATM   20  F   UNL     1      43.827  -8.377  12.540  1.00  0.00    -0.206 F 
HETATM   21  C   UNL     1      42.647  -8.848  10.556  1.00  0.00     0.043 A 
HETATM   22  C   UNL     1      42.635  -9.393   9.270  1.00  0.00     0.014 A 
ENDBRANCH  15  16
ENDBRANCH  11  14
ENDBRANCH   5  10
BRANCH   1  23
HETATM   23  C   UNL     1      43.179 -15.538   5.239  1.00  0.00     0.302 C 
HETATM   24  O   UNL     1      42.864 -15.360   6.411  1.00  0.00    -0.259 OA
BRANCH  23  25
HETATM   25  O   UNL     1      43.904 -16.602   4.792  1.00  0.00    -0.322 OA
HETATM   26  C   UNL     1      43.614 -17.834   5.457  1.00  0.00     0.213 C 
ENDBRANCH  23  25
ENDBRANCH   1  23
BRANCH   7  27
HETATM   27  C   UNL     1      40.868 -11.919  -0.972  1.00  0.00     0.294 C 
BRANCH  27  28
HETATM   28  N   UNL     1      39.716 -12.789  -1.465  1.00  0.00    -0.061 N 
HETATM   29  H   UNL     1      39.476 -13.330  -0.618  1.00  0.00     0.280 HD
HETATM   30  C   UNL     1      38.428 -12.036  -1.818  1.00  0.00     0.190 C 
HETATM   31  C   UNL     1      37.357 -13.083  -2.158  1.00  0.00     0.033 C 
HETATM   32  C   UNL     1      37.794 -14.039  -3.262  1.00  0.00     0.004 C 
HETATM   33  C   UNL     1      39.090 -14.738  -2.878  1.00  0.00     0.028 C 
HETATM   34  C   UNL     1      40.190 -13.753  -2.523  1.00  0.00     0.235 C 
BRANCH  30  35
HETATM   35  C   UNL     1      38.671 -10.986  -2.911  1.00  0.00     0.059 C 
BRANCH  35  36
HETATM   36  C   UNL     1      37.422 -10.192  -3.279  1.00  0.00     0.166 C 
BRANCH  36  37
HETATM   37  O   UNL     1      37.584  -9.740  -4.613  1.00  0.00    -0.401 OA
HETATM   38  H   UNL     1      36.853 -10.107  -5.145  1.00  0.00     0.209 HD
ENDBRANCH  36  37
ENDBRANCH  35  36
ENDBRANCH  30  35
ENDBRANCH  27  28
ENDBRANCH   7  27
TORSDOF 10
ENDMDL
MODEL 8
REMARK VINA RESULT:      -7.7      4.878     10.576
REMARK  10 active torsions:
REMARK  status: ('A' for Active; 'I' for Inactive)
REMARK    1  A    between atoms: O_2  and  C_3 
REMARK    2  A    between atoms: C_3  and  C_4 
REMARK    3  A    between atoms: C_8  and  N_9 
REMARK       I    between atoms: N_9  and  C_10 
REMARK    4  A    between atoms: C_10  and  C_11 
REMARK    5  A    between atoms: C_12  and  C_13 
REMARK    6  A    between atoms: C_22  and  C_23 
REMARK    7  A    between atoms: C_23  and  N_24 
REMARK    8  A    between atoms: C_26  and  C_27 
REMARK    9  A    between atoms: C_27  and  C_28 
REMARK   10  A    between atoms: C_28  and  O_29 
ROOT
HETATM    1  C   UNL     1      43.615 -11.643   5.134  1.00  0.00     0.110 C 
HETATM    2  S   UNL     1      43.694 -12.214   3.522  1.00  0.00    -0.061 SA
HETATM    3  C   UNL     1      42.005 -12.227   3.365  1.00  0.00     0.111 A 
HETATM    4  C   UNL     1      41.353 -11.826   4.526  1.00  0.00     0.028 A 
HETATM    5  C   UNL     1      42.303 -11.384   5.528  1.00  0.00     0.071 C 
HETATM    6  N   UNL     1      41.437 -12.634   2.203  1.00  0.00    -0.243 NA
HETATM    7  C   UNL     1      40.082 -12.673   2.227  1.00  0.00     0.061 A 
HETATM    8  C   UNL     1      39.309 -12.361   3.333  1.00  0.00     0.030 A 
HETATM    9  C   UNL     1      39.945 -11.951   4.500  1.00  0.00     0.019 A 
ENDROOT
BRANCH   5  10
HETATM   10  N   UNL     1      42.043 -10.805   6.780  1.00  0.00    -0.321 N 
HETATM   11  C   UNL     1      41.567  -9.529   6.993  1.00  0.00     0.245 C 
HETATM   12  O   UNL     1      41.357  -8.681   6.134  1.00  0.00    -0.268 OA
HETATM   13  H   UNL     1      42.438 -11.296   7.583  1.00  0.00     0.169 HD
BRANCH  11  14
HETATM   14  C   UNL     1      41.371  -9.223   8.439  1.00  0.00     0.075 C 
HETATM   15  C   UNL     1      42.392  -9.427   9.287  1.00  0.00     0.017 C 
BRANCH  15  16
HETATM   16  C   UNL     1      42.399  -9.179  10.740  1.00  0.00    -0.036 A 
HETATM   17  C   UNL     1      43.351  -8.378  11.387  1.00  0.00     0.014 A 
HETATM   18  C   UNL     1      43.308  -8.203  12.775  1.00  0.00     0.043 A 
HETATM   19  C   UNL     1      42.319  -8.832  13.519  1.00  0.00     0.116 A 
HETATM   20  F   UNL     1      42.285  -8.665  14.847  1.00  0.00    -0.206 F 
HETATM   21  C   UNL     1      41.371  -9.636  12.904  1.00  0.00     0.043 A 
HETATM   22  C   UNL     1      41.412  -9.809  11.518  1.00  0.00     0.014 A 
ENDBRANCH  15  16
ENDBRANCH  11  14
ENDBRANCH   5  10
BRANCH   1  23
HETATM   23  C   UNL     1      44.813 -11.425   5.933  1.00  0.00     0.302 C 
HETATM   24  O   UNL     1      45.877 -11.033   5.464  1.00  0.00    -0.259 OA
BRANCH  23  25
HETATM   25  O   UNL     1      44.607 -11.687   7.254  1.00  0.00    -0.322 OA
HETATM   26  C   UNL     1      45.418 -10.912   8.142  1.00  0.00     0.213 C 
ENDBRANCH  23  25
ENDBRANCH   1  23
BRANCH   7  27
HETATM   27  C   UNL     1      39.391 -13.024   0.927  1.00  0.00     0.294 C 
BRANCH  27  28
HETATM   28  N   UNL     1      40.117 -12.556  -0.330  1.00  0.00    -0.061 N 
HETATM   29  H   UNL     1      41.108 -12.633  -0.049  1.00  0.00     0.280 HD
HETATM   30  C   UNL     1      39.989 -13.482  -1.546  1.00  0.00     0.190 C 
HETATM   31  C   UNL     1      40.888 -12.917  -2.656  1.00  0.00     0.033 C 
HETATM   32  C   UNL     1      40.569 -11.464  -2.992  1.00  0.00     0.004 C 
HETATM   33  C   UNL     1      40.681 -10.592  -1.750  1.00  0.00     0.028 C 
HETATM   34  C   UNL     1      39.817 -11.105  -0.611  1.00  0.00     0.235 C 
BRANCH  30  35
HETATM   35  C   UNL     1      38.522 -13.683  -1.947  1.00  0.00     0.059 C 
BRANCH  35  36
HETATM   36  C   UNL     1      38.341 -14.611  -3.144  1.00  0.00     0.166 C 
BRANCH  36  37
HETATM   37  O   UNL     1      38.350 -15.942  -2.655  1.00  0.00    -0.401 OA
HETATM   38  H   UNL     1      38.742 -16.513  -3.343  1.00  0.00     0.209 HD
ENDBRANCH  36  37
ENDBRANCH  35  36
ENDBRANCH  30  35
ENDBRANCH  27  28
ENDBRANCH   7  27
TORSDOF 10
ENDMDL
MODEL 9
REMARK VINA RESULT:      -7.6      4.179     10.067
REMARK  10 active torsions:
REMARK  status: ('A' for Active; 'I' for Inactive)
REMARK    1  A    between atoms: O_2  and  C_3 
REMARK    2  A    between atoms: C_3  and  C_4 
REMARK    3  A    between atoms: C_8  and  N_9 
REMARK       I    between atoms: N_9  and  C_10 
REMARK    4  A    between atoms: C_10  and  C_11 
REMARK    5  A    between atoms: C_12  and  C_13 
REMARK    6  A    between atoms: C_22  and  C_23 
REMARK    7  A    between atoms: C_23  and  N_24 
REMARK    8  A    between atoms: C_26  and  C_27 
REMARK    9  A    between atoms: C_27  and  C_28 
REMARK   10  A    between atoms: C_28  and  O_29 
ROOT
HETATM    1  C   UNL     1      41.559  -8.173   6.242  1.00  0.00     0.110 C 
HETATM    2  S   UNL     1      41.243  -8.572   4.607  1.00  0.00    -0.061 SA
HETATM    3  C   UNL     1      42.144 -10.006   4.704  1.00  0.00     0.111 A 
HETATM    4  C   UNL     1      42.717 -10.198   5.957  1.00  0.00     0.028 A 
HETATM    5  C   UNL     1      42.286  -9.172   6.887  1.00  0.00     0.071 C 
HETATM    6  N   UNL     1      42.267 -10.802   3.615  1.00  0.00    -0.243 NA
HETATM    7  C   UNL     1      43.074 -11.877   3.796  1.00  0.00     0.061 A 
HETATM    8  C   UNL     1      43.755 -12.155   4.970  1.00  0.00     0.030 A 
HETATM    9  C   UNL     1      43.593 -11.302   6.056  1.00  0.00     0.019 A 
ENDROOT
BRANCH   5  10
HETATM   10  N   UNL     1      42.548  -9.078   8.264  1.00  0.00    -0.321 N 
HETATM   11  C   UNL     1      43.687  -8.549   8.831  1.00  0.00     0.245 C 
HETATM   12  O   UNL     1      44.672  -8.137   8.230  1.00  0.00    -0.268 OA
HETATM   13  H   UNL     1      41.942  -9.636   8.866  1.00  0.00     0.169 HD
BRANCH  11  14
HETATM   14  C   UNL     1      43.650  -8.571  10.321  1.00  0.00     0.075 C 
HETATM   15  C   UNL     1      42.496  -8.277  10.943  1.00  0.00     0.017 C 
BRANCH  15  16
HETATM   16  C   UNL     1      42.257  -8.253  12.397  1.00  0.00    -0.036 A 
HETATM   17  C   UNL     1      41.263  -9.012  13.033  1.00  0.00     0.014 A 
HETATM   18  C   UNL     1      41.078  -8.924  14.417  1.00  0.00     0.043 A 
HETATM   19  C   UNL     1      41.880  -8.074  15.168  1.00  0.00     0.116 A 
HETATM   20  F   UNL     1      41.697  -7.990  16.492  1.00  0.00    -0.206 F 
HETATM   21  C   UNL     1      42.864  -7.307  14.562  1.00  0.00     0.043 A 
HETATM   22  C   UNL     1      43.051  -7.396  13.180  1.00  0.00     0.014 A 
ENDBRANCH  15  16
ENDBRANCH  11  14
ENDBRANCH   5  10
BRANCH   1  23
HETATM   23  C   UNL     1      41.060  -6.945   6.845  1.00  0.00     0.302 C 
HETATM   24  O   UNL     1      41.790  -6.052   7.264  1.00  0.00    -0.259 OA
BRANCH  23  25
HETATM   25  O   UNL     1      39.699  -6.899   6.871  1.00  0.00    -0.322 OA
HETATM   26  C   UNL     1      39.112  -7.464   8.047  1.00  0.00     0.213 C 
ENDBRANCH  23  25
ENDBRANCH   1  23
BRANCH   7  27
HETATM   27  C   UNL     1      43.169 -12.855   2.645  1.00  0.00     0.294 C 
BRANCH  27  28
HETATM   28  N   UNL     1      42.877 -14.306   3.013  1.00  0.00    -0.061 N 
HETATM   29  H   UNL     1      43.474 -14.442   3.845  1.00  0.00     0.280 HD
HETATM   30  C   UNL     1      41.454 -14.584   3.512  1.00  0.00     0.190 C 
HETATM   31  C   UNL     1      41.396 -16.053   3.957  1.00  0.00     0.033 C 
HETATM   32  C   UNL     1      41.828 -17.019   2.860  1.00  0.00     0.004 C 
HETATM   33  C   UNL     1      43.233 -16.685   2.378  1.00  0.00     0.028 C 
HETATM   34  C   UNL     1      43.355 -15.239   1.930  1.00  0.00     0.235 C 
BRANCH  30  35
HETATM   35  C   UNL     1      40.404 -14.186   2.467  1.00  0.00     0.059 C 
BRANCH  35  36
HETATM   36  C   UNL     1      39.478 -13.066   2.931  1.00  0.00     0.166 C 
BRANCH  36  37
HETATM   37  O   UNL     1      39.817 -12.763   4.274  1.00  0.00    -0.401 OA
HETATM   38  H   UNL     1      40.621 -13.267   4.502  1.00  0.00     0.209 HD
ENDBRANCH  36  37
ENDBRANCH  35  36
ENDBRANCH  30  35
ENDBRANCH  27  28
ENDBRANCH   7  27
TORSDOF 10
ENDMDL
MODEL 10
REMARK VINA RESULT:      -7.3      4.806      9.222
REMARK  10 active torsions:
REMARK  status: ('A' for Active; 'I' for Inactive)
REMARK    1  A    between atoms: O_2  and  C_3 
REMARK    2  A    between atoms: C_3  and  C_4 
REMARK    3  A    between atoms: C_8  and  N_9 
REMARK       I    between atoms: N_9  and  C_10 
REMARK    4  A    between atoms: C_10  and  C_11 
REMARK    5  A    between atoms: C_12  and  C_13 
REMARK    6  A    between atoms: C_22  and  C_23 
REMARK    7  A    between atoms: C_23  and  N_24 
REMARK    8  A    between atoms: C_26  and  C_27 
REMARK    9  A    between atoms: C_27  and  C_28 
REMARK   10  A    between atoms: C_28  and  O_29 
ROOT
HETATM    1  C   UNL     1      41.838 -11.634   1.867  1.00  0.00     0.110 C 
HETATM    2  S   UNL     1      41.392 -10.174   1.093  1.00  0.00    -0.061 SA
HETATM    3  C   UNL     1      40.507 -10.989  -0.102  1.00  0.00     0.111 A 
HETATM    4  C   UNL     1      40.550 -12.372   0.045  1.00  0.00     0.028 A 
HETATM    5  C   UNL     1      41.246 -12.742   1.263  1.00  0.00     0.071 C 
HETATM    6  N   UNL     1      39.883 -10.287  -1.079  1.00  0.00    -0.243 NA
HETATM    7  C   UNL     1      39.274 -11.053  -2.017  1.00  0.00     0.061 A 
HETATM    8  C   UNL     1      39.290 -12.438  -2.027  1.00  0.00     0.030 A 
HETATM    9  C   UNL     1      39.947 -13.107  -1.000  1.00  0.00     0.019 A 
ENDROOT
BRANCH   5  10
HETATM   10  N   UNL     1      41.402 -14.020   1.822  1.00  0.00    -0.321 N 
HETATM   11  C   UNL     1      40.416 -14.750   2.449  1.00  0.00     0.245 C 
HETATM   12  O   UNL     1      39.271 -14.378   2.674  1.00  0.00    -0.268 OA
HETATM   13  H   UNL     1      42.367 -14.327   1.955  1.00  0.00     0.169 HD
BRANCH  11  14
HETATM   14  C   UNL     1      40.896 -16.084   2.912  1.00  0.00     0.075 C 
HETATM   15  C   UNL     1      42.194 -16.393   2.758  1.00  0.00     0.017 C 
BRANCH  15  16
HETATM   16  C   UNL     1      42.857 -17.648   3.156  1.00  0.00    -0.036 A 
HETATM   17  C   UNL     1      43.506 -17.827   4.387  1.00  0.00     0.014 A 
HETATM   18  C   UNL     1      44.134 -19.040   4.690  1.00  0.00     0.043 A 
HETATM   19  C   UNL     1      44.121 -20.074   3.762  1.00  0.00     0.116 A 
HETATM   20  F   UNL     1      44.726 -21.232   4.055  1.00  0.00    -0.206 F 
HETATM   21  C   UNL     1      43.493 -19.919   2.536  1.00  0.00     0.043 A 
HETATM   22  C   UNL     1      42.864 -18.709   2.234  1.00  0.00     0.014 A 
ENDBRANCH  15  16
ENDBRANCH  11  14
ENDBRANCH   5  10
BRANCH   1  23
HETATM   23  C   UNL     1      42.696 -11.652   3.043  1.00  0.00     0.302 C 
HETATM   24  O   UNL     1      43.831 -11.185   3.060  1.00  0.00    -0.259 OA
BRANCH  23  25
HETATM   25  O   UNL     1      42.087 -12.226   4.118  1.00  0.00    -0.322 OA
HETATM   26  C   UNL     1      42.945 -13.048   4.913  1.00  0.00     0.213 C 
ENDBRANCH  23  25
ENDBRANCH   1  23
BRANCH   7  27
HETATM   27  C   UNL     1      38.478 -10.323  -3.077  1.00  0.00     0.294 C 
BRANCH  27  28
HETATM   28  N   UNL     1      37.170  -9.710  -2.586  1.00  0.00    -0.061 N 
HETATM   29  H   UNL     1      37.343  -8.700  -2.717  1.00  0.00     0.280 HD
HETATM   30  C   UNL     1      35.940 -10.005  -3.453  1.00  0.00     0.190 C 
HETATM   31  C   UNL     1      34.764  -9.200  -2.879  1.00  0.00     0.033 C 
HETATM   32  C   UNL     1      34.519  -9.485  -1.401  1.00  0.00     0.004 C 
HETATM   33  C   UNL     1      35.775  -9.206  -0.589  1.00  0.00     0.028 C 
HETATM   34  C   UNL     1      36.978  -9.970  -1.113  1.00  0.00     0.235 C 
BRANCH  30  35
HETATM   35  C   UNL     1      35.688 -11.514  -3.576  1.00  0.00     0.059 C 
BRANCH  35  36
HETATM   36  C   UNL     1      34.457 -11.857  -4.408  1.00  0.00     0.166 C 
BRANCH  36  37
HETATM   37  O   UNL     1      34.808 -12.934  -5.262  1.00  0.00    -0.401 OA
HETATM   38  H   UNL     1      34.554 -12.690  -6.173  1.00  0.00     0.209 HD
ENDBRANCH  36  37
ENDBRANCH  35  36
ENDBRANCH  30  35
ENDBRANCH  27  28
ENDBRANCH   7  27
TORSDOF 10
ENDMDL
