MODEL 1
REMARK VINA RESULT:      -8.0      0.000      0.000
REMARK  5 active torsions:
REMARK  status: ('A' for Active; 'I' for Inactive)
REMARK    1  A    between atoms: C_5  and  C_6 
REMARK    2  A    between atoms: C_9  and  O_10 
REMARK    3  A    between atoms: O_10  and  C_11 
REMARK    4  A    between atoms: C_11  and  C_12 
REMARK       I    between atoms: C_12  and  N_13 
REMARK    5  A    between atoms: N_13  and  C_14 
ROOT
HETATM    1  C   UNL     1      41.773 -14.089   1.717  1.00  0.00     0.278 C 
ENDROOT
BRANCH   1   2
HETATM    2  O   UNL     1      41.301 -12.953   2.436  1.00  0.00    -0.342 OA
BRANCH   2   3
HETATM    3  C   UNL     1      42.023 -12.590   3.539  1.00  0.00     0.069 A 
HETATM    4  C   UNL     1      43.290 -12.067   3.280  1.00  0.00     0.038 A 
HETATM    5  C   UNL     1      44.101 -11.626   4.329  1.00  0.00     0.018 A 
HETATM    6  C   UNL     1      43.645 -11.681   5.654  1.00  0.00     0.015 A 
HETATM    7  C   UNL     1      42.361 -12.190   5.900  1.00  0.00     0.018 A 
HETATM    8  C   UNL     1      41.551 -12.640   4.849  1.00  0.00     0.038 A 
BRANCH   6   9
HETATM    9  C   UNL     1      44.487 -11.208   6.744  1.00  0.00     0.198 A 
HETATM   10  N   UNL     1      45.861 -11.144   6.654  1.00  0.00    -0.136 NA
HETATM   11  N   UNL     1      46.301 -10.661   7.807  1.00  0.00     0.024 NA
HETATM   12  N   UNL     1      45.194 -10.460   8.533  1.00  0.00    -0.196 N 
HETATM   13  C   UNL     1      45.240  -9.903   9.858  1.00  0.00     0.200 C 
HETATM   14  N   UNL     1      44.031 -10.778   7.936  1.00  0.00    -0.137 NA
ENDBRANCH   6   9
ENDBRANCH   2   3
ENDBRANCH   1   2
BRANCH   1  15
HETATM   15  C   UNL     1      41.736 -15.407   2.500  1.00  0.00     0.246 C 
HETATM   16  N   UNL     1      42.982 -15.816   2.932  1.00  0.00    -0.324 N 
HETATM   17  H   UNL     1      43.756 -15.219   2.660  1.00  0.00     0.169 HD
HETATM   18  O   UNL     1      40.671 -15.996   2.674  1.00  0.00    -0.271 OA
BRANCH  16  19
HETATM   19  C   UNL     1      43.318 -16.968   3.671  1.00  0.00     0.047 A 
HETATM   20  C   UNL     1      43.208 -16.915   5.085  1.00  0.00     0.019 A 
HETATM   21  C   UNL     1      43.530 -18.049   5.835  1.00  0.00     0.044 A 
HETATM   22  C   UNL     1      42.831 -15.904   6.023  1.00  0.00     0.033 A 
HETATM   23  N   UNL     1      43.349 -17.731   7.163  1.00  0.00    -0.365 N 
HETATM   24  C   UNL     1      43.956 -19.247   5.253  1.00  0.00     0.030 A 
HETATM   25  H   UNL     1      43.511 -18.369   7.931  1.00  0.00     0.165 HD
HETATM   26  C   UNL     1      42.930 -16.435   7.288  1.00  0.00     0.089 A 
HETATM   27  C   UNL     1      44.059 -19.283   3.863  1.00  0.00     0.005 A 
HETATM   28  C   UNL     1      43.750 -18.166   3.085  1.00  0.00     0.030 A 
ENDBRANCH  16  19
ENDBRANCH   1  15
TORSDOF 5
ENDMDL
MODEL 2
REMARK VINA RESULT:      -8.0      4.325      8.167
REMARK  5 active torsions:
REMARK  status: ('A' for Active; 'I' for Inactive)
REMARK    1  A    between atoms: C_5  and  C_6 
REMARK    2  A    between atoms: C_9  and  O_10 
REMARK    3  A    between atoms: O_10  and  C_11 
REMARK    4  A    between atoms: C_11  and  C_12 
REMARK       I    between atoms: C_12  and  N_13 
REMARK    5  A    between atoms: N_13  and  C_14 
ROOT
HETATM    1  C   UNL     1      40.921 -12.297   2.289  1.00  0.00     0.278 C 
ENDROOT
BRANCH   1   2
HETATM    2  O   UNL     1      42.275 -12.555   2.653  1.00  0.00    -0.342 OA
BRANCH   2   3
HETATM    3  C   UNL     1      42.633 -13.870   2.767  1.00  0.00     0.069 A 
HETATM    4  C   UNL     1      42.378 -14.455   4.008  1.00  0.00     0.038 A 
HETATM    5  C   UNL     1      42.667 -15.804   4.226  1.00  0.00     0.018 A 
HETATM    6  C   UNL     1      43.195 -16.595   3.196  1.00  0.00     0.015 A 
HETATM    7  C   UNL     1      43.428 -16.001   1.947  1.00  0.00     0.018 A 
HETATM    8  C   UNL     1      43.147 -14.646   1.730  1.00  0.00     0.038 A 
BRANCH   6   9
HETATM    9  C   UNL     1      43.482 -18.005   3.423  1.00  0.00     0.198 A 
HETATM   10  N   UNL     1      43.355 -18.961   2.437  1.00  0.00    -0.136 NA
HETATM   11  N   UNL     1      43.705 -20.120   2.977  1.00  0.00     0.024 NA
HETATM   12  N   UNL     1      44.021 -19.821   4.244  1.00  0.00    -0.196 N 
HETATM   13  C   UNL     1      44.489 -20.815   5.169  1.00  0.00     0.200 C 
HETATM   14  N   UNL     1      43.905 -18.526   4.590  1.00  0.00    -0.137 NA
ENDBRANCH   6   9
ENDBRANCH   2   3
ENDBRANCH   1   2
BRANCH   1  15
HETATM   15  C   UNL     1      40.630 -12.392   0.786  1.00  0.00     0.246 C 
HETATM   16  N   UNL     1      39.592 -13.252   0.488  1.00  0.00    -0.324 N 
HETATM   17  H   UNL     1      39.176 -13.726   1.283  1.00  0.00     0.169 HD
HETATM   18  O   UNL     1      41.304 -11.751  -0.017  1.00  0.00    -0.271 OA
BRANCH  16  19
HETATM   19  C   UNL     1      39.061 -13.578  -0.775  1.00  0.00     0.047 A 
HETATM   20  C   UNL     1      38.197 -12.642  -1.403  1.00  0.00     0.019 A 
HETATM   21  C   UNL     1      37.665 -12.945  -2.659  1.00  0.00     0.044 A 
HETATM   22  C   UNL     1      37.676 -11.362  -1.041  1.00  0.00     0.033 A 
HETATM   23  N   UNL     1      36.865 -11.888  -3.034  1.00  0.00    -0.365 N 
HETATM   24  C   UNL     1      37.950 -14.135  -3.336  1.00  0.00     0.030 A 
HETATM   25  H   UNL     1      36.351 -11.841  -3.904  1.00  0.00     0.165 HD
HETATM   26  C   UNL     1      36.861 -10.928  -2.061  1.00  0.00     0.089 A 
HETATM   27  C   UNL     1      38.800 -15.044  -2.707  1.00  0.00     0.005 A 
HETATM   28  C   UNL     1      39.343 -14.774  -1.449  1.00  0.00     0.030 A 
ENDBRANCH  16  19
ENDBRANCH   1  15
TORSDOF 5
ENDMDL
MODEL 3
REMARK VINA RESULT:      -7.7      3.016      8.726
REMARK  5 active torsions:
REMARK  status: ('A' for Active; 'I' for Inactive)
REMARK    1  A    between atoms: C_5  and  C_6 
REMARK    2  A    between atoms: C_9  and  O_10 
REMARK    3  A    between atoms: O_10  and  C_11 
REMARK    4  A    between atoms: C_11  and  C_12 
REMARK       I    between atoms: C_12  and  N_13 
REMARK    5  A    between atoms: N_13  and  C_14 
ROOT
HETATM    1  C   UNL     1      44.480 -12.009   6.465  1.00  0.00     0.278 C 
ENDROOT
BRANCH   1   2
HETATM    2  O   UNL     1      43.300 -12.806   6.519  1.00  0.00    -0.342 OA
BRANCH   2   3
HETATM    3  C   UNL     1      43.419 -14.096   6.081  1.00  0.00     0.069 A 
HETATM    4  C   UNL     1      42.889 -14.351   4.816  1.00  0.00     0.038 A 
HETATM    5  C   UNL     1      42.988 -15.624   4.251  1.00  0.00     0.018 A 
HETATM    6  C   UNL     1      43.642 -16.659   4.935  1.00  0.00     0.015 A 
HETATM    7  C   UNL     1      44.190 -16.385   6.198  1.00  0.00     0.018 A 
HETATM    8  C   UNL     1      44.083 -15.111   6.769  1.00  0.00     0.038 A 
BRANCH   6   9
HETATM    9  C   UNL     1      43.757 -17.982   4.337  1.00  0.00     0.198 A 
HETATM   10  N   UNL     1      44.097 -19.103   5.064  1.00  0.00    -0.136 NA
HETATM   11  N   UNL     1      44.096 -20.125   4.219  1.00  0.00     0.024 NA
HETATM   12  N   UNL     1      43.763 -19.586   3.039  1.00  0.00    -0.196 N 
HETATM   13  C   UNL     1      43.618 -20.382   1.851  1.00  0.00     0.200 C 
HETATM   14  N   UNL     1      43.538 -18.260   3.038  1.00  0.00    -0.137 NA
ENDBRANCH   6   9
ENDBRANCH   2   3
ENDBRANCH   1   2
BRANCH   1  15
HETATM   15  C   UNL     1      44.754 -11.179   7.726  1.00  0.00     0.246 C 
HETATM   16  N   UNL     1      43.605 -10.848   8.417  1.00  0.00    -0.324 N 
HETATM   17  H   UNL     1      42.737 -11.166   7.999  1.00  0.00     0.169 HD
HETATM   18  O   UNL     1      45.904 -10.862   8.021  1.00  0.00    -0.271 OA
BRANCH  16  19
HETATM   19  C   UNL     1      43.484 -10.101   9.605  1.00  0.00     0.047 A 
HETATM   20  C   UNL     1      43.256  -8.703   9.500  1.00  0.00     0.019 A 
HETATM   21  C   UNL     1      43.127  -7.946  10.667  1.00  0.00     0.044 A 
HETATM   22  C   UNL     1      43.127  -7.789   8.408  1.00  0.00     0.033 A 
HETATM   23  N   UNL     1      42.924  -6.636  10.289  1.00  0.00    -0.365 N 
HETATM   24  C   UNL     1      43.208  -8.504  11.946  1.00  0.00     0.030 A 
HETATM   25  H   UNL     1      42.799  -5.868  10.935  1.00  0.00     0.165 HD
HETATM   26  C   UNL     1      42.927  -6.530   8.926  1.00  0.00     0.089 A 
HETATM   27  C   UNL     1      43.431  -9.878  12.033  1.00  0.00     0.005 A 
HETATM   28  C   UNL     1      43.570 -10.662  10.886  1.00  0.00     0.030 A 
ENDBRANCH  16  19
ENDBRANCH   1  15
TORSDOF 5
ENDMDL
MODEL 4
REMARK VINA RESULT:      -7.6      2.506      6.439
REMARK  5 active torsions:
REMARK  status: ('A' for Active; 'I' for Inactive)
REMARK    1  A    between atoms: C_5  and  C_6 
REMARK    2  A    between atoms: C_9  and  O_10 
REMARK    3  A    between atoms: O_10  and  C_11 
REMARK    4  A    between atoms: C_11  and  C_12 
REMARK       I    between atoms: C_12  and  N_13 
REMARK    5  A    between atoms: N_13  and  C_14 
ROOT
HETATM    1  C   UNL     1      41.280 -12.353   1.389  1.00  0.00     0.278 C 
ENDROOT
BRANCH   1   2
HETATM    2  O   UNL     1      40.706 -13.611   1.045  1.00  0.00    -0.342 OA
BRANCH   2   3
HETATM    3  C   UNL     1      41.373 -14.722   1.482  1.00  0.00     0.069 A 
HETATM    4  C   UNL     1      40.606 -15.636   2.205  1.00  0.00     0.038 A 
HETATM    5  C   UNL     1      41.172 -16.826   2.667  1.00  0.00     0.018 A 
HETATM    6  C   UNL     1      42.513 -17.131   2.393  1.00  0.00     0.015 A 
HETATM    7  C   UNL     1      43.269 -16.214   1.647  1.00  0.00     0.018 A 
HETATM    8  C   UNL     1      42.704 -15.016   1.191  1.00  0.00     0.038 A 
BRANCH   6   9
HETATM    9  C   UNL     1      43.097 -18.379   2.864  1.00  0.00     0.198 A 
HETATM   10  N   UNL     1      43.234 -19.490   2.059  1.00  0.00    -0.136 NA
HETATM   11  N   UNL     1      43.809 -20.431   2.796  1.00  0.00     0.024 NA
HETATM   12  N   UNL     1      43.989 -19.858   3.994  1.00  0.00    -0.196 N 
HETATM   13  C   UNL     1      44.625 -20.549   5.082  1.00  0.00     0.200 C 
HETATM   14  N   UNL     1      43.570 -18.585   4.107  1.00  0.00    -0.137 NA
ENDBRANCH   6   9
ENDBRANCH   2   3
ENDBRANCH   1   2
BRANCH   1  15
HETATM   15  C   UNL     1      41.458 -12.116   2.893  1.00  0.00     0.246 C 
HETATM   16  N   UNL     1      42.718 -12.452   3.349  1.00  0.00    -0.324 N 
HETATM   17  H   UNL     1      43.348 -12.831   2.651  1.00  0.00     0.169 HD
HETATM   18  O   UNL     1      40.526 -11.685   3.568  1.00  0.00    -0.271 OA
BRANCH  16  19
HETATM   19  C   UNL     1      43.225 -12.365   4.660  1.00  0.00     0.047 A 
HETATM   20  C   UNL     1      42.924 -13.414   5.569  1.00  0.00     0.019 A 
HETATM   21  C   UNL     1      43.423 -13.349   6.872  1.00  0.00     0.044 A 
HETATM   22  C   UNL     1      42.162 -14.621   5.488  1.00  0.00     0.033 A 
HETATM   23  N   UNL     1      42.983 -14.471   7.540  1.00  0.00    -0.365 N 
HETATM   24  C   UNL     1      44.217 -12.292   7.328  1.00  0.00     0.030 A 
HETATM   25  H   UNL     1      43.195 -14.681   8.505  1.00  0.00     0.165 HD
HETATM   26  C   UNL     1      42.216 -15.244   6.712  1.00  0.00     0.089 A 
HETATM   27  C   UNL     1      44.504 -11.269   6.425  1.00  0.00     0.005 A 
HETATM   28  C   UNL     1      44.016 -11.301   5.117  1.00  0.00     0.030 A 
ENDBRANCH  16  19
ENDBRANCH   1  15
TORSDOF 5
ENDMDL
MODEL 5
REMARK VINA RESULT:      -7.5      3.487      6.046
REMARK  5 active torsions:
REMARK  status: ('A' for Active; 'I' for Inactive)
REMARK    1  A    between atoms: C_5  and  C_6 
REMARK    2  A    between atoms: C_9  and  O_10 
REMARK    3  A    between atoms: O_10  and  C_11 
REMARK    4  A    between atoms: C_11  and  C_12 
REMARK       I    between atoms: C_12  and  N_13 
REMARK    5  A    between atoms: N_13  and  C_14 
ROOT
HETATM    1  C   UNL     1      42.113 -15.101   1.629  1.00  0.00     0.278 C 
ENDROOT
BRANCH   1   2
HETATM    2  O   UNL     1      42.071 -15.431   3.014  1.00  0.00    -0.342 OA
BRANCH   2   3
HETATM    3  C   UNL     1      42.583 -14.500   3.875  1.00  0.00     0.069 A 
HETATM    4  C   UNL     1      42.894 -14.971   5.151  1.00  0.00     0.038 A 
HETATM    5  C   UNL     1      43.460 -14.118   6.102  1.00  0.00     0.018 A 
HETATM    6  C   UNL     1      43.745 -12.783   5.782  1.00  0.00     0.015 A 
HETATM    7  C   UNL     1      43.447 -12.326   4.489  1.00  0.00     0.018 A 
HETATM    8  C   UNL     1      42.872 -13.179   3.538  1.00  0.00     0.038 A 
BRANCH   6   9
HETATM    9  C   UNL     1      44.348 -11.900   6.770  1.00  0.00     0.198 A 
HETATM   10  N   UNL     1      44.064 -11.981   8.117  1.00  0.00    -0.136 NA
HETATM   11  N   UNL     1      44.788 -11.049   8.720  1.00  0.00     0.024 NA
HETATM   12  N   UNL     1      45.465 -10.454   7.730  1.00  0.00    -0.196 N 
HETATM   13  C   UNL     1      46.403  -9.393   7.976  1.00  0.00     0.200 C 
HETATM   14  N   UNL     1      45.240 -10.931   6.492  1.00  0.00    -0.137 NA
ENDBRANCH   6   9
ENDBRANCH   2   3
ENDBRANCH   1   2
BRANCH   1  15
HETATM   15  C   UNL     1      40.747 -15.068   0.933  1.00  0.00     0.246 C 
HETATM   16  N   UNL     1      40.738 -14.291  -0.208  1.00  0.00    -0.324 N 
HETATM   17  H   UNL     1      41.614 -13.827  -0.427  1.00  0.00     0.169 HD
HETATM   18  O   UNL     1      39.793 -15.680   1.410  1.00  0.00    -0.271 OA
BRANCH  16  19
HETATM   19  C   UNL     1      39.666 -14.037  -1.086  1.00  0.00     0.047 A 
HETATM   20  C   UNL     1      38.897 -12.860  -0.885  1.00  0.00     0.019 A 
HETATM   21  C   UNL     1      37.833 -12.587  -1.749  1.00  0.00     0.044 A 
HETATM   22  C   UNL     1      38.928 -11.794   0.068  1.00  0.00     0.033 A 
HETATM   23  N   UNL     1      37.256 -11.407  -1.334  1.00  0.00    -0.365 N 
HETATM   24  C   UNL     1      37.489 -13.424  -2.814  1.00  0.00     0.030 A 
HETATM   25  H   UNL     1      36.460 -10.973  -1.780  1.00  0.00     0.165 HD
HETATM   26  C   UNL     1      37.908 -10.922  -0.234  1.00  0.00     0.089 A 
HETATM   27  C   UNL     1      38.253 -14.576  -2.999  1.00  0.00     0.005 A 
HETATM   28  C   UNL     1      39.319 -14.880  -2.150  1.00  0.00     0.030 A 
ENDBRANCH  16  19
ENDBRANCH   1  15
TORSDOF 5
ENDMDL
MODEL 6
REMARK VINA RESULT:      -7.4      4.131      8.327
REMARK  5 active torsions:
REMARK  status: ('A' for Active; 'I' for Inactive)
REMARK    1  A    between atoms: C_5  and  C_6 
REMARK    2  A    between atoms: C_9  and  O_10 
REMARK    3  A    between atoms: O_10  and  C_11 
REMARK    4  A    between atoms: C_11  and  C_12 
REMARK       I    between atoms: C_12  and  N_13 
REMARK    5  A    between atoms: N_13  and  C_14 
ROOT
HETATM    1  C   UNL     1      41.086 -12.696   1.955  1.00  0.00     0.278 C 
ENDROOT
BRANCH   1   2
HETATM    2  O   UNL     1      42.447 -13.110   1.875  1.00  0.00    -0.342 OA
BRANCH   2   3
HETATM    3  C   UNL     1      42.760 -14.288   2.494  1.00  0.00     0.069 A 
HETATM    4  C   UNL     1      42.540 -14.317   3.872  1.00  0.00     0.038 A 
HETATM    5  C   UNL     1      42.788 -15.481   4.603  1.00  0.00     0.018 A 
HETATM    6  C   UNL     1      43.238 -16.644   3.961  1.00  0.00     0.015 A 
HETATM    7  C   UNL     1      43.436 -16.608   2.572  1.00  0.00     0.018 A 
HETATM    8  C   UNL     1      43.196 -15.438   1.840  1.00  0.00     0.038 A 
BRANCH   6   9
HETATM    9  C   UNL     1      43.482 -17.860   4.724  1.00  0.00     0.198 A 
HETATM   10  N   UNL     1      43.267 -17.946   6.083  1.00  0.00    -0.136 NA
HETATM   11  N   UNL     1      43.574 -19.184   6.444  1.00  0.00     0.024 NA
HETATM   12  N   UNL     1      43.957 -19.782   5.308  1.00  0.00    -0.196 N 
HETATM   13  C   UNL     1      44.345 -21.165   5.268  1.00  0.00     0.200 C 
HETATM   14  N   UNL     1      43.925 -19.019   4.201  1.00  0.00    -0.137 NA
ENDBRANCH   6   9
ENDBRANCH   2   3
ENDBRANCH   1   2
BRANCH   1  15
HETATM   15  C   UNL     1      40.504 -12.140   0.650  1.00  0.00     0.246 C 
HETATM   16  N   UNL     1      39.224 -12.589   0.392  1.00  0.00    -0.324 N 
HETATM   17  H   UNL     1      38.844 -13.240   1.072  1.00  0.00     0.169 HD
HETATM   18  O   UNL     1      41.172 -11.388  -0.056  1.00  0.00    -0.271 OA
BRANCH  16  19
HETATM   19  C   UNL     1      38.395 -12.286  -0.706  1.00  0.00     0.047 A 
HETATM   20  C   UNL     1      38.305 -13.231  -1.762  1.00  0.00     0.019 A 
HETATM   21  C   UNL     1      37.483 -12.951  -2.857  1.00  0.00     0.044 A 
HETATM   22  C   UNL     1      38.904 -14.503  -2.021  1.00  0.00     0.033 A 
HETATM   23  N   UNL     1      37.582 -14.012  -3.730  1.00  0.00    -0.365 N 
HETATM   24  C   UNL     1      36.734 -11.776  -2.961  1.00  0.00     0.030 A 
HETATM   25  H   UNL     1      37.091 -14.075  -4.611  1.00  0.00     0.165 HD
HETATM   26  C   UNL     1      38.442 -14.954  -3.236  1.00  0.00     0.089 A 
HETATM   27  C   UNL     1      36.832 -10.857  -1.916  1.00  0.00     0.005 A 
HETATM   28  C   UNL     1      37.649 -11.104  -0.811  1.00  0.00     0.030 A 
ENDBRANCH  16  19
ENDBRANCH   1  15
TORSDOF 5
ENDMDL
MODEL 7
REMARK VINA RESULT:      -7.2      3.228      6.420
REMARK  5 active torsions:
REMARK  status: ('A' for Active; 'I' for Inactive)
REMARK    1  A    between atoms: C_5  and  C_6 
REMARK    2  A    between atoms: C_9  and  O_10 
REMARK    3  A    between atoms: O_10  and  C_11 
REMARK    4  A    between atoms: C_11  and  C_12 
REMARK       I    between atoms: C_12  and  N_13 
REMARK    5  A    between atoms: N_13  and  C_14 
ROOT
HETATM    1  C   UNL     1      41.483 -13.154   6.068  1.00  0.00     0.278 C 
ENDROOT
BRANCH   1   2
HETATM    2  O   UNL     1      42.002 -12.462   4.936  1.00  0.00    -0.342 OA
BRANCH   2   3
HETATM    3  C   UNL     1      41.315 -12.616   3.764  1.00  0.00     0.069 A 
HETATM    4  C   UNL     1      42.087 -12.985   2.661  1.00  0.00     0.038 A 
HETATM    5  C   UNL     1      41.486 -13.209   1.420  1.00  0.00     0.018 A 
HETATM    6  C   UNL     1      40.097 -13.089   1.269  1.00  0.00     0.015 A 
HETATM    7  C   UNL     1      39.329 -12.737   2.389  1.00  0.00     0.018 A 
HETATM    8  C   UNL     1      39.932 -12.504   3.632  1.00  0.00     0.038 A 
BRANCH   6   9
HETATM    9  C   UNL     1      39.471 -13.336  -0.023  1.00  0.00     0.198 A 
HETATM   10  N   UNL     1      38.684 -12.403  -0.663  1.00  0.00    -0.136 NA
HETATM   11  N   UNL     1      38.293 -12.948  -1.806  1.00  0.00     0.024 NA
HETATM   12  N   UNL     1      38.851 -14.166  -1.808  1.00  0.00    -0.196 N 
HETATM   13  C   UNL     1      38.693 -15.076  -2.909  1.00  0.00     0.200 C 
HETATM   14  N   UNL     1      39.595 -14.474  -0.731  1.00  0.00    -0.137 NA
ENDBRANCH   6   9
ENDBRANCH   2   3
ENDBRANCH   1   2
BRANCH   1  15
HETATM   15  C   UNL     1      41.462 -14.681   5.936  1.00  0.00     0.246 C 
HETATM   16  N   UNL     1      42.724 -15.237   5.856  1.00  0.00    -0.324 N 
HETATM   17  H   UNL     1      43.493 -14.575   5.869  1.00  0.00     0.169 HD
HETATM   18  O   UNL     1      40.392 -15.285   5.892  1.00  0.00    -0.271 OA
BRANCH  16  19
HETATM   19  C   UNL     1      43.075 -16.594   5.728  1.00  0.00     0.047 A 
HETATM   20  C   UNL     1      43.273 -17.118   4.423  1.00  0.00     0.019 A 
HETATM   21  C   UNL     1      43.628 -18.461   4.276  1.00  0.00     0.044 A 
HETATM   22  C   UNL     1      43.181 -16.577   3.103  1.00  0.00     0.033 A 
HETATM   23  N   UNL     1      43.749 -18.711   2.926  1.00  0.00    -0.365 N 
HETATM   24  C   UNL     1      43.804 -19.322   5.363  1.00  0.00     0.030 A 
HETATM   25  H   UNL     1      43.997 -19.608   2.531  1.00  0.00     0.165 HD
HETATM   26  C   UNL     1      43.476 -17.579   2.209  1.00  0.00     0.089 A 
HETATM   27  C   UNL     1      43.606 -18.794   6.638  1.00  0.00     0.005 A 
HETATM   28  C   UNL     1      43.246 -17.458   6.820  1.00  0.00     0.030 A 
ENDBRANCH  16  19
ENDBRANCH   1  15
TORSDOF 5
ENDMDL
MODEL 8
REMARK VINA RESULT:      -7.1     16.010     18.456
REMARK  5 active torsions:
REMARK  status: ('A' for Active; 'I' for Inactive)
REMARK    1  A    between atoms: C_5  and  C_6 
REMARK    2  A    between atoms: C_9  and  O_10 
REMARK    3  A    between atoms: O_10  and  C_11 
REMARK    4  A    between atoms: C_11  and  C_12 
REMARK       I    between atoms: C_12  and  N_13 
REMARK    5  A    between atoms: N_13  and  C_14 
ROOT
HETATM    1  C   UNL     1      42.062 -30.016   1.558  1.00  0.00     0.278 C 
ENDROOT
BRANCH   1   2
HETATM    2  O   UNL     1      42.308 -30.304   2.932  1.00  0.00    -0.342 OA
BRANCH   2   3
HETATM    3  C   UNL     1      41.320 -30.975   3.598  1.00  0.00     0.069 A 
HETATM    4  C   UNL     1      40.528 -31.811   2.810  1.00  0.00     0.038 A 
HETATM    5  C   UNL     1      39.513 -32.576   3.389  1.00  0.00     0.018 A 
HETATM    6  C   UNL     1      39.290 -32.533   4.772  1.00  0.00     0.015 A 
HETATM    7  C   UNL     1      40.106 -31.705   5.558  1.00  0.00     0.018 A 
HETATM    8  C   UNL     1      41.118 -30.931   4.976  1.00  0.00     0.038 A 
BRANCH   6   9
HETATM    9  C   UNL     1      38.240 -33.342   5.376  1.00  0.00     0.198 A 
HETATM   10  N   UNL     1      37.704 -33.067   6.616  1.00  0.00    -0.136 NA
HETATM   11  N   UNL     1      36.775 -33.984   6.846  1.00  0.00     0.024 NA
HETATM   12  N   UNL     1      36.790 -34.762   5.756  1.00  0.00    -0.196 N 
HETATM   13  C   UNL     1      35.891 -35.872   5.597  1.00  0.00     0.200 C 
HETATM   14  N   UNL     1      37.676 -34.422   4.802  1.00  0.00    -0.137 NA
ENDBRANCH   6   9
ENDBRANCH   2   3
ENDBRANCH   1   2
BRANCH   1  15
HETATM   15  C   UNL     1      43.293 -30.119   0.649  1.00  0.00     0.246 C 
HETATM   16  N   UNL     1      43.993 -28.933   0.548  1.00  0.00    -0.324 N 
HETATM   17  H   UNL     1      43.599 -28.149   1.058  1.00  0.00     0.169 HD
HETATM   18  O   UNL     1      43.560 -31.177   0.084  1.00  0.00    -0.271 OA
BRANCH  16  19
HETATM   19  C   UNL     1      45.160 -28.666  -0.194  1.00  0.00     0.047 A 
HETATM   20  C   UNL     1      46.417 -28.864   0.436  1.00  0.00     0.019 A 
HETATM   21  C   UNL     1      47.587 -28.611  -0.286  1.00  0.00     0.044 A 
HETATM   22  C   UNL     1      46.829 -29.281   1.740  1.00  0.00     0.033 A 
HETATM   23  N   UNL     1      48.652 -28.870   0.549  1.00  0.00    -0.365 N 
HETATM   24  C   UNL     1      47.578 -28.172  -1.613  1.00  0.00     0.030 A 
HETATM   25  H   UNL     1      49.622 -28.769   0.285  1.00  0.00     0.165 HD
HETATM   26  C   UNL     1      48.204 -29.272   1.777  1.00  0.00     0.089 A 
HETATM   27  C   UNL     1      46.336 -27.982  -2.218  1.00  0.00     0.005 A 
HETATM   28  C   UNL     1      45.149 -28.221  -1.523  1.00  0.00     0.030 A 
ENDBRANCH  16  19
ENDBRANCH   1  15
TORSDOF 5
ENDMDL
MODEL 9
REMARK VINA RESULT:      -7.0      4.153      9.081
REMARK  5 active torsions:
REMARK  status: ('A' for Active; 'I' for Inactive)
REMARK    1  A    between atoms: C_5  and  C_6 
REMARK    2  A    between atoms: C_9  and  O_10 
REMARK    3  A    between atoms: O_10  and  C_11 
REMARK    4  A    between atoms: C_11  and  C_12 
REMARK       I    between atoms: C_12  and  N_13 
REMARK    5  A    between atoms: N_13  and  C_14 
ROOT
HETATM    1  C   UNL     1      45.338  -9.953   9.353  1.00  0.00     0.278 C 
ENDROOT
BRANCH   1   2
HETATM    2  O   UNL     1      44.626  -9.605   8.169  1.00  0.00    -0.342 OA
BRANCH   2   3
HETATM    3  C   UNL     1      44.070 -10.640   7.469  1.00  0.00     0.069 A 
HETATM    4  C   UNL     1      42.813 -10.385   6.920  1.00  0.00     0.038 A 
HETATM    5  C   UNL     1      42.167 -11.356   6.152  1.00  0.00     0.018 A 
HETATM    6  C   UNL     1      42.781 -12.591   5.901  1.00  0.00     0.015 A 
HETATM    7  C   UNL     1      44.054 -12.828   6.440  1.00  0.00     0.018 A 
HETATM    8  C   UNL     1      44.699 -11.858   7.219  1.00  0.00     0.038 A 
BRANCH   6   9
HETATM    9  C   UNL     1      42.110 -13.596   5.087  1.00  0.00     0.198 A 
HETATM   10  N   UNL     1      40.813 -13.455   4.643  1.00  0.00    -0.136 NA
HETATM   11  N   UNL     1      40.530 -14.535   3.928  1.00  0.00     0.024 NA
HETATM   12  N   UNL     1      41.648 -15.271   3.972  1.00  0.00    -0.196 N 
HETATM   13  C   UNL     1      41.763 -16.526   3.281  1.00  0.00     0.200 C 
HETATM   14  N   UNL     1      42.670 -14.750   4.675  1.00  0.00    -0.137 NA
ENDBRANCH   6   9
ENDBRANCH   2   3
ENDBRANCH   1   2
BRANCH   1  15
HETATM   15  C   UNL     1      44.477 -10.046  10.618  1.00  0.00     0.246 C 
HETATM   16  N   UNL     1      43.804  -8.874  10.903  1.00  0.00    -0.324 N 
HETATM   17  H   UNL     1      43.980  -8.104  10.267  1.00  0.00     0.169 HD
HETATM   18  O   UNL     1      44.448 -11.085  11.274  1.00  0.00    -0.271 OA
BRANCH  16  19
HETATM   19  C   UNL     1      42.933  -8.604  11.978  1.00  0.00     0.047 A 
HETATM   20  C   UNL     1      41.575  -9.000  11.858  1.00  0.00     0.019 A 
HETATM   21  C   UNL     1      40.697  -8.746  12.915  1.00  0.00     0.044 A 
HETATM   22  C   UNL     1      40.803  -9.636  10.836  1.00  0.00     0.033 A 
HETATM   23  N   UNL     1      39.456  -9.216  12.544  1.00  0.00    -0.365 N 
HETATM   24  C   UNL     1      41.098  -8.120  14.099  1.00  0.00     0.030 A 
HETATM   25  H   UNL     1      38.629  -9.161  13.121  1.00  0.00     0.165 HD
HETATM   26  C   UNL     1      39.509  -9.752  11.287  1.00  0.00     0.089 A 
HETATM   27  C   UNL     1      42.435  -7.737  14.202  1.00  0.00     0.005 A 
HETATM   28  C   UNL     1      43.336  -7.971  13.162  1.00  0.00     0.030 A 
ENDBRANCH  16  19
ENDBRANCH   1  15
TORSDOF 5
ENDMDL
MODEL 10
REMARK VINA RESULT:      -7.0      3.377      3.791
REMARK  5 active torsions:
REMARK  status: ('A' for Active; 'I' for Inactive)
REMARK    1  A    between atoms: C_5  and  C_6 
REMARK    2  A    between atoms: C_9  and  O_10 
REMARK    3  A    between atoms: O_10  and  C_11 
REMARK    4  A    between atoms: C_11  and  C_12 
REMARK       I    between atoms: C_12  and  N_13 
REMARK    5  A    between atoms: N_13  and  C_14 
ROOT
HETATM    1  C   UNL     1      40.744 -13.431   1.899  1.00  0.00     0.278 C 
ENDROOT
BRANCH   1   2
HETATM    2  O   UNL     1      39.574 -13.494   2.709  1.00  0.00    -0.342 OA
BRANCH   2   3
HETATM    3  C   UNL     1      39.519 -12.628   3.766  1.00  0.00     0.069 A 
HETATM    4  C   UNL     1      39.096 -11.335   3.459  1.00  0.00     0.038 A 
HETATM    5  C   UNL     1      38.965 -10.376   4.466  1.00  0.00     0.018 A 
HETATM    6  C   UNL     1      39.234 -10.704   5.802  1.00  0.00     0.015 A 
HETATM    7  C   UNL     1      39.639 -12.014   6.102  1.00  0.00     0.018 A 
HETATM    8  C   UNL     1      39.779 -12.973   5.091  1.00  0.00     0.038 A 
BRANCH   6   9
HETATM    9  C   UNL     1      39.082  -9.706   6.852  1.00  0.00     0.198 A 
HETATM   10  N   UNL     1      38.716  -8.402   6.596  1.00  0.00    -0.136 NA
HETATM   11  N   UNL     1      38.661  -7.780   7.766  1.00  0.00     0.024 NA
HETATM   12  N   UNL     1      38.993  -8.719   8.662  1.00  0.00    -0.196 N 
HETATM   13  C   UNL     1      39.019  -8.450  10.074  1.00  0.00     0.200 C 
HETATM   14  N   UNL     1      39.267  -9.938   8.165  1.00  0.00    -0.137 NA
ENDBRANCH   6   9
ENDBRANCH   2   3
ENDBRANCH   1   2
BRANCH   1  15
HETATM   15  C   UNL     1      41.929 -14.256   2.414  1.00  0.00     0.246 C 
HETATM   16  N   UNL     1      41.599 -15.569   2.686  1.00  0.00    -0.324 N 
HETATM   17  H   UNL     1      40.625 -15.813   2.540  1.00  0.00     0.169 HD
HETATM   18  O   UNL     1      43.031 -13.732   2.562  1.00  0.00    -0.271 OA
BRANCH  16  19
HETATM   19  C   UNL     1      42.430 -16.598   3.170  1.00  0.00     0.047 A 
HETATM   20  C   UNL     1      42.585 -16.732   4.575  1.00  0.00     0.019 A 
HETATM   21  C   UNL     1      43.401 -17.751   5.075  1.00  0.00     0.044 A 
HETATM   22  C   UNL     1      42.086 -16.021   5.710  1.00  0.00     0.033 A 
HETATM   23  N   UNL     1      43.386 -17.656   6.449  1.00  0.00    -0.365 N 
HETATM   24  C   UNL     1      44.075 -18.655   4.249  1.00  0.00     0.030 A 
HETATM   25  H   UNL     1      43.894 -18.271   7.070  1.00  0.00     0.165 HD
HETATM   26  C   UNL     1      42.597 -16.611   6.843  1.00  0.00     0.089 A 
HETATM   27  C   UNL     1      43.913 -18.510   2.871  1.00  0.00     0.005 A 
HETATM   28  C   UNL     1      43.110 -17.500   2.340  1.00  0.00     0.030 A 
ENDBRANCH  16  19
ENDBRANCH   1  15
TORSDOF 5
ENDMDL
