MODEL 1
REMARK VINA RESULT:      -9.4      0.000      0.000
REMARK  6 active torsions:
REMARK  status: ('A' for Active; 'I' for Inactive)
REMARK    1  A    between atoms: C_3  and  C_4 
REMARK       I    between atoms: C_4  and  N_5 
REMARK    2  A    between atoms: N_5  and  C_6 
REMARK    3  A    between atoms: C_6  and  C_7 
REMARK    4  A    between atoms: C_6  and  C_22 
REMARK       I    between atoms: C_7  and  N_8 
REMARK    5  A    between atoms: N_8  and  C_9 
REMARK    6  A    between atoms: C_11  and  C_12 
ROOT
HETATM    1  C   UNL     1      43.235 -14.314   6.713  1.00  0.00     0.245 C 
HETATM    2  N   UNL     1      43.879 -13.173   6.275  1.00  0.00    -0.325 N 
HETATM    3  O   UNL     1      43.209 -14.683   7.887  1.00  0.00    -0.271 OA
HETATM    4  H   UNL     1      43.853 -13.006   5.270  1.00  0.00     0.169 HD
ENDROOT
BRANCH   1   5
HETATM    5  C   UNL     1      42.364 -15.009   5.612  1.00  0.00     0.180 C 
BRANCH   5   6
HETATM    6  N   UNL     1      42.563 -16.464   5.434  1.00  0.00    -0.343 N 
HETATM    7  C   UNL     1      43.792 -17.012   5.150  1.00  0.00     0.252 C 
HETATM    8  O   UNL     1      44.856 -16.497   5.466  1.00  0.00    -0.268 OA
HETATM    9  H   UNL     1      41.755 -17.002   5.141  1.00  0.00     0.163 HD
BRANCH   7  10
HETATM   10  C   UNL     1      43.767 -18.309   4.447  1.00  0.00     0.037 A 
HETATM   11  C   UNL     1      43.539 -18.384   3.061  1.00  0.00    -0.046 A 
HETATM   12  C   UNL     1      43.289 -17.168   2.214  1.00  0.00     0.049 C 
HETATM   13  C   UNL     1      43.535 -19.650   2.456  1.00  0.00     0.007 A 
HETATM   14  C   UNL     1      43.787 -20.800   3.207  1.00  0.00     0.001 A 
HETATM   15  C   UNL     1      44.042 -20.706   4.574  1.00  0.00     0.001 A 
HETATM   16  C   UNL     1      44.035 -19.460   5.198  1.00  0.00     0.017 A 
ENDBRANCH   7  10
ENDBRANCH   5   6
BRANCH   5  17
HETATM   17  C   UNL     1      40.839 -14.726   5.738  1.00  0.00     0.009 C 
HETATM   18  C   UNL     1      40.122 -15.675   6.704  1.00  0.00     0.012 C 
HETATM   19  C   UNL     1      40.525 -13.267   6.077  1.00  0.00     0.012 C 
ENDBRANCH   5  17
ENDBRANCH   1   5
BRANCH   2  20
HETATM   20  C   UNL     1      44.473 -12.153   7.043  1.00  0.00     0.035 A 
HETATM   21  C   UNL     1      43.918 -11.640   8.218  1.00  0.00     0.042 A 
HETATM   22  C   UNL     1      44.507 -10.551   8.884  1.00  0.00    -0.021 A 
HETATM   23  C   UNL     1      45.699 -10.017   8.374  1.00  0.00     0.012 A 
HETATM   24  C   UNL     1      46.268 -10.534   7.210  1.00  0.00     0.003 A 
HETATM   25  C   UNL     1      45.647 -11.585   6.539  1.00  0.00     0.029 A 
BRANCH  22  26
HETATM   26  C   UNL     1      43.873  -9.940  10.046  1.00  0.00     0.010 A 
HETATM   27  C   UNL     1      43.518 -10.492  11.301  1.00  0.00     0.152 A 
HETATM   28  N   UNL     1      42.976  -9.597  12.132  1.00  0.00    -0.187 NA
HETATM   29  N   UNL     1      42.989  -8.463  11.416  1.00  0.00    -0.289 N 
HETATM   30  H   UNL     1      42.631  -7.617  11.848  1.00  0.00     0.188 HD
HETATM   31  C   UNL     1      43.509  -8.615  10.165  1.00  0.00     0.123 A 
ENDBRANCH  22  26
ENDBRANCH   2  20
TORSDOF 6
ENDMDL
MODEL 2
REMARK VINA RESULT:      -9.2      4.921      8.717
REMARK  6 active torsions:
REMARK  status: ('A' for Active; 'I' for Inactive)
REMARK    1  A    between atoms: C_3  and  C_4 
REMARK       I    between atoms: C_4  and  N_5 
REMARK    2  A    between atoms: N_5  and  C_6 
REMARK    3  A    between atoms: C_6  and  C_7 
REMARK    4  A    between atoms: C_6  and  C_22 
REMARK       I    between atoms: C_7  and  N_8 
REMARK    5  A    between atoms: N_8  and  C_9 
REMARK    6  A    between atoms: C_11  and  C_12 
ROOT
HETATM    1  C   UNL     1      42.585 -13.323   2.898  1.00  0.00     0.245 C 
HETATM    2  N   UNL     1      42.151 -14.354   3.710  1.00  0.00    -0.325 N 
HETATM    3  O   UNL     1      43.767 -13.099   2.641  1.00  0.00    -0.271 OA
HETATM    4  H   UNL     1      41.146 -14.403   3.868  1.00  0.00     0.169 HD
ENDROOT
BRANCH   1   5
HETATM    5  C   UNL     1      41.425 -12.570   2.163  1.00  0.00     0.180 C 
BRANCH   5   6
HETATM    6  N   UNL     1      40.920 -13.190   0.918  1.00  0.00    -0.343 N 
HETATM    7  C   UNL     1      40.709 -12.469  -0.234  1.00  0.00     0.252 C 
HETATM    8  O   UNL     1      41.312 -11.442  -0.514  1.00  0.00    -0.268 OA
HETATM    9  H   UNL     1      40.374 -14.038   1.020  1.00  0.00     0.163 HD
BRANCH   7  10
HETATM   10  C   UNL     1      39.707 -13.026  -1.164  1.00  0.00     0.037 A 
HETATM   11  C   UNL     1      38.402 -12.505  -1.227  1.00  0.00    -0.046 A 
HETATM   12  C   UNL     1      37.938 -11.374  -0.354  1.00  0.00     0.049 C 
HETATM   13  C   UNL     1      37.502 -13.078  -2.138  1.00  0.00     0.007 A 
HETATM   14  C   UNL     1      37.905 -14.114  -2.983  1.00  0.00     0.001 A 
HETATM   15  C   UNL     1      39.212 -14.598  -2.929  1.00  0.00     0.001 A 
HETATM   16  C   UNL     1      40.117 -14.054  -2.020  1.00  0.00     0.017 A 
ENDBRANCH   7  10
ENDBRANCH   5   6
BRANCH   5  17
HETATM   17  C   UNL     1      40.213 -12.227   3.076  1.00  0.00     0.009 C 
HETATM   18  C   UNL     1      39.807 -10.750   3.021  1.00  0.00     0.012 C 
HETATM   19  C   UNL     1      39.003 -13.132   2.833  1.00  0.00     0.012 C 
ENDBRANCH   5  17
ENDBRANCH   1   5
BRANCH   2  20
HETATM   20  C   UNL     1      42.902 -15.411   4.258  1.00  0.00     0.035 A 
HETATM   21  C   UNL     1      43.041 -16.664   3.653  1.00  0.00     0.042 A 
HETATM   22  C   UNL     1      43.719 -17.711   4.301  1.00  0.00    -0.021 A 
HETATM   23  C   UNL     1      44.304 -17.462   5.551  1.00  0.00     0.012 A 
HETATM   24  C   UNL     1      44.184 -16.210   6.154  1.00  0.00     0.003 A 
HETATM   25  C   UNL     1      43.470 -15.196   5.518  1.00  0.00     0.029 A 
BRANCH  22  26
HETATM   26  C   UNL     1      43.771 -19.050   3.727  1.00  0.00     0.010 A 
HETATM   27  C   UNL     1      43.576 -19.492   2.395  1.00  0.00     0.152 A 
HETATM   28  N   UNL     1      43.739 -20.810   2.251  1.00  0.00    -0.187 NA
HETATM   29  N   UNL     1      44.049 -21.220   3.491  1.00  0.00    -0.289 N 
HETATM   30  H   UNL     1      44.235 -22.206   3.639  1.00  0.00     0.188 HD
HETATM   31  C   UNL     1      44.076 -20.210   4.408  1.00  0.00     0.123 A 
ENDBRANCH  22  26
ENDBRANCH   2  20
TORSDOF 6
ENDMDL
MODEL 3
REMARK VINA RESULT:      -9.2      6.302     10.055
REMARK  6 active torsions:
REMARK  status: ('A' for Active; 'I' for Inactive)
REMARK    1  A    between atoms: C_3  and  C_4 
REMARK       I    between atoms: C_4  and  N_5 
REMARK    2  A    between atoms: N_5  and  C_6 
REMARK    3  A    between atoms: C_6  and  C_7 
REMARK    4  A    between atoms: C_6  and  C_22 
REMARK       I    between atoms: C_7  and  N_8 
REMARK    5  A    between atoms: N_8  and  C_9 
REMARK    6  A    between atoms: C_11  and  C_12 
ROOT
HETATM    1  C   UNL     1      40.329 -14.878   0.404  1.00  0.00     0.245 C 
HETATM    2  N   UNL     1      41.634 -14.689   0.817  1.00  0.00    -0.325 N 
HETATM    3  O   UNL     1      39.585 -15.751   0.848  1.00  0.00    -0.271 OA
HETATM    4  H   UNL     1      42.150 -13.951   0.339  1.00  0.00     0.169 HD
ENDROOT
BRANCH   1   5
HETATM    5  C   UNL     1      39.801 -13.752  -0.548  1.00  0.00     0.180 C 
BRANCH   5   6
HETATM    6  N   UNL     1      40.619 -12.522  -0.634  1.00  0.00    -0.343 N 
HETATM    7  C   UNL     1      40.076 -11.264  -0.518  1.00  0.00     0.252 C 
HETATM    8  O   UNL     1      39.050 -11.020   0.101  1.00  0.00    -0.268 OA
HETATM    9  H   UNL     1      41.488 -12.588  -1.152  1.00  0.00     0.163 HD
BRANCH   7  10
HETATM   10  C   UNL     1      40.831 -10.178  -1.175  1.00  0.00     0.037 A 
HETATM   11  C   UNL     1      40.508  -9.747  -2.474  1.00  0.00    -0.046 A 
HETATM   12  C   UNL     1      39.399 -10.363  -3.280  1.00  0.00     0.049 C 
HETATM   13  C   UNL     1      41.263  -8.706  -3.034  1.00  0.00     0.007 A 
HETATM   14  C   UNL     1      42.284  -8.092  -2.306  1.00  0.00     0.001 A 
HETATM   15  C   UNL     1      42.571  -8.512  -1.008  1.00  0.00     0.001 A 
HETATM   16  C   UNL     1      41.844  -9.555  -0.437  1.00  0.00     0.017 A 
ENDBRANCH   7  10
ENDBRANCH   5   6
BRANCH   5  17
HETATM   17  C   UNL     1      39.482 -14.239  -1.991  1.00  0.00     0.009 C 
HETATM   18  C   UNL     1      38.091 -13.825  -2.481  1.00  0.00     0.012 C 
HETATM   19  C   UNL     1      40.556 -13.847  -3.008  1.00  0.00     0.012 C 
ENDBRANCH   5  17
ENDBRANCH   1   5
BRANCH   2  20
HETATM   20  C   UNL     1      42.312 -15.306   1.885  1.00  0.00     0.035 A 
HETATM   21  C   UNL     1      42.673 -16.656   1.903  1.00  0.00     0.042 A 
HETATM   22  C   UNL     1      43.257 -17.236   3.043  1.00  0.00    -0.021 A 
HETATM   23  C   UNL     1      43.522 -16.421   4.152  1.00  0.00     0.012 A 
HETATM   24  C   UNL     1      43.180 -15.068   4.136  1.00  0.00     0.003 A 
HETATM   25  C   UNL     1      42.561 -14.520   3.015  1.00  0.00     0.029 A 
BRANCH  22  26
HETATM   26  C   UNL     1      43.533 -18.666   3.108  1.00  0.00     0.010 A 
HETATM   27  C   UNL     1      43.348 -19.688   2.144  1.00  0.00     0.152 A 
HETATM   28  N   UNL     1      43.754 -20.888   2.569  1.00  0.00    -0.187 NA
HETATM   29  N   UNL     1      44.210 -20.640   3.806  1.00  0.00    -0.289 N 
HETATM   30  H   UNL     1      44.592 -21.413   4.341  1.00  0.00     0.188 HD
HETATM   31  C   UNL     1      44.096 -19.333   4.177  1.00  0.00     0.123 A 
ENDBRANCH  22  26
ENDBRANCH   2  20
TORSDOF 6
ENDMDL
MODEL 4
REMARK VINA RESULT:      -9.2      5.164      8.985
REMARK  6 active torsions:
REMARK  status: ('A' for Active; 'I' for Inactive)
REMARK    1  A    between atoms: C_3  and  C_4 
REMARK       I    between atoms: C_4  and  N_5 
REMARK    2  A    between atoms: N_5  and  C_6 
REMARK    3  A    between atoms: C_6  and  C_7 
REMARK    4  A    between atoms: C_6  and  C_22 
REMARK       I    between atoms: C_7  and  N_8 
REMARK    5  A    between atoms: N_8  and  C_9 
REMARK    6  A    between atoms: C_11  and  C_12 
ROOT
HETATM    1  C   UNL     1      40.724 -14.859   2.911  1.00  0.00     0.245 C 
HETATM    2  N   UNL     1      42.059 -14.785   3.260  1.00  0.00    -0.325 N 
HETATM    3  O   UNL     1      40.017 -15.848   3.095  1.00  0.00    -0.271 OA
HETATM    4  H   UNL     1      42.536 -13.917   3.017  1.00  0.00     0.169 HD
ENDROOT
BRANCH   1   5
HETATM    5  C   UNL     1      40.122 -13.494   2.431  1.00  0.00     0.180 C 
BRANCH   5   6
HETATM    6  N   UNL     1      39.335 -13.524   1.179  1.00  0.00    -0.343 N 
HETATM    7  C   UNL     1      39.789 -12.962   0.008  1.00  0.00     0.252 C 
HETATM    8  O   UNL     1      40.973 -12.821  -0.265  1.00  0.00    -0.268 OA
HETATM    9  H   UNL     1      38.330 -13.608   1.274  1.00  0.00     0.163 HD
BRANCH   7  10
HETATM   10  C   UNL     1      38.744 -12.548  -0.949  1.00  0.00     0.037 A 
HETATM   11  C   UNL     1      38.326 -13.401  -1.987  1.00  0.00    -0.046 A 
HETATM   12  C   UNL     1      38.917 -14.766  -2.200  1.00  0.00     0.049 C 
HETATM   13  C   UNL     1      37.325 -12.946  -2.857  1.00  0.00     0.007 A 
HETATM   14  C   UNL     1      36.736 -11.693  -2.675  1.00  0.00     0.001 A 
HETATM   15  C   UNL     1      37.141 -10.872  -1.623  1.00  0.00     0.001 A 
HETATM   16  C   UNL     1      38.145 -11.298  -0.756  1.00  0.00     0.017 A 
ENDBRANCH   7  10
ENDBRANCH   5   6
BRANCH   5  17
HETATM   17  C   UNL     1      39.298 -12.747   3.519  1.00  0.00     0.009 C 
HETATM   18  C   UNL     1      39.901 -12.858   4.924  1.00  0.00     0.012 C 
HETATM   19  C   UNL     1      39.019 -11.285   3.162  1.00  0.00     0.012 C 
ENDBRANCH   5  17
ENDBRANCH   1   5
BRANCH   2  20
HETATM   20  C   UNL     1      42.821 -15.704   4.006  1.00  0.00     0.035 A 
HETATM   21  C   UNL     1      43.048 -17.027   3.614  1.00  0.00     0.042 A 
HETATM   22  C   UNL     1      43.731 -17.925   4.453  1.00  0.00    -0.021 A 
HETATM   23  C   UNL     1      44.229 -17.455   5.677  1.00  0.00     0.012 A 
HETATM   24  C   UNL     1      44.021 -16.133   6.068  1.00  0.00     0.003 A 
HETATM   25  C   UNL     1      43.304 -15.268   5.244  1.00  0.00     0.029 A 
BRANCH  22  26
HETATM   26  C   UNL     1      43.873 -19.332   4.101  1.00  0.00     0.010 A 
HETATM   27  C   UNL     1      43.761 -19.987   2.849  1.00  0.00     0.152 A 
HETATM   28  N   UNL     1      43.994 -21.300   2.923  1.00  0.00    -0.187 NA
HETATM   29  N   UNL     1      44.265 -21.494   4.222  1.00  0.00    -0.289 N 
HETATM   30  H   UNL     1      44.492 -22.433   4.531  1.00  0.00     0.188 HD
HETATM   31  C   UNL     1      44.202 -20.353   4.968  1.00  0.00     0.123 A 
ENDBRANCH  22  26
ENDBRANCH   2  20
TORSDOF 6
ENDMDL
MODEL 5
REMARK VINA RESULT:      -9.0      2.265      8.493
REMARK  6 active torsions:
REMARK  status: ('A' for Active; 'I' for Inactive)
REMARK    1  A    between atoms: C_3  and  C_4 
REMARK       I    between atoms: C_4  and  N_5 
REMARK    2  A    between atoms: N_5  and  C_6 
REMARK    3  A    between atoms: C_6  and  C_7 
REMARK    4  A    between atoms: C_6  and  C_22 
REMARK       I    between atoms: C_7  and  N_8 
REMARK    5  A    between atoms: N_8  and  C_9 
REMARK    6  A    between atoms: C_11  and  C_12 
ROOT
HETATM    1  C   UNL     1      41.260 -13.507   4.814  1.00  0.00     0.245 C 
HETATM    2  N   UNL     1      42.498 -14.068   4.563  1.00  0.00    -0.325 N 
HETATM    3  O   UNL     1      40.223 -13.841   4.242  1.00  0.00    -0.271 OA
HETATM    4  H   UNL     1      43.280 -13.672   5.083  1.00  0.00     0.169 HD
ENDROOT
BRANCH   1   5
HETATM    5  C   UNL     1      41.247 -12.534   6.042  1.00  0.00     0.180 C 
BRANCH   5   6
HETATM    6  N   UNL     1      42.505 -11.807   6.320  1.00  0.00    -0.343 N 
HETATM    7  C   UNL     1      43.451 -12.277   7.200  1.00  0.00     0.252 C 
HETATM    8  O   UNL     1      43.607 -13.462   7.464  1.00  0.00    -0.268 OA
HETATM    9  H   UNL     1      42.496 -10.805   6.168  1.00  0.00     0.163 HD
BRANCH   7  10
HETATM   10  C   UNL     1      44.321 -11.254   7.813  1.00  0.00     0.037 A 
HETATM   11  C   UNL     1      45.505 -10.829   7.182  1.00  0.00    -0.046 A 
HETATM   12  C   UNL     1      45.969 -11.393   5.869  1.00  0.00     0.049 C 
HETATM   13  C   UNL     1      46.281  -9.849   7.818  1.00  0.00     0.007 A 
HETATM   14  C   UNL     1      45.868  -9.285   9.027  1.00  0.00     0.001 A 
HETATM   15  C   UNL     1      44.676  -9.695   9.623  1.00  0.00     0.001 A 
HETATM   16  C   UNL     1      43.898 -10.679   9.017  1.00  0.00     0.017 A 
ENDBRANCH   7  10
ENDBRANCH   5   6
BRANCH   5  17
HETATM   17  C   UNL     1      40.074 -11.513   6.029  1.00  0.00     0.009 C 
HETATM   18  C   UNL     1      40.028 -10.621   7.274  1.00  0.00     0.012 C 
HETATM   19  C   UNL     1      40.027 -10.669   4.754  1.00  0.00     0.012 C 
ENDBRANCH   5  17
ENDBRANCH   1   5
BRANCH   2  20
HETATM   20  C   UNL     1      42.806 -15.188   3.767  1.00  0.00     0.035 A 
HETATM   21  C   UNL     1      43.001 -16.475   4.275  1.00  0.00     0.042 A 
HETATM   22  C   UNL     1      43.408 -17.531   3.441  1.00  0.00    -0.021 A 
HETATM   23  C   UNL     1      43.566 -17.282   2.070  1.00  0.00     0.012 A 
HETATM   24  C   UNL     1      43.357 -16.003   1.552  1.00  0.00     0.003 A 
HETATM   25  C   UNL     1      42.997 -14.959   2.401  1.00  0.00     0.029 A 
BRANCH  22  26
HETATM   26  C   UNL     1      43.722 -18.847   3.982  1.00  0.00     0.010 A 
HETATM   27  C   UNL     1      43.968 -19.264   5.314  1.00  0.00     0.152 A 
HETATM   28  N   UNL     1      44.192 -20.577   5.419  1.00  0.00    -0.187 NA
HETATM   29  N   UNL     1      44.082 -21.011   4.154  1.00  0.00    -0.289 N 
HETATM   30  H   UNL     1      44.202 -22.003   3.974  1.00  0.00     0.188 HD
HETATM   31  C   UNL     1      43.807 -20.019   3.259  1.00  0.00     0.123 A 
ENDBRANCH  22  26
ENDBRANCH   2  20
TORSDOF 6
ENDMDL
MODEL 6
REMARK VINA RESULT:      -8.9      4.941      8.177
REMARK  6 active torsions:
REMARK  status: ('A' for Active; 'I' for Inactive)
REMARK    1  A    between atoms: C_3  and  C_4 
REMARK       I    between atoms: C_4  and  N_5 
REMARK    2  A    between atoms: N_5  and  C_6 
REMARK    3  A    between atoms: C_6  and  C_7 
REMARK    4  A    between atoms: C_6  and  C_22 
REMARK       I    between atoms: C_7  and  N_8 
REMARK    5  A    between atoms: N_8  and  C_9 
REMARK    6  A    between atoms: C_11  and  C_12 
ROOT
HETATM    1  C   UNL     1      41.014 -12.384   3.643  1.00  0.00     0.245 C 
HETATM    2  N   UNL     1      41.613 -12.587   2.414  1.00  0.00    -0.325 N 
HETATM    3  O   UNL     1      39.994 -11.718   3.810  1.00  0.00    -0.271 OA
HETATM    4  H   UNL     1      42.476 -13.129   2.423  1.00  0.00     0.169 HD
ENDROOT
BRANCH   1   5
HETATM    5  C   UNL     1      41.637 -13.242   4.796  1.00  0.00     0.180 C 
BRANCH   5   6
HETATM    6  N   UNL     1      42.366 -14.463   4.389  1.00  0.00    -0.343 N 
HETATM    7  C   UNL     1      41.747 -15.684   4.257  1.00  0.00     0.252 C 
HETATM    8  O   UNL     1      40.559 -15.820   3.996  1.00  0.00    -0.268 OA
HETATM    9  H   UNL     1      43.361 -14.486   4.581  1.00  0.00     0.163 HD
BRANCH   7  10
HETATM   10  C   UNL     1      42.617 -16.865   4.424  1.00  0.00     0.037 A 
HETATM   11  C   UNL     1      43.276 -17.446   3.326  1.00  0.00    -0.046 A 
HETATM   12  C   UNL     1      43.129 -16.925   1.924  1.00  0.00     0.049 C 
HETATM   13  C   UNL     1      44.092 -18.563   3.558  1.00  0.00     0.007 A 
HETATM   14  C   UNL     1      44.272 -19.060   4.850  1.00  0.00     0.001 A 
HETATM   15  C   UNL     1      43.636 -18.453   5.932  1.00  0.00     0.001 A 
HETATM   16  C   UNL     1      42.808 -17.352   5.722  1.00  0.00     0.017 A 
ENDBRANCH   7  10
ENDBRANCH   5   6
BRANCH   5  17
HETATM   17  C   UNL     1      42.531 -12.432   5.778  1.00  0.00     0.009 C 
HETATM   18  C   UNL     1      43.468 -13.309   6.615  1.00  0.00     0.012 C 
HETATM   19  C   UNL     1      43.310 -11.307   5.091  1.00  0.00     0.012 C 
ENDBRANCH   5  17
ENDBRANCH   1   5
BRANCH   2  20
HETATM   20  C   UNL     1      41.132 -12.238   1.138  1.00  0.00     0.035 A 
HETATM   21  C   UNL     1      40.403 -13.103   0.316  1.00  0.00     0.042 A 
HETATM   22  C   UNL     1      40.040 -12.730  -0.989  1.00  0.00    -0.021 A 
HETATM   23  C   UNL     1      40.377 -11.446  -1.440  1.00  0.00     0.012 A 
HETATM   24  C   UNL     1      41.090 -10.571  -0.621  1.00  0.00     0.003 A 
HETATM   25  C   UNL     1      41.481 -10.973   0.654  1.00  0.00     0.029 A 
BRANCH  22  26
HETATM   26  C   UNL     1      39.378 -13.667  -1.889  1.00  0.00     0.010 A 
HETATM   27  C   UNL     1      38.843 -13.481  -3.187  1.00  0.00     0.152 A 
HETATM   28  N   UNL     1      38.337 -14.601  -3.711  1.00  0.00    -0.187 NA
HETATM   29  N   UNL     1      38.554 -15.515  -2.754  1.00  0.00    -0.289 N 
HETATM   30  H   UNL     1      38.261 -16.471  -2.927  1.00  0.00     0.188 HD
HETATM   31  C   UNL     1      39.167 -15.009  -1.645  1.00  0.00     0.123 A 
ENDBRANCH  22  26
ENDBRANCH   2  20
TORSDOF 6
ENDMDL
MODEL 7
REMARK VINA RESULT:      -8.7      3.043      9.658
REMARK  6 active torsions:
REMARK  status: ('A' for Active; 'I' for Inactive)
REMARK    1  A    between atoms: C_3  and  C_4 
REMARK       I    between atoms: C_4  and  N_5 
REMARK    2  A    between atoms: N_5  and  C_6 
REMARK    3  A    between atoms: C_6  and  C_7 
REMARK    4  A    between atoms: C_6  and  C_22 
REMARK       I    between atoms: C_7  and  N_8 
REMARK    5  A    between atoms: N_8  and  C_9 
REMARK    6  A    between atoms: C_11  and  C_12 
ROOT
HETATM    1  C   UNL     1      43.213 -11.111   7.382  1.00  0.00     0.245 C 
HETATM    2  N   UNL     1      43.823 -12.351   7.395  1.00  0.00    -0.325 N 
HETATM    3  O   UNL     1      42.249 -10.825   6.674  1.00  0.00    -0.271 OA
HETATM    4  H   UNL     1      44.636 -12.441   8.003  1.00  0.00     0.169 HD
ENDROOT
BRANCH   1   5
HETATM    5  C   UNL     1      43.730 -10.144   8.501  1.00  0.00     0.180 C 
BRANCH   5   6
HETATM    6  N   UNL     1      42.977 -10.144   9.774  1.00  0.00    -0.343 N 
HETATM    7  C   UNL     1      42.169  -9.099  10.154  1.00  0.00     0.252 C 
HETATM    8  O   UNL     1      41.624  -8.338   9.366  1.00  0.00    -0.268 OA
HETATM    9  H   UNL     1      43.347 -10.718  10.523  1.00  0.00     0.163 HD
BRANCH   7  10
HETATM   10  C   UNL     1      41.958  -8.948  11.607  1.00  0.00     0.037 A 
HETATM   11  C   UNL     1      40.800  -9.444  12.233  1.00  0.00    -0.046 A 
HETATM   12  C   UNL     1      39.704 -10.137  11.473  1.00  0.00     0.049 C 
HETATM   13  C   UNL     1      40.668  -9.271  13.618  1.00  0.00     0.007 A 
HETATM   14  C   UNL     1      41.677  -8.654  14.360  1.00  0.00     0.001 A 
HETATM   15  C   UNL     1      42.833  -8.196  13.730  1.00  0.00     0.001 A 
HETATM   16  C   UNL     1      42.978  -8.343  12.351  1.00  0.00     0.017 A 
ENDBRANCH   7  10
ENDBRANCH   5   6
BRANCH   5  17
HETATM   17  C   UNL     1      45.245 -10.295   8.818  1.00  0.00     0.009 C 
HETATM   18  C   UNL     1      46.143  -9.410   7.946  1.00  0.00     0.012 C 
HETATM   19  C   UNL     1      45.570 -10.103  10.302  1.00  0.00     0.012 C 
ENDBRANCH   5  17
ENDBRANCH   1   5
BRANCH   2  20
HETATM   20  C   UNL     1      43.406 -13.538   6.763  1.00  0.00     0.035 A 
HETATM   21  C   UNL     1      43.254 -13.673   5.379  1.00  0.00     0.042 A 
HETATM   22  C   UNL     1      42.736 -14.852   4.818  1.00  0.00    -0.021 A 
HETATM   23  C   UNL     1      42.419 -15.920   5.670  1.00  0.00     0.012 A 
HETATM   24  C   UNL     1      42.583 -15.800   7.050  1.00  0.00     0.003 A 
HETATM   25  C   UNL     1      43.057 -14.607   7.593  1.00  0.00     0.029 A 
BRANCH  22  26
HETATM   26  C   UNL     1      42.470 -14.958   3.388  1.00  0.00     0.010 A 
HETATM   27  C   UNL     1      41.403 -15.574   2.690  1.00  0.00     0.152 A 
HETATM   28  N   UNL     1      41.493 -15.432   1.364  1.00  0.00    -0.187 NA
HETATM   29  N   UNL     1      42.617 -14.716   1.206  1.00  0.00    -0.289 N 
HETATM   30  H   UNL     1      42.898 -14.465   0.264  1.00  0.00     0.188 HD
HETATM   31  C   UNL     1      43.239 -14.412   2.381  1.00  0.00     0.123 A 
ENDBRANCH  22  26
ENDBRANCH   2  20
TORSDOF 6
ENDMDL
MODEL 8
REMARK VINA RESULT:      -8.7      1.481      2.096
REMARK  6 active torsions:
REMARK  status: ('A' for Active; 'I' for Inactive)
REMARK    1  A    between atoms: C_3  and  C_4 
REMARK       I    between atoms: C_4  and  N_5 
REMARK    2  A    between atoms: N_5  and  C_6 
REMARK    3  A    between atoms: C_6  and  C_7 
REMARK    4  A    between atoms: C_6  and  C_22 
REMARK       I    between atoms: C_7  and  N_8 
REMARK    5  A    between atoms: N_8  and  C_9 
REMARK    6  A    between atoms: C_11  and  C_12 
ROOT
HETATM    1  C   UNL     1      43.217 -12.954   6.086  1.00  0.00     0.245 C 
HETATM    2  N   UNL     1      43.873 -11.738   6.103  1.00  0.00    -0.325 N 
HETATM    3  O   UNL     1      43.207 -13.745   7.027  1.00  0.00    -0.271 OA
HETATM    4  H   UNL     1      43.829 -11.196   5.240  1.00  0.00     0.169 HD
ENDROOT
BRANCH   1   5
HETATM    5  C   UNL     1      42.311 -13.163   4.825  1.00  0.00     0.180 C 
BRANCH   5   6
HETATM    6  N   UNL     1      42.507 -14.422   4.073  1.00  0.00    -0.343 N 
HETATM    7  C   UNL     1      42.119 -15.645   4.567  1.00  0.00     0.252 C 
HETATM    8  O   UNL     1      41.212 -15.797   5.374  1.00  0.00    -0.268 OA
HETATM    9  H   UNL     1      43.254 -14.433   3.389  1.00  0.00     0.163 HD
BRANCH   7  10
HETATM   10  C   UNL     1      42.854 -16.811   4.040  1.00  0.00     0.037 A 
HETATM   11  C   UNL     1      43.914 -17.392   4.759  1.00  0.00    -0.046 A 
HETATM   12  C   UNL     1      44.377 -16.864   6.088  1.00  0.00     0.049 C 
HETATM   13  C   UNL     1      44.566 -18.502   4.201  1.00  0.00     0.007 A 
HETATM   14  C   UNL     1      44.147 -19.036   2.980  1.00  0.00     0.001 A 
HETATM   15  C   UNL     1      43.075 -18.467   2.295  1.00  0.00     0.001 A 
HETATM   16  C   UNL     1      42.424 -17.354   2.823  1.00  0.00     0.017 A 
ENDBRANCH   7  10
ENDBRANCH   5   6
BRANCH   5  17
HETATM   17  C   UNL     1      40.790 -12.978   5.099  1.00  0.00     0.009 C 
HETATM   18  C   UNL     1      40.482 -11.855   6.094  1.00  0.00     0.012 C 
HETATM   19  C   UNL     1      39.966 -12.813   3.820  1.00  0.00     0.012 C 
ENDBRANCH   5  17
ENDBRANCH   1   5
BRANCH   2  20
HETATM   20  C   UNL     1      44.500 -11.097   7.188  1.00  0.00     0.035 A 
HETATM   21  C   UNL     1      43.878 -10.857   8.417  1.00  0.00     0.042 A 
HETATM   22  C   UNL     1      44.524 -10.121   9.425  1.00  0.00    -0.021 A 
HETATM   23  C   UNL     1      45.833  -9.673   9.197  1.00  0.00     0.012 A 
HETATM   24  C   UNL     1      46.467  -9.923   7.980  1.00  0.00     0.003 A 
HETATM   25  C   UNL     1      45.796 -10.616   6.975  1.00  0.00     0.029 A 
BRANCH  22  26
HETATM   26  C   UNL     1      43.840  -9.771  10.664  1.00  0.00     0.010 A 
HETATM   27  C   UNL     1      43.338 -10.590  11.706  1.00  0.00     0.152 A 
HETATM   28  N   UNL     1      42.795  -9.890  12.706  1.00  0.00    -0.187 NA
HETATM   29  N   UNL     1      42.953  -8.617  12.315  1.00  0.00    -0.289 N 
HETATM   30  H   UNL     1      42.623  -7.880  12.929  1.00  0.00     0.188 HD
HETATM   31  C   UNL     1      43.566  -8.492  11.103  1.00  0.00     0.123 A 
ENDBRANCH  22  26
ENDBRANCH   2  20
TORSDOF 6
ENDMDL
MODEL 9
REMARK VINA RESULT:      -8.4      2.810      8.482
REMARK  6 active torsions:
REMARK  status: ('A' for Active; 'I' for Inactive)
REMARK    1  A    between atoms: C_3  and  C_4 
REMARK       I    between atoms: C_4  and  N_5 
REMARK    2  A    between atoms: N_5  and  C_6 
REMARK    3  A    between atoms: C_6  and  C_7 
REMARK    4  A    between atoms: C_6  and  C_22 
REMARK       I    between atoms: C_7  and  N_8 
REMARK    5  A    between atoms: N_8  and  C_9 
REMARK    6  A    between atoms: C_11  and  C_12 
ROOT
HETATM    1  C   UNL     1      41.344 -12.701   3.784  1.00  0.00     0.245 C 
HETATM    2  N   UNL     1      42.555 -13.361   3.697  1.00  0.00    -0.325 N 
HETATM    3  O   UNL     1      40.289 -13.132   3.321  1.00  0.00    -0.271 OA
HETATM    4  H   UNL     1      43.358 -12.872   4.092  1.00  0.00     0.169 HD
ENDROOT
BRANCH   1   5
HETATM    5  C   UNL     1      41.383 -11.432   4.703  1.00  0.00     0.180 C 
BRANCH   5   6
HETATM    6  N   UNL     1      42.710 -11.037   5.225  1.00  0.00    -0.343 N 
HETATM    7  C   UNL     1      43.231 -11.557   6.387  1.00  0.00     0.252 C 
HETATM    8  O   UNL     1      42.937 -12.658   6.832  1.00  0.00    -0.268 OA
HETATM    9  H   UNL     1      43.055 -10.125   4.950  1.00  0.00     0.163 HD
BRANCH   7  10
HETATM   10  C   UNL     1      44.219 -10.708   7.081  1.00  0.00     0.037 A 
HETATM   11  C   UNL     1      43.816  -9.609   7.862  1.00  0.00    -0.046 A 
HETATM   12  C   UNL     1      42.374  -9.218   8.027  1.00  0.00     0.049 C 
HETATM   13  C   UNL     1      44.808  -8.849   8.500  1.00  0.00     0.007 A 
HETATM   14  C   UNL     1      46.155  -9.197   8.389  1.00  0.00     0.001 A 
HETATM   15  C   UNL     1      46.535 -10.308   7.636  1.00  0.00     0.001 A 
HETATM   16  C   UNL     1      45.568 -11.068   6.982  1.00  0.00     0.017 A 
ENDBRANCH   7  10
ENDBRANCH   5   6
BRANCH   5  17
HETATM   17  C   UNL     1      40.698 -10.180   4.085  1.00  0.00     0.009 C 
HETATM   18  C   UNL     1      41.073  -9.942   2.618  1.00  0.00     0.012 C 
HETATM   19  C   UNL     1      39.178 -10.178   4.264  1.00  0.00     0.012 C 
ENDBRANCH   5  17
ENDBRANCH   1   5
BRANCH   2  20
HETATM   20  C   UNL     1      42.809 -14.666   3.233  1.00  0.00     0.035 A 
HETATM   21  C   UNL     1      42.950 -15.776   4.071  1.00  0.00     0.042 A 
HETATM   22  C   UNL     1      43.306 -17.034   3.554  1.00  0.00    -0.021 A 
HETATM   23  C   UNL     1      43.466 -17.171   2.168  1.00  0.00     0.012 A 
HETATM   24  C   UNL     1      43.311 -16.071   1.324  1.00  0.00     0.003 A 
HETATM   25  C   UNL     1      43.002 -14.822   1.857  1.00  0.00     0.029 A 
BRANCH  22  26
HETATM   26  C   UNL     1      43.564 -18.169   4.432  1.00  0.00     0.010 A 
HETATM   27  C   UNL     1      44.128 -19.439   4.159  1.00  0.00     0.152 A 
HETATM   28  N   UNL     1      44.232 -20.211   5.245  1.00  0.00    -0.187 NA
HETATM   29  N   UNL     1      43.741 -19.435   6.223  1.00  0.00    -0.289 N 
HETATM   30  H   UNL     1      43.725 -19.805   7.168  1.00  0.00     0.188 HD
HETATM   31  C   UNL     1      43.325 -18.210   5.790  1.00  0.00     0.123 A 
ENDBRANCH  22  26
ENDBRANCH   2  20
TORSDOF 6
ENDMDL
MODEL 10
REMARK VINA RESULT:      -8.4      5.396      8.308
REMARK  6 active torsions:
REMARK  status: ('A' for Active; 'I' for Inactive)
REMARK    1  A    between atoms: C_3  and  C_4 
REMARK       I    between atoms: C_4  and  N_5 
REMARK    2  A    between atoms: N_5  and  C_6 
REMARK    3  A    between atoms: C_6  and  C_7 
REMARK    4  A    between atoms: C_6  and  C_22 
REMARK       I    between atoms: C_7  and  N_8 
REMARK    5  A    between atoms: N_8  and  C_9 
REMARK    6  A    between atoms: C_11  and  C_12 
ROOT
HETATM    1  C   UNL     1      40.945 -14.008   2.016  1.00  0.00     0.245 C 
HETATM    2  N   UNL     1      40.245 -14.535   0.948  1.00  0.00    -0.325 N 
HETATM    3  O   UNL     1      41.686 -13.029   1.940  1.00  0.00    -0.271 OA
HETATM    4  H   UNL     1      39.696 -15.371   1.144  1.00  0.00     0.169 HD
ENDROOT
BRANCH   1   5
HETATM    5  C   UNL     1      40.562 -14.645   3.395  1.00  0.00     0.180 C 
BRANCH   5   6
HETATM    6  N   UNL     1      41.296 -15.871   3.782  1.00  0.00    -0.343 N 
HETATM    7  C   UNL     1      42.635 -16.043   3.521  1.00  0.00     0.252 C 
HETATM    8  O   UNL     1      43.430 -15.120   3.402  1.00  0.00    -0.268 OA
HETATM    9  H   UNL     1      40.748 -16.717   3.884  1.00  0.00     0.163 HD
BRANCH   7  10
HETATM   10  C   UNL     1      43.092 -17.442   3.414  1.00  0.00     0.037 A 
HETATM   11  C   UNL     1      43.748 -18.079   4.483  1.00  0.00    -0.046 A 
HETATM   12  C   UNL     1      44.043 -17.383   5.782  1.00  0.00     0.049 C 
HETATM   13  C   UNL     1      44.150 -19.413   4.316  1.00  0.00     0.007 A 
HETATM   14  C   UNL     1      43.872 -20.099   3.132  1.00  0.00     0.001 A 
HETATM   15  C   UNL     1      43.192 -19.462   2.093  1.00  0.00     0.001 A 
HETATM   16  C   UNL     1      42.799 -18.133   2.232  1.00  0.00     0.017 A 
ENDBRANCH   7  10
ENDBRANCH   5   6
BRANCH   5  17
HETATM   17  C   UNL     1      40.598 -13.647   4.587  1.00  0.00     0.009 C 
HETATM   18  C   UNL     1      39.513 -12.567   4.511  1.00  0.00     0.012 C 
HETATM   19  C   UNL     1      40.580 -14.340   5.952  1.00  0.00     0.012 C 
ENDBRANCH   5  17
ENDBRANCH   1   5
BRANCH   2  20
HETATM   20  C   UNL     1      40.103 -14.008  -0.350  1.00  0.00     0.035 A 
HETATM   21  C   UNL     1      40.537 -12.733  -0.726  1.00  0.00     0.042 A 
HETATM   22  C   UNL     1      40.273 -12.226  -2.010  1.00  0.00    -0.021 A 
HETATM   23  C   UNL     1      39.608 -13.046  -2.933  1.00  0.00     0.012 A 
HETATM   24  C   UNL     1      39.186 -14.325  -2.571  1.00  0.00     0.003 A 
HETATM   25  C   UNL     1      39.417 -14.795  -1.280  1.00  0.00     0.029 A 
BRANCH  22  26
HETATM   26  C   UNL     1      40.624 -10.859  -2.371  1.00  0.00     0.010 A 
HETATM   27  C   UNL     1      41.530  -9.948  -1.773  1.00  0.00     0.152 A 
HETATM   28  N   UNL     1      41.603  -8.781  -2.419  1.00  0.00    -0.187 NA
HETATM   29  N   UNL     1      40.748  -8.940  -3.442  1.00  0.00    -0.289 N 
HETATM   30  H   UNL     1      40.636  -8.174  -4.097  1.00  0.00     0.188 HD
HETATM   31  C   UNL     1      40.136 -10.158  -3.455  1.00  0.00     0.123 A 
ENDBRANCH  22  26
ENDBRANCH   2  20
TORSDOF 6
ENDMDL
