MODEL 1
REMARK VINA RESULT:      -8.3      0.000      0.000
REMARK  6 active torsions:
REMARK  status: ('A' for Active; 'I' for Inactive)
REMARK    1  A    between atoms: C_3  and  C_4 
REMARK    2  A    between atoms: C_14  and  N_15 
REMARK       I    between atoms: N_15  and  C_16 
REMARK    3  A    between atoms: C_16  and  C_17 
REMARK    4  A    between atoms: N_21  and  C_22 
REMARK    5  A    between atoms: C_22  and  C_23 
REMARK    6  A    between atoms: C_26  and  O_27 
ROOT
HETATM    1  C   UNL     1      44.838 -16.061   6.455  1.00  0.00     0.051 C 
HETATM    2  C   UNL     1      43.674 -15.375   5.824  1.00  0.00    -0.022 A 
HETATM    3  C   UNL     1      43.273 -14.019   5.987  1.00  0.00     0.062 A 
HETATM    4  C   UNL     1      42.083 -13.818   5.300  1.00  0.00     0.125 A 
HETATM    5  N   UNL     1      41.783 -14.998   4.644  1.00  0.00    -0.332 N 
HETATM    6  C   UNL     1      42.744 -15.957   4.971  1.00  0.00     0.017 A 
HETATM    7  C   UNL     1      42.672 -17.370   4.480  1.00  0.00     0.069 C 
ENDROOT
BRANCH   3   8
HETATM    8  C   UNL     1      43.955 -12.920   6.746  1.00  0.00     0.143 A 
HETATM    9  N   UNL     1      43.495 -12.446   7.894  1.00  0.00    -0.228 NA
HETATM   10  C   UNL     1      44.305 -11.373   8.195  1.00  0.00     0.086 A 
HETATM   11  C   UNL     1      45.305 -11.224   7.242  1.00  0.00     0.062 A 
HETATM   12  C   UNL     1      44.238 -10.464   9.261  1.00  0.00     0.034 A 
HETATM   13  N   UNL     1      45.073 -12.235   6.348  1.00  0.00    -0.338 N 
HETATM   14  C   UNL     1      46.265 -10.211   7.283  1.00  0.00     0.032 A 
HETATM   15  H   UNL     1      45.598 -12.391   5.502  1.00  0.00     0.167 HD
HETATM   16  C   UNL     1      46.180  -9.310   8.349  1.00  0.00     0.002 A 
HETATM   17  C   UNL     1      45.184  -9.430   9.322  1.00  0.00     0.002 A 
ENDBRANCH   3   8
BRANCH   4  18
HETATM   18  N   UNL     1      41.399 -12.613   5.445  1.00  0.00    -0.312 N 
HETATM   19  C   UNL     1      40.206 -12.349   6.170  1.00  0.00     0.226 C 
HETATM   20  O   UNL     1      39.386 -13.229   6.368  1.00  0.00    -0.273 OA
HETATM   21  H   UNL     1      41.776 -11.862   4.860  1.00  0.00     0.170 HD
BRANCH  19  22
HETATM   22  C   UNL     1      40.028 -10.923   6.654  1.00  0.00     0.070 C 
HETATM   23  C   UNL     1      41.291 -10.132   6.332  1.00  0.00     0.019 C 
HETATM   24  C   UNL     1      38.783 -10.253   6.086  1.00  0.00     0.019 C 
ENDBRANCH  19  22
ENDBRANCH   4  18
BRANCH   5  25
HETATM   25  C   UNL     1      40.631 -15.297   3.795  1.00  0.00     0.169 C 
BRANCH  25  26
HETATM   26  C   UNL     1      40.675 -14.722   2.399  1.00  0.00    -0.040 A 
HETATM   27  C   UNL     1      41.273 -13.501   2.060  1.00  0.00     0.011 A 
HETATM   28  C   UNL     1      41.206 -13.017   0.749  1.00  0.00     0.037 A 
HETATM   29  C   UNL     1      40.543 -13.733  -0.249  1.00  0.00     0.068 A 
HETATM   30  C   UNL     1      39.956 -14.953   0.072  1.00  0.00     0.037 A 
HETATM   31  C   UNL     1      40.025 -15.441   1.381  1.00  0.00     0.011 A 
BRANCH  29  32
HETATM   32  O   UNL     1      40.538 -13.135  -1.478  1.00  0.00    -0.356 OA
HETATM   33  C   UNL     1      40.144 -13.939  -2.585  1.00  0.00     0.210 C 
ENDBRANCH  29  32
ENDBRANCH  25  26
ENDBRANCH   5  25
TORSDOF 6
ENDMDL
MODEL 2
REMARK VINA RESULT:      -8.2      2.448      8.372
REMARK  6 active torsions:
REMARK  status: ('A' for Active; 'I' for Inactive)
REMARK    1  A    between atoms: C_3  and  C_4 
REMARK    2  A    between atoms: C_14  and  N_15 
REMARK       I    between atoms: N_15  and  C_16 
REMARK    3  A    between atoms: C_16  and  C_17 
REMARK    4  A    between atoms: N_21  and  C_22 
REMARK    5  A    between atoms: C_22  and  C_23 
REMARK    6  A    between atoms: C_26  and  O_27 
ROOT
HETATM    1  C   UNL     1      38.254 -10.622   2.734  1.00  0.00     0.051 C 
HETATM    2  C   UNL     1      39.302 -11.479   3.360  1.00  0.00    -0.022 A 
HETATM    3  C   UNL     1      40.103 -12.472   2.728  1.00  0.00     0.062 A 
HETATM    4  C   UNL     1      40.881 -13.100   3.692  1.00  0.00     0.125 A 
HETATM    5  N   UNL     1      40.642 -12.459   4.894  1.00  0.00    -0.332 N 
HETATM    6  C   UNL     1      39.668 -11.477   4.700  1.00  0.00     0.017 A 
HETATM    7  C   UNL     1      39.130 -10.643   5.822  1.00  0.00     0.069 C 
ENDROOT
BRANCH   3   8
HETATM    8  C   UNL     1      40.169 -12.845   1.277  1.00  0.00     0.143 A 
HETATM    9  N   UNL     1      40.884 -12.167   0.392  1.00  0.00    -0.228 NA
HETATM   10  C   UNL     1      40.577 -12.727  -0.829  1.00  0.00     0.086 A 
HETATM   11  C   UNL     1      39.703 -13.796  -0.678  1.00  0.00     0.062 A 
HETATM   12  C   UNL     1      40.995 -12.365  -2.118  1.00  0.00     0.034 A 
HETATM   13  N   UNL     1      39.481 -13.864   0.671  1.00  0.00    -0.338 N 
HETATM   14  C   UNL     1      39.210 -14.547  -1.748  1.00  0.00     0.032 A 
HETATM   15  H   UNL     1      38.855 -14.511   1.123  1.00  0.00     0.167 HD
HETATM   16  C   UNL     1      39.633 -14.168  -3.026  1.00  0.00     0.002 A 
HETATM   17  C   UNL     1      40.509 -13.095  -3.211  1.00  0.00     0.002 A 
ENDBRANCH   3   8
BRANCH   4  18
HETATM   18  N   UNL     1      41.627 -14.225   3.348  1.00  0.00    -0.312 N 
HETATM   19  C   UNL     1      41.275 -15.596   3.464  1.00  0.00     0.226 C 
HETATM   20  O   UNL     1      40.470 -15.967   4.301  1.00  0.00    -0.273 OA
HETATM   21  H   UNL     1      42.588 -14.002   3.073  1.00  0.00     0.170 HD
BRANCH  19  22
HETATM   22  C   UNL     1      41.968 -16.541   2.501  1.00  0.00     0.070 C 
HETATM   23  C   UNL     1      42.646 -15.721   1.408  1.00  0.00     0.019 C 
HETATM   24  C   UNL     1      42.948 -17.480   3.191  1.00  0.00     0.019 C 
ENDBRANCH  19  22
ENDBRANCH   4  18
BRANCH   5  25
HETATM   25  C   UNL     1      41.214 -12.750   6.207  1.00  0.00     0.169 C 
BRANCH  25  26
HETATM   26  C   UNL     1      42.579 -12.162   6.476  1.00  0.00    -0.040 A 
HETATM   27  C   UNL     1      43.787 -12.855   6.324  1.00  0.00     0.011 A 
HETATM   28  C   UNL     1      45.002 -12.247   6.662  1.00  0.00     0.037 A 
HETATM   29  C   UNL     1      45.039 -10.943   7.159  1.00  0.00     0.068 A 
HETATM   30  C   UNL     1      43.847 -10.241   7.303  1.00  0.00     0.037 A 
HETATM   31  C   UNL     1      42.632 -10.844   6.963  1.00  0.00     0.011 A 
BRANCH  29  32
HETATM   32  O   UNL     1      46.289 -10.481   7.466  1.00  0.00    -0.356 OA
HETATM   33  C   UNL     1      46.371  -9.187   8.053  1.00  0.00     0.210 C 
ENDBRANCH  29  32
ENDBRANCH  25  26
ENDBRANCH   5  25
TORSDOF 6
ENDMDL
MODEL 3
REMARK VINA RESULT:      -8.1      2.194      4.403
REMARK  6 active torsions:
REMARK  status: ('A' for Active; 'I' for Inactive)
REMARK    1  A    between atoms: C_3  and  C_4 
REMARK    2  A    between atoms: C_14  and  N_15 
REMARK       I    between atoms: N_15  and  C_16 
REMARK    3  A    between atoms: C_16  and  C_17 
REMARK    4  A    between atoms: N_21  and  C_22 
REMARK    5  A    between atoms: C_22  and  C_23 
REMARK    6  A    between atoms: C_26  and  O_27 
ROOT
HETATM    1  C   UNL     1      41.311  -8.057   4.525  1.00  0.00     0.051 C 
HETATM    2  C   UNL     1      41.056  -9.525   4.583  1.00  0.00    -0.022 A 
HETATM    3  C   UNL     1      41.538 -10.452   5.550  1.00  0.00     0.062 A 
HETATM    4  C   UNL     1      41.146 -11.731   5.178  1.00  0.00     0.125 A 
HETATM    5  N   UNL     1      40.357 -11.608   4.049  1.00  0.00    -0.332 N 
HETATM    6  C   UNL     1      40.309 -10.263   3.673  1.00  0.00     0.017 A 
HETATM    7  C   UNL     1      39.592  -9.795   2.444  1.00  0.00     0.069 C 
ENDROOT
BRANCH   3   8
HETATM    8  C   UNL     1      42.337 -10.188   6.791  1.00  0.00     0.143 A 
HETATM    9  N   UNL     1      43.636 -10.433   6.876  1.00  0.00    -0.228 NA
HETATM   10  C   UNL     1      43.965 -10.196   8.193  1.00  0.00     0.086 A 
HETATM   11  C   UNL     1      42.861  -9.749   8.907  1.00  0.00     0.062 A 
HETATM   12  C   UNL     1      45.189 -10.356   8.860  1.00  0.00     0.034 A 
HETATM   13  N   UNL     1      41.848  -9.729   7.986  1.00  0.00    -0.338 N 
HETATM   14  C   UNL     1      42.895  -9.441  10.269  1.00  0.00     0.032 A 
HETATM   15  H   UNL     1      40.890  -9.490   8.185  1.00  0.00     0.167 HD
HETATM   16  C   UNL     1      44.122  -9.612  10.919  1.00  0.00     0.002 A 
HETATM   17  C   UNL     1      45.251 -10.064  10.229  1.00  0.00     0.002 A 
ENDBRANCH   3   8
BRANCH   4  18
HETATM   18  N   UNL     1      41.640 -12.832   5.874  1.00  0.00    -0.312 N 
HETATM   19  C   UNL     1      40.943 -13.982   6.332  1.00  0.00     0.226 C 
HETATM   20  O   UNL     1      39.750 -13.933   6.579  1.00  0.00    -0.273 OA
HETATM   21  H   UNL     1      42.615 -12.720   6.165  1.00  0.00     0.170 HD
BRANCH  19  22
HETATM   22  C   UNL     1      41.776 -15.239   6.499  1.00  0.00     0.070 C 
HETATM   23  C   UNL     1      40.911 -16.449   6.166  1.00  0.00     0.019 C 
HETATM   24  C   UNL     1      43.056 -15.217   5.675  1.00  0.00     0.019 C 
ENDBRANCH  19  22
ENDBRANCH   4  18
BRANCH   5  25
HETATM   25  C   UNL     1      39.709 -12.664   3.274  1.00  0.00     0.169 C 
BRANCH  25  26
HETATM   26  C   UNL     1      40.612 -13.776   2.794  1.00  0.00    -0.040 A 
HETATM   27  C   UNL     1      40.279 -15.136   2.817  1.00  0.00     0.011 A 
HETATM   28  C   UNL     1      41.208 -16.102   2.412  1.00  0.00     0.037 A 
HETATM   29  C   UNL     1      42.483 -15.736   1.981  1.00  0.00     0.068 A 
HETATM   30  C   UNL     1      42.822 -14.387   1.943  1.00  0.00     0.037 A 
HETATM   31  C   UNL     1      41.895 -13.419   2.343  1.00  0.00     0.011 A 
BRANCH  29  32
HETATM   32  O   UNL     1      43.294 -16.780   1.634  1.00  0.00    -0.356 OA
HETATM   33  C   UNL     1      43.397 -17.853   2.564  1.00  0.00     0.210 C 
ENDBRANCH  29  32
ENDBRANCH  25  26
ENDBRANCH   5  25
TORSDOF 6
ENDMDL
MODEL 4
REMARK VINA RESULT:      -8.1      3.720      7.005
REMARK  6 active torsions:
REMARK  status: ('A' for Active; 'I' for Inactive)
REMARK    1  A    between atoms: C_3  and  C_4 
REMARK    2  A    between atoms: C_14  and  N_15 
REMARK       I    between atoms: N_15  and  C_16 
REMARK    3  A    between atoms: C_16  and  C_17 
REMARK    4  A    between atoms: N_21  and  C_22 
REMARK    5  A    between atoms: C_22  and  C_23 
REMARK    6  A    between atoms: C_26  and  O_27 
ROOT
HETATM    1  C   UNL     1      39.971 -12.445  -2.982  1.00  0.00     0.051 C 
HETATM    2  C   UNL     1      40.097 -12.890  -1.564  1.00  0.00    -0.022 A 
HETATM    3  C   UNL     1      40.629 -12.155  -0.467  1.00  0.00     0.062 A 
HETATM    4  C   UNL     1      40.650 -12.974   0.653  1.00  0.00     0.125 A 
HETATM    5  N   UNL     1      40.062 -14.174   0.296  1.00  0.00    -0.332 N 
HETATM    6  C   UNL     1      39.735 -14.134  -1.061  1.00  0.00     0.017 A 
HETATM    7  C   UNL     1      39.144 -15.306  -1.783  1.00  0.00     0.069 C 
ENDROOT
BRANCH   3   8
HETATM    8  C   UNL     1      41.107 -10.734  -0.430  1.00  0.00     0.143 A 
HETATM    9  N   UNL     1      40.547  -9.807   0.333  1.00  0.00    -0.228 NA
HETATM   10  C   UNL     1      41.166  -8.626  -0.015  1.00  0.00     0.086 A 
HETATM   11  C   UNL     1      42.154  -8.847  -0.966  1.00  0.00     0.062 A 
HETATM   12  C   UNL     1      40.927  -7.317   0.429  1.00  0.00     0.034 A 
HETATM   13  N   UNL     1      42.111 -10.196  -1.192  1.00  0.00    -0.338 N 
HETATM   14  C   UNL     1      42.939  -7.829  -1.514  1.00  0.00     0.032 A 
HETATM   15  H   UNL     1      42.676 -10.689  -1.865  1.00  0.00     0.167 HD
HETATM   16  C   UNL     1      42.682  -6.530  -1.065  1.00  0.00     0.002 A 
HETATM   17  C   UNL     1      41.693  -6.275  -0.111  1.00  0.00     0.002 A 
ENDBRANCH   3   8
BRANCH   4  18
HETATM   18  N   UNL     1      41.284 -12.537   1.814  1.00  0.00    -0.312 N 
HETATM   19  C   UNL     1      40.708 -12.168   3.058  1.00  0.00     0.226 C 
HETATM   20  O   UNL     1      39.565 -11.747   3.118  1.00  0.00    -0.273 OA
HETATM   21  H   UNL     1      42.288 -12.376   1.689  1.00  0.00     0.170 HD
BRANCH  19  22
HETATM   22  C   UNL     1      41.601 -12.321   4.274  1.00  0.00     0.070 C 
HETATM   23  C   UNL     1      40.836 -13.076   5.355  1.00  0.00     0.019 C 
HETATM   24  C   UNL     1      42.931 -12.990   3.954  1.00  0.00     0.019 C 
ENDBRANCH  19  22
ENDBRANCH   4  18
BRANCH   5  25
HETATM   25  C   UNL     1      39.853 -15.363   1.120  1.00  0.00     0.169 C 
BRANCH  25  26
HETATM   26  C   UNL     1      41.021 -15.781   1.982  1.00  0.00    -0.040 A 
HETATM   27  C   UNL     1      42.327 -15.967   1.514  1.00  0.00     0.011 A 
HETATM   28  C   UNL     1      43.333 -16.421   2.375  1.00  0.00     0.037 A 
HETATM   29  C   UNL     1      43.059 -16.701   3.714  1.00  0.00     0.068 A 
HETATM   30  C   UNL     1      41.767 -16.509   4.195  1.00  0.00     0.037 A 
HETATM   31  C   UNL     1      40.762 -16.052   3.337  1.00  0.00     0.011 A 
BRANCH  29  32
HETATM   32  O   UNL     1      44.128 -17.155   4.437  1.00  0.00    -0.356 OA
HETATM   33  C   UNL     1      44.404 -18.550   4.371  1.00  0.00     0.210 C 
ENDBRANCH  29  32
ENDBRANCH  25  26
ENDBRANCH   5  25
TORSDOF 6
ENDMDL
MODEL 5
REMARK VINA RESULT:      -8.0      2.285      7.532
REMARK  6 active torsions:
REMARK  status: ('A' for Active; 'I' for Inactive)
REMARK    1  A    between atoms: C_3  and  C_4 
REMARK    2  A    between atoms: C_14  and  N_15 
REMARK       I    between atoms: N_15  and  C_16 
REMARK    3  A    between atoms: C_16  and  C_17 
REMARK    4  A    between atoms: N_21  and  C_22 
REMARK    5  A    between atoms: C_22  and  C_23 
REMARK    6  A    between atoms: C_26  and  O_27 
ROOT
HETATM    1  C   UNL     1      43.194 -16.500   1.929  1.00  0.00     0.051 C 
HETATM    2  C   UNL     1      42.570 -15.472   2.811  1.00  0.00    -0.022 A 
HETATM    3  C   UNL     1      41.713 -14.402   2.426  1.00  0.00     0.062 A 
HETATM    4  C   UNL     1      41.438 -13.625   3.543  1.00  0.00     0.125 A 
HETATM    5  N   UNL     1      42.035 -14.239   4.629  1.00  0.00    -0.332 N 
HETATM    6  C   UNL     1      42.740 -15.361   4.186  1.00  0.00     0.017 A 
HETATM    7  C   UNL     1      43.561 -16.212   5.105  1.00  0.00     0.069 C 
ENDROOT
BRANCH   3   8
HETATM    8  C   UNL     1      41.148 -14.089   1.073  1.00  0.00     0.143 A 
HETATM    9  N   UNL     1      41.302 -12.913   0.484  1.00  0.00    -0.228 NA
HETATM   10  C   UNL     1      40.532 -12.974  -0.658  1.00  0.00     0.086 A 
HETATM   11  C   UNL     1      39.943 -14.225  -0.791  1.00  0.00     0.062 A 
HETATM   12  C   UNL     1      40.273 -11.992  -1.624  1.00  0.00     0.034 A 
HETATM   13  N   UNL     1      40.371 -14.920   0.308  1.00  0.00    -0.338 N 
HETATM   14  C   UNL     1      39.098 -14.571  -1.848  1.00  0.00     0.032 A 
HETATM   15  H   UNL     1      40.093 -15.859   0.544  1.00  0.00     0.167 HD
HETATM   16  C   UNL     1      38.846 -13.577  -2.799  1.00  0.00     0.002 A 
HETATM   17  C   UNL     1      39.421 -12.308  -2.691  1.00  0.00     0.002 A 
ENDBRANCH   3   8
BRANCH   4  18
HETATM   18  N   UNL     1      40.755 -12.420   3.392  1.00  0.00    -0.312 N 
HETATM   19  C   UNL     1      39.769 -11.844   4.235  1.00  0.00     0.226 C 
HETATM   20  O   UNL     1      39.065 -12.544   4.945  1.00  0.00    -0.273 OA
HETATM   21  H   UNL     1      40.941 -11.962   2.495  1.00  0.00     0.170 HD
BRANCH  19  22
HETATM   22  C   UNL     1      39.649 -10.333   4.179  1.00  0.00     0.070 C 
HETATM   23  C   UNL     1      39.194  -9.825   5.543  1.00  0.00     0.019 C 
HETATM   24  C   UNL     1      40.931  -9.651   3.723  1.00  0.00     0.019 C 
ENDBRANCH  19  22
ENDBRANCH   4  18
BRANCH   5  25
HETATM   25  C   UNL     1      42.042 -13.808   6.026  1.00  0.00     0.169 C 
BRANCH  25  26
HETATM   26  C   UNL     1      43.014 -12.705   6.370  1.00  0.00    -0.040 A 
HETATM   27  C   UNL     1      44.391 -12.886   6.550  1.00  0.00     0.011 A 
HETATM   28  C   UNL     1      45.204 -11.813   6.934  1.00  0.00     0.037 A 
HETATM   29  C   UNL     1      44.666 -10.544   7.148  1.00  0.00     0.068 A 
HETATM   30  C   UNL     1      43.301 -10.348   6.960  1.00  0.00     0.037 A 
HETATM   31  C   UNL     1      42.486 -11.417   6.573  1.00  0.00     0.011 A 
BRANCH  29  32
HETATM   32  O   UNL     1      45.569  -9.594   7.538  1.00  0.00    -0.356 OA
HETATM   33  C   UNL     1      45.319  -8.936   8.774  1.00  0.00     0.210 C 
ENDBRANCH  29  32
ENDBRANCH  25  26
ENDBRANCH   5  25
TORSDOF 6
ENDMDL
MODEL 6
REMARK VINA RESULT:      -7.9      3.076      8.496
REMARK  6 active torsions:
REMARK  status: ('A' for Active; 'I' for Inactive)
REMARK    1  A    between atoms: C_3  and  C_4 
REMARK    2  A    between atoms: C_14  and  N_15 
REMARK       I    between atoms: N_15  and  C_16 
REMARK    3  A    between atoms: C_16  and  C_17 
REMARK    4  A    between atoms: N_21  and  C_22 
REMARK    5  A    between atoms: C_22  and  C_23 
REMARK    6  A    between atoms: C_26  and  O_27 
ROOT
HETATM    1  C   UNL     1      46.152 -11.343   6.496  1.00  0.00     0.051 C 
HETATM    2  C   UNL     1      44.846 -10.831   7.004  1.00  0.00    -0.022 A 
HETATM    3  C   UNL     1      43.548 -11.350   6.738  1.00  0.00     0.062 A 
HETATM    4  C   UNL     1      42.604 -10.519   7.326  1.00  0.00     0.125 A 
HETATM    5  N   UNL     1      43.293  -9.544   8.025  1.00  0.00    -0.332 N 
HETATM    6  C   UNL     1      44.663  -9.721   7.820  1.00  0.00     0.017 A 
HETATM    7  C   UNL     1      45.690  -8.787   8.384  1.00  0.00     0.069 C 
ENDROOT
BRANCH   3   8
HETATM    8  C   UNL     1      43.164 -12.579   5.968  1.00  0.00     0.143 A 
HETATM    9  N   UNL     1      42.744 -13.691   6.552  1.00  0.00    -0.228 NA
HETATM   10  C   UNL     1      42.631 -14.615   5.536  1.00  0.00     0.086 A 
HETATM   11  C   UNL     1      42.937 -14.041   4.309  1.00  0.00     0.062 A 
HETATM   12  C   UNL     1      42.287 -15.974   5.587  1.00  0.00     0.034 A 
HETATM   13  N   UNL     1      43.247 -12.742   4.610  1.00  0.00    -0.338 N 
HETATM   14  C   UNL     1      42.918 -14.745   3.102  1.00  0.00     0.032 A 
HETATM   15  H   UNL     1      43.557 -12.052   3.945  1.00  0.00     0.167 HD
HETATM   16  C   UNL     1      42.579 -16.099   3.173  1.00  0.00     0.002 A 
HETATM   17  C   UNL     1      42.270 -16.707   4.393  1.00  0.00     0.002 A 
ENDBRANCH   3   8
BRANCH   4  18
HETATM   18  N   UNL     1      41.251 -10.721   7.065  1.00  0.00    -0.312 N 
HETATM   19  C   UNL     1      40.438 -10.123   6.066  1.00  0.00     0.226 C 
HETATM   20  O   UNL     1      40.709  -9.023   5.614  1.00  0.00    -0.273 OA
HETATM   21  H   UNL     1      40.788 -11.307   7.766  1.00  0.00     0.170 HD
BRANCH  19  22
HETATM   22  C   UNL     1      39.232 -10.929   5.623  1.00  0.00     0.070 C 
HETATM   23  C   UNL     1      38.761 -10.406   4.270  1.00  0.00     0.019 C 
HETATM   24  C   UNL     1      39.498 -12.428   5.587  1.00  0.00     0.019 C 
ENDBRANCH  19  22
ENDBRANCH   4  18
BRANCH   5  25
HETATM   25  C   UNL     1      42.752  -8.433   8.805  1.00  0.00     0.169 C 
BRANCH  25  26
HETATM   26  C   UNL     1      42.489  -8.721  10.265  1.00  0.00    -0.040 A 
HETATM   27  C   UNL     1      41.390  -9.443  10.747  1.00  0.00     0.011 A 
HETATM   28  C   UNL     1      41.194  -9.602  12.124  1.00  0.00     0.037 A 
HETATM   29  C   UNL     1      42.081  -9.047  13.045  1.00  0.00     0.068 A 
HETATM   30  C   UNL     1      43.184  -8.337  12.579  1.00  0.00     0.037 A 
HETATM   31  C   UNL     1      43.384  -8.179  11.204  1.00  0.00     0.011 A 
BRANCH  29  32
HETATM   32  O   UNL     1      41.759  -9.263  14.356  1.00  0.00    -0.356 OA
HETATM   33  C   UNL     1      41.676  -8.117  15.197  1.00  0.00     0.210 C 
ENDBRANCH  29  32
ENDBRANCH  25  26
ENDBRANCH   5  25
TORSDOF 6
ENDMDL
MODEL 7
REMARK VINA RESULT:      -7.8      2.581      7.715
REMARK  6 active torsions:
REMARK  status: ('A' for Active; 'I' for Inactive)
REMARK    1  A    between atoms: C_3  and  C_4 
REMARK    2  A    between atoms: C_14  and  N_15 
REMARK       I    between atoms: N_15  and  C_16 
REMARK    3  A    between atoms: C_16  and  C_17 
REMARK    4  A    between atoms: N_21  and  C_22 
REMARK    5  A    between atoms: C_22  and  C_23 
REMARK    6  A    between atoms: C_26  and  O_27 
ROOT
HETATM    1  C   UNL     1      41.894 -16.930   2.302  1.00  0.00     0.051 C 
HETATM    2  C   UNL     1      41.481 -15.685   3.012  1.00  0.00    -0.022 A 
HETATM    3  C   UNL     1      40.969 -14.488   2.437  1.00  0.00     0.062 A 
HETATM    4  C   UNL     1      40.804 -13.543   3.442  1.00  0.00     0.125 A 
HETATM    5  N   UNL     1      41.121 -14.158   4.639  1.00  0.00    -0.332 N 
HETATM    6  C   UNL     1      41.549 -15.463   4.382  1.00  0.00     0.017 A 
HETATM    7  C   UNL     1      42.033 -16.380   5.462  1.00  0.00     0.069 C 
ENDROOT
BRANCH   3   8
HETATM    8  C   UNL     1      40.629 -14.201   1.005  1.00  0.00     0.143 A 
HETATM    9  N   UNL     1      41.248 -13.272   0.291  1.00  0.00    -0.228 NA
HETATM   10  C   UNL     1      40.567 -13.220  -0.906  1.00  0.00     0.086 A 
HETATM   11  C   UNL     1      39.552 -14.168  -0.940  1.00  0.00     0.062 A 
HETATM   12  C   UNL     1      40.747 -12.375  -2.010  1.00  0.00     0.034 A 
HETATM   13  N   UNL     1      39.631 -14.793   0.275  1.00  0.00    -0.338 N 
HETATM   14  C   UNL     1      38.689 -14.337  -2.026  1.00  0.00     0.032 A 
HETATM   15  H   UNL     1      39.006 -15.514   0.598  1.00  0.00     0.167 HD
HETATM   16  C   UNL     1      38.880 -13.481  -3.115  1.00  0.00     0.002 A 
HETATM   17  C   UNL     1      39.890 -12.514  -3.110  1.00  0.00     0.002 A 
ENDBRANCH   3   8
BRANCH   4  18
HETATM   18  N   UNL     1      40.475 -12.232   3.107  1.00  0.00    -0.312 N 
HETATM   19  C   UNL     1      41.333 -11.169   2.721  1.00  0.00     0.226 C 
HETATM   20  O   UNL     1      42.498 -11.143   3.081  1.00  0.00    -0.273 OA
HETATM   21  H   UNL     1      39.487 -12.012   3.266  1.00  0.00     0.170 HD
BRANCH  19  22
HETATM   22  C   UNL     1      40.706 -10.090   1.859  1.00  0.00     0.070 C 
HETATM   23  C   UNL     1      40.462  -8.854   2.719  1.00  0.00     0.019 C 
HETATM   24  C   UNL     1      41.531  -9.762   0.622  1.00  0.00     0.019 C 
ENDBRANCH  19  22
ENDBRANCH   4  18
BRANCH   5  25
HETATM   25  C   UNL     1      41.112 -13.585   5.984  1.00  0.00     0.169 C 
BRANCH  25  26
HETATM   26  C   UNL     1      42.277 -12.685   6.324  1.00  0.00    -0.040 A 
HETATM   27  C   UNL     1      42.215 -11.287   6.367  1.00  0.00     0.011 A 
HETATM   28  C   UNL     1      43.365 -10.532   6.626  1.00  0.00     0.037 A 
HETATM   29  C   UNL     1      44.596 -11.151   6.845  1.00  0.00     0.068 A 
HETATM   30  C   UNL     1      44.669 -12.540   6.817  1.00  0.00     0.037 A 
HETATM   31  C   UNL     1      43.521 -13.297   6.561  1.00  0.00     0.011 A 
BRANCH  29  32
HETATM   32  O   UNL     1      45.639 -10.294   7.067  1.00  0.00    -0.356 OA
HETATM   33  C   UNL     1      45.605  -9.537   8.272  1.00  0.00     0.210 C 
ENDBRANCH  29  32
ENDBRANCH  25  26
ENDBRANCH   5  25
TORSDOF 6
ENDMDL
MODEL 8
REMARK VINA RESULT:      -7.7      2.650      7.409
REMARK  6 active torsions:
REMARK  status: ('A' for Active; 'I' for Inactive)
REMARK    1  A    between atoms: C_3  and  C_4 
REMARK    2  A    between atoms: C_14  and  N_15 
REMARK       I    between atoms: N_15  and  C_16 
REMARK    3  A    between atoms: C_16  and  C_17 
REMARK    4  A    between atoms: N_21  and  C_22 
REMARK    5  A    between atoms: C_22  and  C_23 
REMARK    6  A    between atoms: C_26  and  O_27 
ROOT
HETATM    1  C   UNL     1      39.310 -13.625   2.529  1.00  0.00     0.051 C 
HETATM    2  C   UNL     1      40.280 -12.811   3.316  1.00  0.00    -0.022 A 
HETATM    3  C   UNL     1      41.436 -13.270   4.009  1.00  0.00     0.062 A 
HETATM    4  C   UNL     1      42.003 -12.201   4.690  1.00  0.00     0.125 A 
HETATM    5  N   UNL     1      41.273 -11.072   4.365  1.00  0.00    -0.332 N 
HETATM    6  C   UNL     1      40.210 -11.441   3.537  1.00  0.00     0.017 A 
HETATM    7  C   UNL     1      39.183 -10.462   3.058  1.00  0.00     0.069 C 
ENDROOT
BRANCH   3   8
HETATM    8  C   UNL     1      42.023 -14.649   4.052  1.00  0.00     0.143 A 
HETATM    9  N   UNL     1      42.256 -15.297   5.183  1.00  0.00    -0.228 NA
HETATM   10  C   UNL     1      42.916 -16.449   4.814  1.00  0.00     0.086 A 
HETATM   11  C   UNL     1      43.040 -16.527   3.433  1.00  0.00     0.062 A 
HETATM   12  C   UNL     1      43.456 -17.472   5.607  1.00  0.00     0.034 A 
HETATM   13  N   UNL     1      42.443 -15.384   2.974  1.00  0.00    -0.338 N 
HETATM   14  C   UNL     1      43.677 -17.582   2.774  1.00  0.00     0.032 A 
HETATM   15  H   UNL     1      42.394 -15.104   2.007  1.00  0.00     0.167 HD
HETATM   16  C   UNL     1      44.215 -18.589   3.580  1.00  0.00     0.002 A 
HETATM   17  C   UNL     1      44.110 -18.538   4.973  1.00  0.00     0.002 A 
ENDBRANCH   3   8
BRANCH   4  18
HETATM   18  N   UNL     1      43.050 -12.429   5.580  1.00  0.00    -0.312 N 
HETATM   19  C   UNL     1      44.315 -11.787   5.650  1.00  0.00     0.226 C 
HETATM   20  O   UNL     1      44.817 -11.284   4.659  1.00  0.00    -0.273 OA
HETATM   21  H   UNL     1      42.894 -13.240   6.187  1.00  0.00     0.170 HD
BRANCH  19  22
HETATM   22  C   UNL     1      44.983 -11.786   7.012  1.00  0.00     0.070 C 
HETATM   23  C   UNL     1      46.132 -10.783   6.995  1.00  0.00     0.019 C 
HETATM   24  C   UNL     1      44.011 -11.510   8.151  1.00  0.00     0.019 C 
ENDBRANCH  19  22
ENDBRANCH   4  18
BRANCH   5  25
HETATM   25  C   UNL     1      41.467  -9.700   4.830  1.00  0.00     0.169 C 
BRANCH  25  26
HETATM   26  C   UNL     1      41.208  -9.460   6.299  1.00  0.00    -0.040 A 
HETATM   27  C   UNL     1      40.087  -9.929   6.996  1.00  0.00     0.011 A 
HETATM   28  C   UNL     1      39.900  -9.599   8.343  1.00  0.00     0.037 A 
HETATM   29  C   UNL     1      40.818  -8.797   9.021  1.00  0.00     0.068 A 
HETATM   30  C   UNL     1      41.941  -8.334   8.343  1.00  0.00     0.037 A 
HETATM   31  C   UNL     1      42.134  -8.666   6.998  1.00  0.00     0.011 A 
BRANCH  29  32
HETATM   32  O   UNL     1      40.501  -8.538  10.326  1.00  0.00    -0.356 OA
HETATM   33  C   UNL     1      40.319  -9.661  11.181  1.00  0.00     0.210 C 
ENDBRANCH  29  32
ENDBRANCH  25  26
ENDBRANCH   5  25
TORSDOF 6
ENDMDL
MODEL 9
REMARK VINA RESULT:      -7.7      2.910      8.118
REMARK  6 active torsions:
REMARK  status: ('A' for Active; 'I' for Inactive)
REMARK    1  A    between atoms: C_3  and  C_4 
REMARK    2  A    between atoms: C_14  and  N_15 
REMARK       I    between atoms: N_15  and  C_16 
REMARK    3  A    between atoms: C_16  and  C_17 
REMARK    4  A    between atoms: N_21  and  C_22 
REMARK    5  A    between atoms: C_22  and  C_23 
REMARK    6  A    between atoms: C_26  and  O_27 
ROOT
HETATM    1  C   UNL     1      38.760 -11.266   3.020  1.00  0.00     0.051 C 
HETATM    2  C   UNL     1      39.764 -10.865   4.047  1.00  0.00    -0.022 A 
HETATM    3  C   UNL     1      40.904 -11.600   4.481  1.00  0.00     0.062 A 
HETATM    4  C   UNL     1      41.513 -10.908   5.519  1.00  0.00     0.125 A 
HETATM    5  N   UNL     1      40.826  -9.719   5.681  1.00  0.00    -0.332 N 
HETATM    6  C   UNL     1      39.748  -9.693   4.794  1.00  0.00     0.017 A 
HETATM    7  C   UNL     1      38.758  -8.569   4.761  1.00  0.00     0.069 C 
ENDROOT
BRANCH   3   8
HETATM    8  C   UNL     1      41.437 -12.902   3.963  1.00  0.00     0.143 A 
HETATM    9  N   UNL     1      42.445 -12.977   3.106  1.00  0.00    -0.228 NA
HETATM   10  C   UNL     1      42.540 -14.310   2.772  1.00  0.00     0.086 A 
HETATM   11  C   UNL     1      41.611 -15.065   3.477  1.00  0.00     0.062 A 
HETATM   12  C   UNL     1      43.389 -14.953   1.859  1.00  0.00     0.034 A 
HETATM   13  N   UNL     1      40.942 -14.149   4.243  1.00  0.00    -0.338 N 
HETATM   14  C   UNL     1      41.470 -16.447   3.332  1.00  0.00     0.032 A 
HETATM   15  H   UNL     1      40.165 -14.358   4.850  1.00  0.00     0.167 HD
HETATM   16  C   UNL     1      42.320 -17.070   2.412  1.00  0.00     0.002 A 
HETATM   17  C   UNL     1      43.263 -16.338   1.686  1.00  0.00     0.002 A 
ENDBRANCH   3   8
BRANCH   4  18
HETATM   18  N   UNL     1      42.554 -11.506   6.227  1.00  0.00    -0.312 N 
HETATM   19  C   UNL     1      43.954 -11.364   6.041  1.00  0.00     0.226 C 
HETATM   20  O   UNL     1      44.414 -11.066   4.951  1.00  0.00    -0.273 OA
HETATM   21  H   UNL     1      42.232 -12.212   6.896  1.00  0.00     0.170 HD
BRANCH  19  22
HETATM   22  C   UNL     1      44.815 -11.615   7.264  1.00  0.00     0.070 C 
HETATM   23  C   UNL     1      46.158 -10.921   7.072  1.00  0.00     0.019 C 
HETATM   24  C   UNL     1      44.141 -11.191   8.562  1.00  0.00     0.019 C 
ENDBRANCH  19  22
ENDBRANCH   4  18
BRANCH   5  25
HETATM   25  C   UNL     1      41.075  -8.652   6.648  1.00  0.00     0.169 C 
BRANCH  25  26
HETATM   26  C   UNL     1      40.721  -8.967   8.082  1.00  0.00    -0.040 A 
HETATM   27  C   UNL     1      41.597  -8.828   9.166  1.00  0.00     0.011 A 
HETATM   28  C   UNL     1      41.201  -9.209  10.453  1.00  0.00     0.037 A 
HETATM   29  C   UNL     1      39.931  -9.737  10.687  1.00  0.00     0.068 A 
HETATM   30  C   UNL     1      39.047  -9.869   9.621  1.00  0.00     0.037 A 
HETATM   31  C   UNL     1      39.439  -9.485   8.334  1.00  0.00     0.011 A 
BRANCH  29  32
HETATM   32  O   UNL     1      39.683 -10.085  11.986  1.00  0.00    -0.356 OA
HETATM   33  C   UNL     1      40.771  -9.985  12.899  1.00  0.00     0.210 C 
ENDBRANCH  29  32
ENDBRANCH  25  26
ENDBRANCH   5  25
TORSDOF 6
ENDMDL
MODEL 10
REMARK VINA RESULT:      -7.6      1.765      2.291
REMARK  6 active torsions:
REMARK  status: ('A' for Active; 'I' for Inactive)
REMARK    1  A    between atoms: C_3  and  C_4 
REMARK    2  A    between atoms: C_14  and  N_15 
REMARK       I    between atoms: N_15  and  C_16 
REMARK    3  A    between atoms: C_16  and  C_17 
REMARK    4  A    between atoms: N_21  and  C_22 
REMARK    5  A    between atoms: C_22  and  C_23 
REMARK    6  A    between atoms: C_26  and  O_27 
ROOT
HETATM    1  C   UNL     1      43.619 -15.717   5.212  1.00  0.00     0.051 C 
HETATM    2  C   UNL     1      42.578 -14.822   4.629  1.00  0.00    -0.022 A 
HETATM    3  C   UNL     1      42.351 -13.448   4.925  1.00  0.00     0.062 A 
HETATM    4  C   UNL     1      41.224 -13.022   4.235  1.00  0.00     0.125 A 
HETATM    5  N   UNL     1      40.798 -14.078   3.450  1.00  0.00    -0.332 N 
HETATM    6  C   UNL     1      41.614 -15.185   3.697  1.00  0.00     0.017 A 
HETATM    7  C   UNL     1      41.378 -16.518   3.057  1.00  0.00     0.069 C 
ENDROOT
BRANCH   3   8
HETATM    8  C   UNL     1      43.140 -12.532   5.813  1.00  0.00     0.143 A 
HETATM    9  N   UNL     1      44.329 -12.054   5.477  1.00  0.00    -0.228 NA
HETATM   10  C   UNL     1      44.779 -11.383   6.593  1.00  0.00     0.086 A 
HETATM   11  C   UNL     1      43.827 -11.408   7.604  1.00  0.00     0.062 A 
HETATM   12  C   UNL     1      46.002 -10.737   6.825  1.00  0.00     0.034 A 
HETATM   13  N   UNL     1      42.787 -12.123   7.072  1.00  0.00    -0.338 N 
HETATM   14  C   UNL     1      44.014 -10.817   8.856  1.00  0.00     0.032 A 
HETATM   15  H   UNL     1      41.941 -12.366   7.562  1.00  0.00     0.167 HD
HETATM   16  C   UNL     1      45.242 -10.183   9.071  1.00  0.00     0.002 A 
HETATM   17  C   UNL     1      46.222 -10.143   8.075  1.00  0.00     0.002 A 
ENDBRANCH   3   8
BRANCH   4  18
HETATM   18  N   UNL     1      40.696 -11.758   4.491  1.00  0.00    -0.312 N 
HETATM   19  C   UNL     1      40.890 -10.550   3.770  1.00  0.00     0.226 C 
HETATM   20  O   UNL     1      41.902 -10.367   3.115  1.00  0.00    -0.273 OA
HETATM   21  H   UNL     1      40.188 -11.706   5.379  1.00  0.00     0.170 HD
BRANCH  19  22
HETATM   22  C   UNL     1      39.778  -9.525   3.884  1.00  0.00     0.070 C 
HETATM   23  C   UNL     1      39.178  -9.293   2.502  1.00  0.00     0.019 C 
HETATM   24  C   UNL     1      38.714  -9.912   4.902  1.00  0.00     0.019 C 
ENDBRANCH  19  22
ENDBRANCH   4  18
BRANCH   5  25
HETATM   25  C   UNL     1      39.651 -14.133   2.547  1.00  0.00     0.169 C 
BRANCH  25  26
HETATM   26  C   UNL     1      39.916 -13.715   1.120  1.00  0.00    -0.040 A 
HETATM   27  C   UNL     1      40.144 -12.397   0.707  1.00  0.00     0.011 A 
HETATM   28  C   UNL     1      40.315 -12.097  -0.650  1.00  0.00     0.037 A 
HETATM   29  C   UNL     1      40.259 -13.098  -1.620  1.00  0.00     0.068 A 
HETATM   30  C   UNL     1      40.044 -14.414  -1.221  1.00  0.00     0.037 A 
HETATM   31  C   UNL     1      39.878 -14.717   0.134  1.00  0.00     0.011 A 
BRANCH  29  32
HETATM   32  O   UNL     1      40.423 -12.662  -2.905  1.00  0.00    -0.356 OA
HETATM   33  C   UNL     1      41.029 -11.387  -3.082  1.00  0.00     0.210 C 
ENDBRANCH  29  32
ENDBRANCH  25  26
ENDBRANCH   5  25
TORSDOF 6
ENDMDL
