MODEL 1
REMARK VINA RESULT:      -8.3      0.000      0.000
REMARK  7 active torsions:
REMARK  status: ('A' for Active; 'I' for Inactive)
REMARK    1  A    between atoms: C_2  and  N_3 
REMARK       I    between atoms: N_3  and  C_4 
REMARK    2  A    between atoms: C_4  and  C_5 
REMARK    3  A    between atoms: C_9  and  N_10 
REMARK       I    between atoms: N_10  and  C_11 
REMARK    4  A    between atoms: C_11  and  C_12 
REMARK    5  A    between atoms: C_12  and  S_13 
REMARK    6  A    between atoms: S_13  and  C_14 
REMARK    7  A    between atoms: C_14  and  C_15 
ROOT
HETATM    1  N   UNL     1      41.120 -14.566   4.529  1.00  0.00    -0.326 N 
HETATM    2  C   UNL     1      40.767 -15.580   5.408  1.00  0.00     0.231 C 
HETATM    3  O   UNL     1      39.989 -16.504   5.191  1.00  0.00    -0.272 OA
HETATM    4  H   UNL     1      41.795 -13.901   4.884  1.00  0.00     0.169 HD
ENDROOT
BRANCH   2   5
HETATM    5  C   UNL     1      41.472 -15.458   6.757  1.00  0.00     0.177 C 
BRANCH   5   6
HETATM    6  S   UNL     1      43.098 -14.664   6.493  1.00  0.00    -0.147 SA
BRANCH   6   7
HETATM    7  C   UNL     1      44.222 -16.107   6.640  1.00  0.00     0.113 C 
HETATM    8  C   UNL     1      44.082 -16.772   8.008  1.00  0.00     0.029 C 
BRANCH   7   9
HETATM    9  C   UNL     1      44.074 -17.084   5.511  1.00  0.00     0.118 A 
HETATM   10  N   UNL     1      43.685 -16.815   4.280  1.00  0.00    -0.232 NA
HETATM   11  C   UNL     1      43.610 -18.025   3.635  1.00  0.00     0.085 A 
HETATM   12  C   UNL     1      43.982 -19.061   4.481  1.00  0.00     0.062 A 
HETATM   13  C   UNL     1      43.223 -18.318   2.319  1.00  0.00     0.034 A 
HETATM   14  N   UNL     1      44.272 -18.439   5.667  1.00  0.00    -0.342 N 
HETATM   15  C   UNL     1      44.006 -20.401   4.088  1.00  0.00     0.032 A 
HETATM   16  H   UNL     1      44.585 -18.889   6.517  1.00  0.00     0.167 HD
HETATM   17  C   UNL     1      43.618 -20.675   2.772  1.00  0.00     0.002 A 
HETATM   18  C   UNL     1      43.228 -19.654   1.900  1.00  0.00     0.002 A 
ENDBRANCH   7   9
ENDBRANCH   6   7
ENDBRANCH   5   6
ENDBRANCH   2   5
BRANCH   1  19
HETATM   19  C   UNL     1      40.738 -14.407   3.176  1.00  0.00     0.040 A 
HETATM   20  C   UNL     1      39.987 -13.266   2.811  1.00  0.00    -0.034 A 
HETATM   21  C   UNL     1      39.644 -13.061   1.458  1.00  0.00     0.026 A 
HETATM   22  C   UNL     1      39.530 -12.246   3.820  1.00  0.00     0.050 C 
HETATM   23  C   UNL     1      40.041 -13.969   0.472  1.00  0.00     0.032 A 
HETATM   24  C   UNL     1      40.747 -15.113   0.844  1.00  0.00     0.019 A 
HETATM   25  C   UNL     1      41.094 -15.326   2.183  1.00  0.00     0.031 A 
BRANCH  23  26
HETATM   26  C   UNL     1      39.725 -13.766  -0.972  1.00  0.00     0.251 C 
HETATM   27  N   UNL     1      38.730 -14.567  -1.498  1.00  0.00    -0.357 N 
HETATM   28  H   UNL     1      38.155 -15.114  -0.873  1.00  0.00     0.162 HD
HETATM   29  O   UNL     1      40.307 -12.901  -1.614  1.00  0.00    -0.268 OA
BRANCH  27  30
HETATM   30  C   UNL     1      38.252 -14.386  -2.854  1.00  0.00     0.118 C 
HETATM   31  C   UNL     1      37.131 -13.364  -2.915  1.00  0.00     0.026 C 
ENDBRANCH  27  30
ENDBRANCH  23  26
ENDBRANCH   1  19
TORSDOF 7
ENDMDL
MODEL 2
REMARK VINA RESULT:      -8.1      4.145      7.476
REMARK  7 active torsions:
REMARK  status: ('A' for Active; 'I' for Inactive)
REMARK    1  A    between atoms: C_2  and  N_3 
REMARK       I    between atoms: N_3  and  C_4 
REMARK    2  A    between atoms: C_4  and  C_5 
REMARK    3  A    between atoms: C_9  and  N_10 
REMARK       I    between atoms: N_10  and  C_11 
REMARK    4  A    between atoms: C_11  and  C_12 
REMARK    5  A    between atoms: C_12  and  S_13 
REMARK    6  A    between atoms: S_13  and  C_14 
REMARK    7  A    between atoms: C_14  and  C_15 
ROOT
HETATM    1  N   UNL     1      41.757 -12.326   3.955  1.00  0.00    -0.326 N 
HETATM    2  C   UNL     1      41.965 -11.870   2.659  1.00  0.00     0.231 C 
HETATM    3  O   UNL     1      42.732 -10.980   2.308  1.00  0.00    -0.272 OA
HETATM    4  H   UNL     1      41.095 -13.085   4.044  1.00  0.00     0.169 HD
ENDROOT
BRANCH   2   5
HETATM    5  C   UNL     1      41.115 -12.614   1.633  1.00  0.00     0.177 C 
BRANCH   5   6
HETATM    6  S   UNL     1      39.661 -13.323   2.487  1.00  0.00    -0.147 SA
BRANCH   6   7
HETATM    7  C   UNL     1      39.847 -15.102   2.079  1.00  0.00     0.113 C 
HETATM    8  C   UNL     1      40.014 -15.304   0.574  1.00  0.00     0.029 C 
BRANCH   7   9
HETATM    9  C   UNL     1      40.928 -15.776   2.870  1.00  0.00     0.118 A 
HETATM   10  N   UNL     1      41.369 -15.426   4.063  1.00  0.00    -0.232 NA
HETATM   11  C   UNL     1      42.417 -16.268   4.341  1.00  0.00     0.085 A 
HETATM   12  C   UNL     1      42.613 -17.172   3.305  1.00  0.00     0.062 A 
HETATM   13  C   UNL     1      43.258 -16.316   5.462  1.00  0.00     0.034 A 
HETATM   14  N   UNL     1      41.656 -16.840   2.383  1.00  0.00    -0.342 N 
HETATM   15  C   UNL     1      43.608 -18.152   3.321  1.00  0.00     0.032 A 
HETATM   16  H   UNL     1      41.499 -17.296   1.494  1.00  0.00     0.167 HD
HETATM   17  C   UNL     1      44.437 -18.186   4.448  1.00  0.00     0.002 A 
HETATM   18  C   UNL     1      44.271 -17.282   5.501  1.00  0.00     0.002 A 
ENDBRANCH   7   9
ENDBRANCH   6   7
ENDBRANCH   5   6
ENDBRANCH   2   5
BRANCH   1  19
HETATM   19  C   UNL     1      42.427 -11.936   5.138  1.00  0.00     0.040 A 
HETATM   20  C   UNL     1      41.951 -10.812   5.850  1.00  0.00    -0.034 A 
HETATM   21  C   UNL     1      42.570 -10.441   7.062  1.00  0.00     0.026 A 
HETATM   22  C   UNL     1      40.793  -9.981   5.363  1.00  0.00     0.050 C 
HETATM   23  C   UNL     1      43.647 -11.173   7.571  1.00  0.00     0.032 A 
HETATM   24  C   UNL     1      44.138 -12.257   6.843  1.00  0.00     0.019 A 
HETATM   25  C   UNL     1      43.530 -12.635   5.640  1.00  0.00     0.031 A 
BRANCH  23  26
HETATM   26  C   UNL     1      44.304 -10.829   8.865  1.00  0.00     0.251 C 
HETATM   27  N   UNL     1      43.461 -10.528   9.917  1.00  0.00    -0.357 N 
HETATM   28  H   UNL     1      42.472 -10.715   9.826  1.00  0.00     0.162 HD
HETATM   29  O   UNL     1      45.524 -10.859   8.964  1.00  0.00    -0.268 OA
BRANCH  27  30
HETATM   30  C   UNL     1      43.973 -10.291  11.252  1.00  0.00     0.118 C 
HETATM   31  C   UNL     1      43.661  -8.883  11.724  1.00  0.00     0.026 C 
ENDBRANCH  27  30
ENDBRANCH  23  26
ENDBRANCH   1  19
TORSDOF 7
ENDMDL
MODEL 3
REMARK VINA RESULT:      -8.0      5.919      9.298
REMARK  7 active torsions:
REMARK  status: ('A' for Active; 'I' for Inactive)
REMARK    1  A    between atoms: C_2  and  N_3 
REMARK       I    between atoms: N_3  and  C_4 
REMARK    2  A    between atoms: C_4  and  C_5 
REMARK    3  A    between atoms: C_9  and  N_10 
REMARK       I    between atoms: N_10  and  C_11 
REMARK    4  A    between atoms: C_11  and  C_12 
REMARK    5  A    between atoms: C_12  and  S_13 
REMARK    6  A    between atoms: S_13  and  C_14 
REMARK    7  A    between atoms: C_14  and  C_15 
ROOT
HETATM    1  N   UNL     1      42.209 -12.801   6.675  1.00  0.00    -0.326 N 
HETATM    2  C   UNL     1      42.773 -11.584   6.316  1.00  0.00     0.231 C 
HETATM    3  O   UNL     1      43.741 -11.411   5.584  1.00  0.00    -0.272 OA
HETATM    4  H   UNL     1      41.398 -12.741   7.277  1.00  0.00     0.169 HD
ENDROOT
BRANCH   2   5
HETATM    5  C   UNL     1      42.045 -10.395   6.938  1.00  0.00     0.177 C 
BRANCH   5   6
HETATM    6  S   UNL     1      43.288  -9.274   7.674  1.00  0.00    -0.147 SA
BRANCH   6   7
HETATM    7  C   UNL     1      43.825 -10.254   9.130  1.00  0.00     0.113 C 
HETATM    8  C   UNL     1      45.340 -10.447   9.132  1.00  0.00     0.029 C 
BRANCH   7   9
HETATM    9  C   UNL     1      43.318  -9.701  10.430  1.00  0.00     0.118 A 
HETATM   10  N   UNL     1      43.848  -8.717  11.130  1.00  0.00    -0.232 NA
HETATM   11  C   UNL     1      43.103  -8.627  12.280  1.00  0.00     0.085 A 
HETATM   12  C   UNL     1      42.077  -9.563  12.279  1.00  0.00     0.062 A 
HETATM   13  C   UNL     1      43.249  -7.770  13.380  1.00  0.00     0.034 A 
HETATM   14  N   UNL     1      42.234 -10.233  11.094  1.00  0.00    -0.342 N 
HETATM   15  C   UNL     1      41.158  -9.694  13.322  1.00  0.00     0.032 A 
HETATM   16  H   UNL     1      41.654 -10.988  10.753  1.00  0.00     0.167 HD
HETATM   17  C   UNL     1      41.318  -8.830  14.411  1.00  0.00     0.002 A 
HETATM   18  C   UNL     1      42.347  -7.885  14.445  1.00  0.00     0.002 A 
ENDBRANCH   7   9
ENDBRANCH   6   7
ENDBRANCH   5   6
ENDBRANCH   2   5
BRANCH   1  19
HETATM   19  C   UNL     1      42.559 -14.095   6.225  1.00  0.00     0.040 A 
HETATM   20  C   UNL     1      41.790 -14.688   5.197  1.00  0.00    -0.034 A 
HETATM   21  C   UNL     1      42.157 -15.955   4.695  1.00  0.00     0.026 A 
HETATM   22  C   UNL     1      40.579 -14.016   4.606  1.00  0.00     0.050 C 
HETATM   23  C   UNL     1      43.273 -16.631   5.198  1.00  0.00     0.032 A 
HETATM   24  C   UNL     1      44.003 -16.059   6.240  1.00  0.00     0.019 A 
HETATM   25  C   UNL     1      43.649 -14.802   6.744  1.00  0.00     0.031 A 
BRANCH  23  26
HETATM   26  C   UNL     1      43.708 -17.955   4.667  1.00  0.00     0.251 C 
HETATM   27  N   UNL     1      43.673 -18.105   3.295  1.00  0.00    -0.357 N 
HETATM   28  H   UNL     1      43.531 -17.291   2.713  1.00  0.00     0.162 HD
HETATM   29  O   UNL     1      44.104 -18.825   5.433  1.00  0.00    -0.268 OA
BRANCH  27  30
HETATM   30  C   UNL     1      44.180 -19.301   2.653  1.00  0.00     0.118 C 
HETATM   31  C   UNL     1      43.061 -20.104   2.014  1.00  0.00     0.026 C 
ENDBRANCH  27  30
ENDBRANCH  23  26
ENDBRANCH   1  19
TORSDOF 7
ENDMDL
MODEL 4
REMARK VINA RESULT:      -7.9      2.712      7.830
REMARK  7 active torsions:
REMARK  status: ('A' for Active; 'I' for Inactive)
REMARK    1  A    between atoms: C_2  and  N_3 
REMARK       I    between atoms: N_3  and  C_4 
REMARK    2  A    between atoms: C_4  and  C_5 
REMARK    3  A    between atoms: C_9  and  N_10 
REMARK       I    between atoms: N_10  and  C_11 
REMARK    4  A    between atoms: C_11  and  C_12 
REMARK    5  A    between atoms: C_12  and  S_13 
REMARK    6  A    between atoms: S_13  and  C_14 
REMARK    7  A    between atoms: C_14  and  C_15 
ROOT
HETATM    1  N   UNL     1      41.692 -12.834   2.681  1.00  0.00    -0.326 N 
HETATM    2  C   UNL     1      42.422 -11.655   2.748  1.00  0.00     0.231 C 
HETATM    3  O   UNL     1      43.627 -11.548   2.954  1.00  0.00    -0.272 OA
HETATM    4  H   UNL     1      40.707 -12.721   2.483  1.00  0.00     0.169 HD
ENDROOT
BRANCH   2   5
HETATM    5  C   UNL     1      41.558 -10.417   2.525  1.00  0.00     0.177 C 
BRANCH   5   6
HETATM    6  S   UNL     1      39.823 -10.842   2.915  1.00  0.00    -0.147 SA
BRANCH   6   7
HETATM    7  C   UNL     1      38.982 -10.341   1.362  1.00  0.00     0.113 C 
HETATM    8  C   UNL     1      39.637  -9.099   0.761  1.00  0.00     0.029 C 
BRANCH   7   9
HETATM    9  C   UNL     1      38.863 -11.461   0.371  1.00  0.00     0.118 A 
HETATM   10  N   UNL     1      39.608 -12.548   0.315  1.00  0.00    -0.232 NA
HETATM   11  C   UNL     1      39.197 -13.230  -0.804  1.00  0.00     0.085 A 
HETATM   12  C   UNL     1      38.159 -12.560  -1.439  1.00  0.00     0.062 A 
HETATM   13  C   UNL     1      39.670 -14.434  -1.346  1.00  0.00     0.034 A 
HETATM   14  N   UNL     1      37.965 -11.439  -0.675  1.00  0.00    -0.342 N 
HETATM   15  C   UNL     1      37.541 -13.029  -2.600  1.00  0.00     0.032 A 
HETATM   16  H   UNL     1      37.279 -10.716  -0.839  1.00  0.00     0.167 HD
HETATM   17  C   UNL     1      38.025 -14.231  -3.127  1.00  0.00     0.002 A 
HETATM   18  C   UNL     1      39.075 -14.923  -2.516  1.00  0.00     0.002 A 
ENDBRANCH   7   9
ENDBRANCH   6   7
ENDBRANCH   5   6
ENDBRANCH   2   5
BRANCH   1  19
HETATM   19  C   UNL     1      42.168 -14.164   2.750  1.00  0.00     0.040 A 
HETATM   20  C   UNL     1      41.913 -14.918   3.919  1.00  0.00    -0.034 A 
HETATM   21  C   UNL     1      42.330 -16.264   3.985  1.00  0.00     0.026 A 
HETATM   22  C   UNL     1      41.205 -14.336   5.114  1.00  0.00     0.050 C 
HETATM   23  C   UNL     1      42.989 -16.865   2.907  1.00  0.00     0.032 A 
HETATM   24  C   UNL     1      43.273 -16.104   1.773  1.00  0.00     0.019 A 
HETATM   25  C   UNL     1      42.863 -14.768   1.696  1.00  0.00     0.031 A 
BRANCH  23  26
HETATM   26  C   UNL     1      43.414 -18.295   2.931  1.00  0.00     0.251 C 
HETATM   27  N   UNL     1      43.943 -18.755   4.121  1.00  0.00    -0.357 N 
HETATM   28  H   UNL     1      43.863 -18.184   4.950  1.00  0.00     0.162 HD
HETATM   29  O   UNL     1      43.253 -19.001   1.944  1.00  0.00    -0.268 OA
BRANCH  27  30
HETATM   30  C   UNL     1      44.284 -20.151   4.305  1.00  0.00     0.118 C 
HETATM   31  C   UNL     1      43.797 -20.668   5.647  1.00  0.00     0.026 C 
ENDBRANCH  27  30
ENDBRANCH  23  26
ENDBRANCH   1  19
TORSDOF 7
ENDMDL
MODEL 5
REMARK VINA RESULT:      -7.9      2.724      6.818
REMARK  7 active torsions:
REMARK  status: ('A' for Active; 'I' for Inactive)
REMARK    1  A    between atoms: C_2  and  N_3 
REMARK       I    between atoms: N_3  and  C_4 
REMARK    2  A    between atoms: C_4  and  C_5 
REMARK    3  A    between atoms: C_9  and  N_10 
REMARK       I    between atoms: N_10  and  C_11 
REMARK    4  A    between atoms: C_11  and  C_12 
REMARK    5  A    between atoms: C_12  and  S_13 
REMARK    6  A    between atoms: S_13  and  C_14 
REMARK    7  A    between atoms: C_14  and  C_15 
ROOT
HETATM    1  N   UNL     1      42.535 -12.453   4.745  1.00  0.00    -0.326 N 
HETATM    2  C   UNL     1      43.222 -11.319   4.333  1.00  0.00     0.231 C 
HETATM    3  O   UNL     1      44.331 -11.281   3.809  1.00  0.00    -0.272 OA
HETATM    4  H   UNL     1      41.620 -12.284   5.140  1.00  0.00     0.169 HD
ENDROOT
BRANCH   2   5
HETATM    5  C   UNL     1      42.440 -10.034   4.592  1.00  0.00     0.177 C 
BRANCH   5   6
HETATM    6  S   UNL     1      40.891 -10.462   5.465  1.00  0.00    -0.147 SA
BRANCH   6   7
HETATM    7  C   UNL     1      39.687 -10.424   4.081  1.00  0.00     0.113 C 
HETATM    8  C   UNL     1      39.869  -9.169   3.231  1.00  0.00     0.029 C 
BRANCH   7   9
HETATM    9  C   UNL     1      39.698 -11.679   3.258  1.00  0.00     0.118 A 
HETATM   10  N   UNL     1      39.500 -12.909   3.692  1.00  0.00    -0.232 NA
HETATM   11  C   UNL     1      39.699 -13.728   2.607  1.00  0.00     0.085 A 
HETATM   12  C   UNL     1      40.004 -12.984   1.475  1.00  0.00     0.062 A 
HETATM   13  C   UNL     1      39.640 -15.126   2.515  1.00  0.00     0.034 A 
HETATM   14  N   UNL     1      39.998 -11.686   1.913  1.00  0.00    -0.342 N 
HETATM   15  C   UNL     1      40.248 -13.557   0.225  1.00  0.00     0.032 A 
HETATM   16  H   UNL     1      40.177 -10.865   1.351  1.00  0.00     0.167 HD
HETATM   17  C   UNL     1      40.185 -14.953   0.151  1.00  0.00     0.002 A 
HETATM   18  C   UNL     1      39.891 -15.728   1.276  1.00  0.00     0.002 A 
ENDBRANCH   7   9
ENDBRANCH   6   7
ENDBRANCH   5   6
ENDBRANCH   2   5
BRANCH   1  19
HETATM   19  C   UNL     1      42.907 -13.808   4.586  1.00  0.00     0.040 A 
HETATM   20  C   UNL     1      43.225 -14.565   5.737  1.00  0.00    -0.034 A 
HETATM   21  C   UNL     1      43.544 -15.933   5.604  1.00  0.00     0.026 A 
HETATM   22  C   UNL     1      43.238 -13.966   7.118  1.00  0.00     0.050 C 
HETATM   23  C   UNL     1      43.546 -16.552   4.350  1.00  0.00     0.032 A 
HETATM   24  C   UNL     1      43.271 -15.790   3.215  1.00  0.00     0.019 A 
HETATM   25  C   UNL     1      42.952 -14.432   3.334  1.00  0.00     0.031 A 
BRANCH  23  26
HETATM   26  C   UNL     1      43.846 -18.003   4.178  1.00  0.00     0.251 C 
HETATM   27  N   UNL     1      43.813 -18.485   2.884  1.00  0.00    -0.357 N 
HETATM   28  H   UNL     1      43.764 -17.830   2.115  1.00  0.00     0.162 HD
HETATM   29  O   UNL     1      44.139 -18.691   5.148  1.00  0.00    -0.268 OA
BRANCH  27  30
HETATM   30  C   UNL     1      44.199 -19.846   2.574  1.00  0.00     0.118 C 
HETATM   31  C   UNL     1      43.231 -20.489   1.597  1.00  0.00     0.026 C 
ENDBRANCH  27  30
ENDBRANCH  23  26
ENDBRANCH   1  19
TORSDOF 7
ENDMDL
MODEL 6
REMARK VINA RESULT:      -7.7      4.020      7.651
REMARK  7 active torsions:
REMARK  status: ('A' for Active; 'I' for Inactive)
REMARK    1  A    between atoms: C_2  and  N_3 
REMARK       I    between atoms: N_3  and  C_4 
REMARK    2  A    between atoms: C_4  and  C_5 
REMARK    3  A    between atoms: C_9  and  N_10 
REMARK       I    between atoms: N_10  and  C_11 
REMARK    4  A    between atoms: C_11  and  C_12 
REMARK    5  A    between atoms: C_12  and  S_13 
REMARK    6  A    between atoms: S_13  and  C_14 
REMARK    7  A    between atoms: C_14  and  C_15 
ROOT
HETATM    1  N   UNL     1      40.937 -11.039   1.836  1.00  0.00    -0.326 N 
HETATM    2  C   UNL     1      41.131 -10.457   0.590  1.00  0.00     0.231 C 
HETATM    3  O   UNL     1      42.087  -9.773   0.239  1.00  0.00    -0.272 OA
HETATM    4  H   UNL     1      40.091 -11.586   1.931  1.00  0.00     0.169 HD
ENDROOT
BRANCH   2   5
HETATM    5  C   UNL     1      39.990 -10.755  -0.380  1.00  0.00     0.177 C 
BRANCH   5   6
HETATM    6  S   UNL     1      40.488 -12.151  -1.451  1.00  0.00    -0.147 SA
BRANCH   6   7
HETATM    7  C   UNL     1      39.582 -13.539  -0.662  1.00  0.00     0.113 C 
HETATM    8  C   UNL     1      39.178 -14.587  -1.697  1.00  0.00     0.029 C 
BRANCH   7   9
HETATM    9  C   UNL     1      40.318 -14.136   0.500  1.00  0.00     0.118 A 
HETATM   10  N   UNL     1      39.940 -14.125   1.764  1.00  0.00    -0.232 NA
HETATM   11  C   UNL     1      40.967 -14.702   2.470  1.00  0.00     0.085 A 
HETATM   12  C   UNL     1      41.992 -15.096   1.620  1.00  0.00     0.062 A 
HETATM   13  C   UNL     1      41.099 -14.917   3.850  1.00  0.00     0.034 A 
HETATM   14  N   UNL     1      41.557 -14.727   0.374  1.00  0.00    -0.342 N 
HETATM   15  C   UNL     1      43.161 -15.718   2.065  1.00  0.00     0.032 A 
HETATM   16  H   UNL     1      42.052 -14.864  -0.496  1.00  0.00     0.167 HD
HETATM   17  C   UNL     1      43.274 -15.926   3.445  1.00  0.00     0.002 A 
HETATM   18  C   UNL     1      42.264 -15.530   4.326  1.00  0.00     0.002 A 
ENDBRANCH   7   9
ENDBRANCH   6   7
ENDBRANCH   5   6
ENDBRANCH   2   5
BRANCH   1  19
HETATM   19  C   UNL     1      41.817 -11.051   2.943  1.00  0.00     0.040 A 
HETATM   20  C   UNL     1      41.467 -10.314   4.097  1.00  0.00    -0.034 A 
HETATM   21  C   UNL     1      42.304 -10.358   5.232  1.00  0.00     0.026 A 
HETATM   22  C   UNL     1      40.222  -9.471   4.168  1.00  0.00     0.050 C 
HETATM   23  C   UNL     1      43.473 -11.125   5.233  1.00  0.00     0.032 A 
HETATM   24  C   UNL     1      43.833 -11.818   4.077  1.00  0.00     0.019 A 
HETATM   25  C   UNL     1      43.010 -11.782   2.946  1.00  0.00     0.031 A 
BRANCH  23  26
HETATM   26  C   UNL     1      44.363 -11.221   6.427  1.00  0.00     0.251 C 
HETATM   27  N   UNL     1      44.103 -10.335   7.455  1.00  0.00    -0.357 N 
HETATM   28  H   UNL     1      43.247  -9.798   7.438  1.00  0.00     0.162 HD
HETATM   29  O   UNL     1      45.240 -12.074   6.475  1.00  0.00    -0.268 OA
BRANCH  27  30
HETATM   30  C   UNL     1      44.820 -10.406   8.711  1.00  0.00     0.118 C 
HETATM   31  C   UNL     1      45.729  -9.205   8.899  1.00  0.00     0.026 C 
ENDBRANCH  27  30
ENDBRANCH  23  26
ENDBRANCH   1  19
TORSDOF 7
ENDMDL
MODEL 7
REMARK VINA RESULT:      -7.5      6.959      9.798
REMARK  7 active torsions:
REMARK  status: ('A' for Active; 'I' for Inactive)
REMARK    1  A    between atoms: C_2  and  N_3 
REMARK       I    between atoms: N_3  and  C_4 
REMARK    2  A    between atoms: C_4  and  C_5 
REMARK    3  A    between atoms: C_9  and  N_10 
REMARK       I    between atoms: N_10  and  C_11 
REMARK    4  A    between atoms: C_11  and  C_12 
REMARK    5  A    between atoms: C_12  and  S_13 
REMARK    6  A    between atoms: S_13  and  C_14 
REMARK    7  A    between atoms: C_14  and  C_15 
ROOT
HETATM    1  N   UNL     1      43.325 -10.308   8.488  1.00  0.00    -0.326 N 
HETATM    2  C   UNL     1      44.413 -11.001   7.973  1.00  0.00     0.231 C 
HETATM    3  O   UNL     1      45.528 -11.097   8.475  1.00  0.00    -0.272 OA
HETATM    4  H   UNL     1      42.479 -10.360   7.936  1.00  0.00     0.169 HD
ENDROOT
BRANCH   2   5
HETATM    5  C   UNL     1      44.095 -11.688   6.647  1.00  0.00     0.177 C 
BRANCH   5   6
HETATM    6  S   UNL     1      43.660 -13.432   6.985  1.00  0.00    -0.147 SA
BRANCH   6   7
HETATM    7  C   UNL     1      42.468 -13.765   5.631  1.00  0.00     0.113 C 
HETATM    8  C   UNL     1      42.323 -12.549   4.718  1.00  0.00     0.029 C 
BRANCH   7   9
HETATM    9  C   UNL     1      42.779 -15.019   4.868  1.00  0.00     0.118 A 
HETATM   10  N   UNL     1      42.272 -15.382   3.706  1.00  0.00    -0.232 NA
HETATM   11  C   UNL     1      42.774 -16.635   3.451  1.00  0.00     0.085 A 
HETATM   12  C   UNL     1      43.626 -17.043   4.468  1.00  0.00     0.062 A 
HETATM   13  C   UNL     1      42.540 -17.492   2.366  1.00  0.00     0.034 A 
HETATM   14  N   UNL     1      43.613 -16.001   5.357  1.00  0.00    -0.342 N 
HETATM   15  C   UNL     1      44.285 -18.275   4.468  1.00  0.00     0.032 A 
HETATM   16  H   UNL     1      44.129 -15.949   6.225  1.00  0.00     0.167 HD
HETATM   17  C   UNL     1      44.040 -19.117   3.378  1.00  0.00     0.002 A 
HETATM   18  C   UNL     1      43.179 -18.738   2.344  1.00  0.00     0.002 A 
ENDBRANCH   7   9
ENDBRANCH   6   7
ENDBRANCH   5   6
ENDBRANCH   2   5
BRANCH   1  19
HETATM   19  C   UNL     1      43.224  -9.634   9.727  1.00  0.00     0.040 A 
HETATM   20  C   UNL     1      43.094  -8.226   9.726  1.00  0.00    -0.034 A 
HETATM   21  C   UNL     1      42.935  -7.540  10.948  1.00  0.00     0.026 A 
HETATM   22  C   UNL     1      43.117  -7.416   8.457  1.00  0.00     0.050 C 
HETATM   23  C   UNL     1      42.901  -8.234  12.162  1.00  0.00     0.032 A 
HETATM   24  C   UNL     1      43.072  -9.618  12.159  1.00  0.00     0.019 A 
HETATM   25  C   UNL     1      43.228 -10.309  10.952  1.00  0.00     0.031 A 
BRANCH  23  26
HETATM   26  C   UNL     1      42.702  -7.543  13.469  1.00  0.00     0.251 C 
HETATM   27  N   UNL     1      41.397  -7.425  13.905  1.00  0.00    -0.357 N 
HETATM   28  H   UNL     1      40.670  -7.943  13.432  1.00  0.00     0.162 HD
HETATM   29  O   UNL     1      43.668  -7.150  14.111  1.00  0.00    -0.268 OA
BRANCH  27  30
HETATM   30  C   UNL     1      41.083  -6.880  15.210  1.00  0.00     0.118 C 
HETATM   31  C   UNL     1      41.125  -7.952  16.284  1.00  0.00     0.026 C 
ENDBRANCH  27  30
ENDBRANCH  23  26
ENDBRANCH   1  19
TORSDOF 7
ENDMDL
MODEL 8
REMARK VINA RESULT:      -7.4      4.218      7.789
REMARK  7 active torsions:
REMARK  status: ('A' for Active; 'I' for Inactive)
REMARK    1  A    between atoms: C_2  and  N_3 
REMARK       I    between atoms: N_3  and  C_4 
REMARK    2  A    between atoms: C_4  and  C_5 
REMARK    3  A    between atoms: C_9  and  N_10 
REMARK       I    between atoms: N_10  and  C_11 
REMARK    4  A    between atoms: C_11  and  C_12 
REMARK    5  A    between atoms: C_12  and  S_13 
REMARK    6  A    between atoms: S_13  and  C_14 
REMARK    7  A    between atoms: C_14  and  C_15 
ROOT
HETATM    1  N   UNL     1      41.197 -10.529   3.044  1.00  0.00    -0.326 N 
HETATM    2  C   UNL     1      39.890 -10.865   2.716  1.00  0.00     0.231 C 
HETATM    3  O   UNL     1      39.062 -11.399   3.448  1.00  0.00    -0.272 OA
HETATM    4  H   UNL     1      41.723 -10.076   2.309  1.00  0.00     0.169 HD
ENDROOT
BRANCH   2   5
HETATM    5  C   UNL     1      39.531 -10.489   1.281  1.00  0.00     0.177 C 
BRANCH   5   6
HETATM    6  S   UNL     1      40.594 -11.451   0.145  1.00  0.00    -0.147 SA
BRANCH   6   7
HETATM    7  C   UNL     1      39.745 -13.078   0.165  1.00  0.00     0.113 C 
HETATM    8  C   UNL     1      39.468 -13.568  -1.255  1.00  0.00     0.029 C 
BRANCH   7   9
HETATM    9  C   UNL     1      40.460 -14.104   0.994  1.00  0.00     0.118 A 
HETATM   10  N   UNL     1      40.140 -14.497   2.212  1.00  0.00    -0.232 NA
HETATM   11  C   UNL     1      41.126 -15.370   2.599  1.00  0.00     0.085 A 
HETATM   12  C   UNL     1      42.064 -15.536   1.588  1.00  0.00     0.062 A 
HETATM   13  C   UNL     1      41.291 -16.060   3.809  1.00  0.00     0.034 A 
HETATM   14  N   UNL     1      41.620 -14.722   0.580  1.00  0.00    -0.342 N 
HETATM   15  C   UNL     1      43.175 -16.374   1.704  1.00  0.00     0.032 A 
HETATM   16  H   UNL     1      42.059 -14.593  -0.322  1.00  0.00     0.167 HD
HETATM   17  C   UNL     1      43.324 -17.055   2.918  1.00  0.00     0.002 A 
HETATM   18  C   UNL     1      42.402 -16.900   3.957  1.00  0.00     0.002 A 
ENDBRANCH   7   9
ENDBRANCH   6   7
ENDBRANCH   5   6
ENDBRANCH   2   5
BRANCH   1  19
HETATM   19  C   UNL     1      41.842 -10.645   4.297  1.00  0.00     0.040 A 
HETATM   20  C   UNL     1      42.916 -11.556   4.426  1.00  0.00    -0.034 A 
HETATM   21  C   UNL     1      43.610 -11.646   5.651  1.00  0.00     0.026 A 
HETATM   22  C   UNL     1      43.357 -12.447   3.296  1.00  0.00     0.050 C 
HETATM   23  C   UNL     1      43.252 -10.843   6.739  1.00  0.00     0.032 A 
HETATM   24  C   UNL     1      42.166  -9.976   6.618  1.00  0.00     0.019 A 
HETATM   25  C   UNL     1      41.472  -9.878   5.406  1.00  0.00     0.031 A 
BRANCH  23  26
HETATM   26  C   UNL     1      43.985 -10.889   8.038  1.00  0.00     0.251 C 
HETATM   27  N   UNL     1      43.291 -10.444   9.147  1.00  0.00    -0.357 N 
HETATM   28  H   UNL     1      42.298 -10.278   9.073  1.00  0.00     0.162 HD
HETATM   29  O   UNL     1      45.123 -11.338   8.087  1.00  0.00    -0.268 OA
BRANCH  27  30
HETATM   30  C   UNL     1      43.851 -10.547  10.479  1.00  0.00     0.118 C 
HETATM   31  C   UNL     1      44.098  -9.177  11.084  1.00  0.00     0.026 C 
ENDBRANCH  27  30
ENDBRANCH  23  26
ENDBRANCH   1  19
TORSDOF 7
ENDMDL
MODEL 9
REMARK VINA RESULT:      -7.4      2.612      7.552
REMARK  7 active torsions:
REMARK  status: ('A' for Active; 'I' for Inactive)
REMARK    1  A    between atoms: C_2  and  N_3 
REMARK       I    between atoms: N_3  and  C_4 
REMARK    2  A    between atoms: C_4  and  C_5 
REMARK    3  A    between atoms: C_9  and  N_10 
REMARK       I    between atoms: N_10  and  C_11 
REMARK    4  A    between atoms: C_11  and  C_12 
REMARK    5  A    between atoms: C_12  and  S_13 
REMARK    6  A    between atoms: S_13  and  C_14 
REMARK    7  A    between atoms: C_14  and  C_15 
ROOT
HETATM    1  N   UNL     1      40.550 -13.373   4.303  1.00  0.00    -0.326 N 
HETATM    2  C   UNL     1      39.818 -12.868   5.370  1.00  0.00     0.231 C 
HETATM    3  O   UNL     1      39.630 -13.410   6.454  1.00  0.00    -0.272 OA
HETATM    4  H   UNL     1      40.608 -12.768   3.494  1.00  0.00     0.169 HD
ENDROOT
BRANCH   2   5
HETATM    5  C   UNL     1      39.228 -11.491   5.076  1.00  0.00     0.177 C 
BRANCH   5   6
HETATM    6  S   UNL     1      40.088 -10.788   3.623  1.00  0.00    -0.147 SA
BRANCH   6   7
HETATM    7  C   UNL     1      38.773 -10.902   2.348  1.00  0.00     0.113 C 
HETATM    8  C   UNL     1      38.127  -9.540   2.106  1.00  0.00     0.029 C 
BRANCH   7   9
HETATM    9  C   UNL     1      39.241 -11.548   1.077  1.00  0.00     0.118 A 
HETATM   10  N   UNL     1      40.225 -11.138   0.299  1.00  0.00    -0.232 NA
HETATM   11  C   UNL     1      40.223 -11.979  -0.785  1.00  0.00     0.085 A 
HETATM   12  C   UNL     1      39.230 -12.943  -0.663  1.00  0.00     0.062 A 
HETATM   13  C   UNL     1      41.042 -11.978  -1.924  1.00  0.00     0.034 A 
HETATM   14  N   UNL     1      38.620 -12.648   0.528  1.00  0.00    -0.342 N 
HETATM   15  C   UNL     1      39.003 -13.935  -1.619  1.00  0.00     0.032 A 
HETATM   16  H   UNL     1      37.848 -13.150   0.943  1.00  0.00     0.167 HD
HETATM   17  C   UNL     1      39.830 -13.919  -2.749  1.00  0.00     0.002 A 
HETATM   18  C   UNL     1      40.830 -12.956  -2.904  1.00  0.00     0.002 A 
ENDBRANCH   7   9
ENDBRANCH   6   7
ENDBRANCH   5   6
ENDBRANCH   2   5
BRANCH   1  19
HETATM   19  C   UNL     1      41.305 -14.567   4.247  1.00  0.00     0.040 A 
HETATM   20  C   UNL     1      40.968 -15.539   3.277  1.00  0.00    -0.034 A 
HETATM   21  C   UNL     1      41.743 -16.713   3.167  1.00  0.00     0.026 A 
HETATM   22  C   UNL     1      39.799 -15.373   2.342  1.00  0.00     0.050 C 
HETATM   23  C   UNL     1      42.844 -16.926   4.003  1.00  0.00     0.032 A 
HETATM   24  C   UNL     1      43.147 -15.983   4.984  1.00  0.00     0.019 A 
HETATM   25  C   UNL     1      42.386 -14.814   5.101  1.00  0.00     0.031 A 
BRANCH  23  26
HETATM   26  C   UNL     1      43.705 -18.139   3.892  1.00  0.00     0.251 C 
HETATM   27  N   UNL     1      43.891 -18.865   5.053  1.00  0.00    -0.357 N 
HETATM   28  H   UNL     1      43.320 -18.658   5.860  1.00  0.00     0.162 HD
HETATM   29  O   UNL     1      44.173 -18.466   2.808  1.00  0.00    -0.268 OA
BRANCH  27  30
HETATM   30  C   UNL     1      44.609 -20.123   5.050  1.00  0.00     0.118 C 
HETATM   31  C   UNL     1      43.688 -21.286   4.728  1.00  0.00     0.026 C 
ENDBRANCH  27  30
ENDBRANCH  23  26
ENDBRANCH   1  19
TORSDOF 7
ENDMDL
MODEL 10
REMARK VINA RESULT:      -7.4      2.265      4.561
REMARK  7 active torsions:
REMARK  status: ('A' for Active; 'I' for Inactive)
REMARK    1  A    between atoms: C_2  and  N_3 
REMARK       I    between atoms: N_3  and  C_4 
REMARK    2  A    between atoms: C_4  and  C_5 
REMARK    3  A    between atoms: C_9  and  N_10 
REMARK       I    between atoms: N_10  and  C_11 
REMARK    4  A    between atoms: C_11  and  C_12 
REMARK    5  A    between atoms: C_12  and  S_13 
REMARK    6  A    between atoms: S_13  and  C_14 
REMARK    7  A    between atoms: C_14  and  C_15 
ROOT
HETATM    1  N   UNL     1      42.169 -15.496   3.553  1.00  0.00    -0.326 N 
HETATM    2  C   UNL     1      43.232 -16.385   3.636  1.00  0.00     0.231 C 
HETATM    3  O   UNL     1      43.753 -16.997   2.708  1.00  0.00    -0.272 OA
HETATM    4  H   UNL     1      41.890 -15.074   4.429  1.00  0.00     0.169 HD
ENDROOT
BRANCH   2   5
HETATM    5  C   UNL     1      43.746 -16.554   5.063  1.00  0.00     0.177 C 
BRANCH   5   6
HETATM    6  S   UNL     1      42.410 -17.280   6.079  1.00  0.00    -0.147 SA
BRANCH   6   7
HETATM    7  C   UNL     1      42.106 -15.926   7.280  1.00  0.00     0.113 C 
HETATM    8  C   UNL     1      43.349 -15.657   8.126  1.00  0.00     0.029 C 
BRANCH   7   9
HETATM    9  C   UNL     1      41.570 -14.681   6.638  1.00  0.00     0.118 A 
HETATM   10  N   UNL     1      40.474 -14.576   5.912  1.00  0.00    -0.232 NA
HETATM   11  C   UNL     1      40.441 -13.279   5.463  1.00  0.00     0.085 A 
HETATM   12  C   UNL     1      41.530 -12.562   5.940  1.00  0.00     0.062 A 
HETATM   13  C   UNL     1      39.509 -12.640   4.632  1.00  0.00     0.034 A 
HETATM   14  N   UNL     1      42.233 -13.474   6.684  1.00  0.00    -0.342 N 
HETATM   15  C   UNL     1      41.749 -11.215   5.647  1.00  0.00     0.032 A 
HETATM   16  H   UNL     1      43.091 -13.298   7.189  1.00  0.00     0.167 HD
HETATM   17  C   UNL     1      40.809 -10.593   4.817  1.00  0.00     0.002 A 
HETATM   18  C   UNL     1      39.708 -11.291   4.313  1.00  0.00     0.002 A 
ENDBRANCH   7   9
ENDBRANCH   6   7
ENDBRANCH   5   6
ENDBRANCH   2   5
BRANCH   1  19
HETATM   19  C   UNL     1      41.504 -15.032   2.394  1.00  0.00     0.040 A 
HETATM   20  C   UNL     1      41.843 -13.760   1.879  1.00  0.00    -0.034 A 
HETATM   21  C   UNL     1      41.232 -13.303   0.693  1.00  0.00     0.026 A 
HETATM   22  C   UNL     1      42.844 -12.859   2.553  1.00  0.00     0.050 C 
HETATM   23  C   UNL     1      40.297 -14.093   0.017  1.00  0.00     0.032 A 
HETATM   24  C   UNL     1      39.936 -15.329   0.552  1.00  0.00     0.019 A 
HETATM   25  C   UNL     1      40.538 -15.794   1.728  1.00  0.00     0.031 A 
BRANCH  23  26
HETATM   26  C   UNL     1      39.656 -13.654  -1.257  1.00  0.00     0.251 C 
HETATM   27  N   UNL     1      38.472 -12.953  -1.136  1.00  0.00    -0.357 N 
HETATM   28  H   UNL     1      38.186 -12.623  -0.225  1.00  0.00     0.162 HD
HETATM   29  O   UNL     1      40.198 -13.887  -2.331  1.00  0.00    -0.268 OA
BRANCH  27  30
HETATM   30  C   UNL     1      37.816 -12.374  -2.290  1.00  0.00     0.118 C 
HETATM   31  C   UNL     1      36.839 -13.351  -2.921  1.00  0.00     0.026 C 
ENDBRANCH  27  30
ENDBRANCH  23  26
ENDBRANCH   1  19
TORSDOF 7
ENDMDL
