MODEL 1
REMARK VINA RESULT:      -8.7      0.000      0.000
REMARK  7 active torsions:
REMARK  status: ('A' for Active; 'I' for Inactive)
REMARK       I    between atoms: C_2  and  N_3 
REMARK    1  A    between atoms: N_3  and  C_4 
REMARK    2  A    between atoms: C_7  and  N_8 
REMARK       I    between atoms: N_8  and  C_9 
REMARK    3  A    between atoms: C_9  and  C_10 
REMARK       I    between atoms: C_10  and  N_11 
REMARK    4  A    between atoms: N_11  and  C_12 
REMARK    5  A    between atoms: C_12  and  C_13 
REMARK    6  A    between atoms: C_13  and  O_14 
REMARK    7  A    between atoms: C_13  and  C_15 
ROOT
HETATM    1  C   UNL     1      42.980 -13.386   2.617  1.00  0.00     0.309 C 
HETATM    2  N   UNL     1      41.632 -13.439   2.392  1.00  0.00    -0.350 N 
HETATM    3  O   UNL     1      43.827 -14.130   2.141  1.00  0.00    -0.262 OA
HETATM    4  H   UNL     1      41.073 -12.666   2.742  1.00  0.00     0.163 HD
ENDROOT
BRANCH   1   5
HETATM    5  C   UNL     1      43.401 -12.246   3.573  1.00  0.00     0.313 C 
HETATM    6  N   UNL     1      43.117 -12.545   4.889  1.00  0.00    -0.319 N 
HETATM    7  H   UNL     1      42.725 -13.472   5.033  1.00  0.00     0.169 HD
HETATM    8  O   UNL     1      43.920 -11.243   3.103  1.00  0.00    -0.262 OA
BRANCH   6   9
HETATM    9  C   UNL     1      43.270 -11.710   6.009  1.00  0.00     0.035 A 
HETATM   10  C   UNL     1      42.419 -10.647   6.307  1.00  0.00     0.032 A 
HETATM   11  C   UNL     1      42.601  -9.887   7.471  1.00  0.00     0.032 A 
HETATM   12  C   UNL     1      43.643 -10.173   8.352  1.00  0.00     0.034 A 
HETATM   13  C   UNL     1      44.512 -11.224   8.041  1.00  0.00     0.032 A 
HETATM   14  C   UNL     1      44.324 -11.991   6.884  1.00  0.00     0.032 A 
BRANCH  12  15
HETATM   15  N   UNL     1      43.877  -9.472   9.553  1.00  0.00    -0.328 N 
HETATM   16  C   UNL     1      43.092  -9.471  10.693  1.00  0.00     0.218 C 
HETATM   17  C   UNL     1      43.681  -8.624  11.795  1.00  0.00     0.117 C 
HETATM   18  O   UNL     1      42.051 -10.091  10.874  1.00  0.00    -0.274 OA
HETATM   19  H   UNL     1      44.736  -8.940   9.592  1.00  0.00     0.169 HD
ENDBRANCH  12  15
ENDBRANCH   6   9
ENDBRANCH   1   5
BRANCH   2  20
HETATM   20  C   UNL     1      40.994 -14.415   1.526  1.00  0.00     0.159 C 
BRANCH  20  21
HETATM   21  C   UNL     1      40.362 -15.589   2.302  1.00  0.00     0.171 C 
BRANCH  21  22
HETATM   22  O   UNL     1      39.026 -15.226   2.680  1.00  0.00    -0.389 OA
HETATM   23  H   UNL     1      39.025 -14.255   2.749  1.00  0.00     0.210 HD
ENDBRANCH  21  22
BRANCH  21  24
HETATM   24  C   UNL     1      41.152 -16.020   3.508  1.00  0.00     0.000 A 
HETATM   25  C   UNL     1      42.255 -16.936   3.530  1.00  0.00     0.001 A 
HETATM   26  C   UNL     1      42.672 -17.071   4.860  1.00  0.00     0.044 A 
HETATM   27  C   UNL     1      42.934 -17.672   2.535  1.00  0.00     0.014 A 
HETATM   28  C   UNL     1      43.739 -17.909   5.225  1.00  0.00     0.030 A 
HETATM   29  N   UNL     1      41.854 -16.264   5.619  1.00  0.00    -0.360 N 
HETATM   30  C   UNL     1      44.387 -18.631   4.219  1.00  0.00     0.002 A 
HETATM   31  C   UNL     1      43.993 -18.516   2.891  1.00  0.00     0.001 A 
HETATM   32  C   UNL     1      41.925 -16.073   7.051  1.00  0.00     0.155 C 
HETATM   33  C   UNL     1      40.929 -15.645   4.821  1.00  0.00     0.101 A 
ENDBRANCH  21  24
ENDBRANCH  20  21
ENDBRANCH   2  20
TORSDOF 7
ENDMDL
MODEL 2
REMARK VINA RESULT:      -8.6      2.972      5.302
REMARK  7 active torsions:
REMARK  status: ('A' for Active; 'I' for Inactive)
REMARK       I    between atoms: C_2  and  N_3 
REMARK    1  A    between atoms: N_3  and  C_4 
REMARK    2  A    between atoms: C_7  and  N_8 
REMARK       I    between atoms: N_8  and  C_9 
REMARK    3  A    between atoms: C_9  and  C_10 
REMARK       I    between atoms: C_10  and  N_11 
REMARK    4  A    between atoms: N_11  and  C_12 
REMARK    5  A    between atoms: C_12  and  C_13 
REMARK    6  A    between atoms: C_13  and  O_14 
REMARK    7  A    between atoms: C_13  and  C_15 
ROOT
HETATM    1  C   UNL     1      44.270 -10.919   8.574  1.00  0.00     0.309 C 
HETATM    2  N   UNL     1      43.478 -11.749   7.827  1.00  0.00    -0.350 N 
HETATM    3  O   UNL     1      45.493 -10.890   8.578  1.00  0.00    -0.262 OA
HETATM    4  H   UNL     1      42.480 -11.557   7.824  1.00  0.00     0.163 HD
ENDROOT
BRANCH   1   5
HETATM    5  C   UNL     1      43.470  -9.949   9.474  1.00  0.00     0.313 C 
HETATM    6  N   UNL     1      43.693 -10.187  10.815  1.00  0.00    -0.319 N 
HETATM    7  H   UNL     1      44.373 -10.918  11.003  1.00  0.00     0.169 HD
HETATM    8  O   UNL     1      42.758  -9.106   8.946  1.00  0.00    -0.262 OA
BRANCH   6   9
HETATM    9  C   UNL     1      43.065  -9.569  11.909  1.00  0.00     0.035 A 
HETATM   10  C   UNL     1      41.975 -10.113  12.587  1.00  0.00     0.032 A 
HETATM   11  C   UNL     1      41.431  -9.466  13.706  1.00  0.00     0.032 A 
HETATM   12  C   UNL     1      41.963  -8.260  14.159  1.00  0.00     0.034 A 
HETATM   13  C   UNL     1      43.040  -7.701  13.464  1.00  0.00     0.032 A 
HETATM   14  C   UNL     1      43.591  -8.353  12.354  1.00  0.00     0.032 A 
BRANCH  12  15
HETATM   15  N   UNL     1      41.488  -7.562  15.289  1.00  0.00    -0.328 N 
HETATM   16  C   UNL     1      40.350  -6.779  15.376  1.00  0.00     0.218 C 
HETATM   17  C   UNL     1      40.146  -6.215  16.761  1.00  0.00     0.117 C 
HETATM   18  O   UNL     1      39.535  -6.559  14.488  1.00  0.00    -0.274 OA
HETATM   19  H   UNL     1      42.025  -7.679  16.137  1.00  0.00     0.169 HD
ENDBRANCH  12  15
ENDBRANCH   6   9
ENDBRANCH   1   5
BRANCH   2  20
HETATM   20  C   UNL     1      43.993 -12.741   6.900  1.00  0.00     0.159 C 
BRANCH  20  21
HETATM   21  C   UNL     1      42.930 -13.241   5.900  1.00  0.00     0.171 C 
BRANCH  21  22
HETATM   22  O   UNL     1      41.627 -13.003   6.455  1.00  0.00    -0.389 OA
HETATM   23  H   UNL     1      41.004 -13.085   5.712  1.00  0.00     0.210 HD
ENDBRANCH  21  22
BRANCH  21  24
HETATM   24  C   UNL     1      43.083 -14.688   5.518  1.00  0.00     0.000 A 
HETATM   25  C   UNL     1      43.118 -15.227   4.189  1.00  0.00     0.001 A 
HETATM   26  C   UNL     1      43.244 -16.617   4.295  1.00  0.00     0.044 A 
HETATM   27  C   UNL     1      43.045 -14.655   2.901  1.00  0.00     0.014 A 
HETATM   28  C   UNL     1      43.302 -17.448   3.163  1.00  0.00     0.030 A 
HETATM   29  N   UNL     1      43.288 -16.913   5.639  1.00  0.00    -0.360 N 
HETATM   30  C   UNL     1      43.220 -16.854   1.901  1.00  0.00     0.002 A 
HETATM   31  C   UNL     1      43.094 -15.476   1.769  1.00  0.00     0.001 A 
HETATM   32  C   UNL     1      43.427 -18.228   6.225  1.00  0.00     0.155 C 
HETATM   33  C   UNL     1      43.172 -15.767   6.380  1.00  0.00     0.101 A 
ENDBRANCH  21  24
ENDBRANCH  20  21
ENDBRANCH   2  20
TORSDOF 7
ENDMDL
MODEL 3
REMARK VINA RESULT:      -8.5      2.492      4.208
REMARK  7 active torsions:
REMARK  status: ('A' for Active; 'I' for Inactive)
REMARK       I    between atoms: C_2  and  N_3 
REMARK    1  A    between atoms: N_3  and  C_4 
REMARK    2  A    between atoms: C_7  and  N_8 
REMARK       I    between atoms: N_8  and  C_9 
REMARK    3  A    between atoms: C_9  and  C_10 
REMARK       I    between atoms: C_10  and  N_11 
REMARK    4  A    between atoms: N_11  and  C_12 
REMARK    5  A    between atoms: C_12  and  C_13 
REMARK    6  A    between atoms: C_13  and  O_14 
REMARK    7  A    between atoms: C_13  and  C_15 
ROOT
HETATM    1  C   UNL     1      44.073 -11.957   7.231  1.00  0.00     0.309 C 
HETATM    2  N   UNL     1      43.199 -13.004   7.343  1.00  0.00    -0.350 N 
HETATM    3  O   UNL     1      45.154 -11.970   6.658  1.00  0.00    -0.262 OA
HETATM    4  H   UNL     1      42.278 -12.800   7.722  1.00  0.00     0.163 HD
ENDROOT
BRANCH   1   5
HETATM    5  C   UNL     1      43.575 -10.663   7.915  1.00  0.00     0.313 C 
HETATM    6  N   UNL     1      43.576 -10.774   9.290  1.00  0.00    -0.319 N 
HETATM    7  H   UNL     1      43.942 -11.656   9.639  1.00  0.00     0.169 HD
HETATM    8  O   UNL     1      43.251  -9.713   7.216  1.00  0.00    -0.262 OA
BRANCH   6   9
HETATM    9  C   UNL     1      43.100  -9.839  10.225  1.00  0.00     0.035 A 
HETATM   10  C   UNL     1      41.791  -9.360  10.245  1.00  0.00     0.032 A 
HETATM   11  C   UNL     1      41.370  -8.466  11.239  1.00  0.00     0.032 A 
HETATM   12  C   UNL     1      42.254  -8.030  12.225  1.00  0.00     0.034 A 
HETATM   13  C   UNL     1      43.574  -8.490  12.190  1.00  0.00     0.032 A 
HETATM   14  C   UNL     1      43.992  -9.392  11.203  1.00  0.00     0.032 A 
BRANCH  12  15
HETATM   15  N   UNL     1      41.901  -7.152  13.271  1.00  0.00    -0.328 N 
HETATM   16  C   UNL     1      41.364  -7.483  14.502  1.00  0.00     0.218 C 
HETATM   17  C   UNL     1      41.147  -6.275  15.379  1.00  0.00     0.117 C 
HETATM   18  O   UNL     1      41.107  -8.607  14.917  1.00  0.00    -0.274 OA
HETATM   19  H   UNL     1      42.099  -6.173  13.110  1.00  0.00     0.169 HD
ENDBRANCH  12  15
ENDBRANCH   6   9
ENDBRANCH   1   5
BRANCH   2  20
HETATM   20  C   UNL     1      43.436 -14.320   6.777  1.00  0.00     0.159 C 
BRANCH  20  21
HETATM   21  C   UNL     1      42.140 -15.134   6.578  1.00  0.00     0.171 C 
BRANCH  21  22
HETATM   22  O   UNL     1      42.126 -16.216   7.521  1.00  0.00    -0.389 OA
HETATM   23  H   UNL     1      41.251 -16.632   7.434  1.00  0.00     0.210 HD
ENDBRANCH  21  22
BRANCH  21  24
HETATM   24  C   UNL     1      41.953 -15.651   5.179  1.00  0.00     0.000 A 
HETATM   25  C   UNL     1      42.707 -16.690   4.538  1.00  0.00     0.001 A 
HETATM   26  C   UNL     1      42.220 -16.830   3.233  1.00  0.00     0.044 A 
HETATM   27  C   UNL     1      43.771 -17.521   4.951  1.00  0.00     0.014 A 
HETATM   28  C   UNL     1      42.755 -17.769   2.335  1.00  0.00     0.030 A 
HETATM   29  N   UNL     1      41.203 -15.913   3.086  1.00  0.00    -0.360 N 
HETATM   30  C   UNL     1      43.813 -18.572   2.770  1.00  0.00     0.002 A 
HETATM   31  C   UNL     1      44.316 -18.452   4.060  1.00  0.00     0.001 A 
HETATM   32  C   UNL     1      40.397 -15.707   1.903  1.00  0.00     0.155 C 
HETATM   33  C   UNL     1      41.048 -15.189   4.238  1.00  0.00     0.101 A 
ENDBRANCH  21  24
ENDBRANCH  20  21
ENDBRANCH   2  20
TORSDOF 7
ENDMDL
MODEL 4
REMARK VINA RESULT:      -8.2      2.545      9.930
REMARK  7 active torsions:
REMARK  status: ('A' for Active; 'I' for Inactive)
REMARK       I    between atoms: C_2  and  N_3 
REMARK    1  A    between atoms: N_3  and  C_4 
REMARK    2  A    between atoms: C_7  and  N_8 
REMARK       I    between atoms: N_8  and  C_9 
REMARK    3  A    between atoms: C_9  and  C_10 
REMARK       I    between atoms: C_10  and  N_11 
REMARK    4  A    between atoms: N_11  and  C_12 
REMARK    5  A    between atoms: C_12  and  C_13 
REMARK    6  A    between atoms: C_13  and  O_14 
REMARK    7  A    between atoms: C_13  and  C_15 
ROOT
HETATM    1  C   UNL     1      43.942 -10.779   7.936  1.00  0.00     0.309 C 
HETATM    2  N   UNL     1      44.841 -10.612   8.954  1.00  0.00    -0.350 N 
HETATM    3  O   UNL     1      42.918 -10.132   7.757  1.00  0.00    -0.262 OA
HETATM    4  H   UNL     1      45.715 -11.127   8.889  1.00  0.00     0.163 HD
ENDROOT
BRANCH   1   5
HETATM    5  C   UNL     1      44.324 -11.910   6.955  1.00  0.00     0.313 C 
HETATM    6  N   UNL     1      43.271 -12.771   6.724  1.00  0.00    -0.319 N 
HETATM    7  H   UNL     1      42.406 -12.509   7.189  1.00  0.00     0.169 HD
HETATM    8  O   UNL     1      45.458 -11.935   6.496  1.00  0.00    -0.262 OA
BRANCH   6   9
HETATM    9  C   UNL     1      43.284 -13.958   5.971  1.00  0.00     0.035 A 
HETATM   10  C   UNL     1      43.631 -15.203   6.492  1.00  0.00     0.032 A 
HETATM   11  C   UNL     1      43.571 -16.355   5.695  1.00  0.00     0.032 A 
HETATM   12  C   UNL     1      43.173 -16.278   4.361  1.00  0.00     0.034 A 
HETATM   13  C   UNL     1      42.849 -15.025   3.832  1.00  0.00     0.032 A 
HETATM   14  C   UNL     1      42.898 -13.876   4.631  1.00  0.00     0.032 A 
BRANCH  12  15
HETATM   15  N   UNL     1      43.064 -17.392   3.503  1.00  0.00    -0.328 N 
HETATM   16  C   UNL     1      43.890 -18.502   3.457  1.00  0.00     0.218 C 
HETATM   17  C   UNL     1      43.442 -19.509   2.427  1.00  0.00     0.117 C 
HETATM   18  O   UNL     1      44.865 -18.727   4.166  1.00  0.00    -0.274 OA
HETATM   19  H   UNL     1      42.270 -17.390   2.877  1.00  0.00     0.169 HD
ENDBRANCH  12  15
ENDBRANCH   6   9
ENDBRANCH   1   5
BRANCH   2  20
HETATM   20  C   UNL     1      44.708  -9.609   9.996  1.00  0.00     0.159 C 
BRANCH  20  21
HETATM   21  C   UNL     1      43.909 -10.111  11.217  1.00  0.00     0.171 C 
BRANCH  21  22
HETATM   22  O   UNL     1      43.589 -11.496  11.020  1.00  0.00    -0.389 OA
HETATM   23  H   UNL     1      44.399 -11.908  10.672  1.00  0.00     0.210 HD
ENDBRANCH  21  22
BRANCH  21  24
HETATM   24  C   UNL     1      42.662  -9.317  11.499  1.00  0.00     0.000 A 
HETATM   25  C   UNL     1      42.482  -8.338  12.532  1.00  0.00     0.001 A 
HETATM   26  C   UNL     1      41.165  -7.870  12.453  1.00  0.00     0.044 A 
HETATM   27  C   UNL     1      43.324  -7.811  13.536  1.00  0.00     0.014 A 
HETATM   28  C   UNL     1      40.666  -6.898  13.336  1.00  0.00     0.030 A 
HETATM   29  N   UNL     1      40.566  -8.538  11.408  1.00  0.00    -0.360 N 
HETATM   30  C   UNL     1      41.520  -6.401  14.324  1.00  0.00     0.002 A 
HETATM   31  C   UNL     1      42.831  -6.849  14.425  1.00  0.00     0.001 A 
HETATM   32  C   UNL     1      39.206  -8.367  10.947  1.00  0.00     0.155 C 
HETATM   33  C   UNL     1      41.448  -9.420  10.843  1.00  0.00     0.101 A 
ENDBRANCH  21  24
ENDBRANCH  20  21
ENDBRANCH   2  20
TORSDOF 7
ENDMDL
MODEL 5
REMARK VINA RESULT:      -8.1      3.210      5.872
REMARK  7 active torsions:
REMARK  status: ('A' for Active; 'I' for Inactive)
REMARK       I    between atoms: C_2  and  N_3 
REMARK    1  A    between atoms: N_3  and  C_4 
REMARK    2  A    between atoms: C_7  and  N_8 
REMARK       I    between atoms: N_8  and  C_9 
REMARK    3  A    between atoms: C_9  and  C_10 
REMARK       I    between atoms: C_10  and  N_11 
REMARK    4  A    between atoms: N_11  and  C_12 
REMARK    5  A    between atoms: C_12  and  C_13 
REMARK    6  A    between atoms: C_13  and  O_14 
REMARK    7  A    between atoms: C_13  and  C_15 
ROOT
HETATM    1  C   UNL     1      44.175 -10.273   8.766  1.00  0.00     0.309 C 
HETATM    2  N   UNL     1      43.559 -11.217   7.991  1.00  0.00    -0.350 N 
HETATM    3  O   UNL     1      44.953  -9.410   8.382  1.00  0.00    -0.262 OA
HETATM    4  H   UNL     1      42.830 -11.773   8.429  1.00  0.00     0.163 HD
ENDROOT
BRANCH   1   5
HETATM    5  C   UNL     1      43.800 -10.366  10.263  1.00  0.00     0.313 C 
HETATM    6  N   UNL     1      42.856  -9.424  10.618  1.00  0.00    -0.319 N 
HETATM    7  H   UNL     1      42.521  -8.855   9.845  1.00  0.00     0.169 HD
HETATM    8  O   UNL     1      44.340 -11.218  10.955  1.00  0.00    -0.262 OA
BRANCH   6   9
HETATM    9  C   UNL     1      42.357  -9.154  11.904  1.00  0.00     0.035 A 
HETATM   10  C   UNL     1      41.166  -9.682  12.400  1.00  0.00     0.032 A 
HETATM   11  C   UNL     1      40.754  -9.412  13.712  1.00  0.00     0.032 A 
HETATM   12  C   UNL     1      41.523  -8.602  14.547  1.00  0.00     0.034 A 
HETATM   13  C   UNL     1      42.705  -8.052  14.041  1.00  0.00     0.032 A 
HETATM   14  C   UNL     1      43.123  -8.331  12.734  1.00  0.00     0.032 A 
BRANCH  12  15
HETATM   15  N   UNL     1      41.189  -8.303  15.884  1.00  0.00    -0.328 N 
HETATM   16  C   UNL     1      40.532  -7.181  16.357  1.00  0.00     0.218 C 
HETATM   17  C   UNL     1      40.321  -7.224  17.850  1.00  0.00     0.117 C 
HETATM   18  O   UNL     1      40.105  -6.242  15.695  1.00  0.00    -0.274 OA
HETATM   19  H   UNL     1      41.429  -9.010  16.567  1.00  0.00     0.169 HD
ENDBRANCH  12  15
ENDBRANCH   6   9
ENDBRANCH   1   5
BRANCH   2  20
HETATM   20  C   UNL     1      43.743 -11.330   6.555  1.00  0.00     0.159 C 
BRANCH  20  21
HETATM   21  C   UNL     1      42.509 -11.911   5.832  1.00  0.00     0.171 C 
BRANCH  21  22
HETATM   22  O   UNL     1      41.405 -11.927   6.749  1.00  0.00    -0.389 OA
HETATM   23  H   UNL     1      41.721 -12.403   7.536  1.00  0.00     0.210 HD
ENDBRANCH  21  22
BRANCH  21  24
HETATM   24  C   UNL     1      42.731 -13.279   5.249  1.00  0.00     0.000 A 
HETATM   25  C   UNL     1      42.956 -14.496   5.975  1.00  0.00     0.001 A 
HETATM   26  C   UNL     1      43.142 -15.523   5.041  1.00  0.00     0.044 A 
HETATM   27  C   UNL     1      43.026 -14.816   7.348  1.00  0.00     0.014 A 
HETATM   28  C   UNL     1      43.391 -16.849   5.432  1.00  0.00     0.030 A 
HETATM   29  N   UNL     1      43.031 -14.952   3.792  1.00  0.00    -0.360 N 
HETATM   30  C   UNL     1      43.463 -17.134   6.798  1.00  0.00     0.002 A 
HETATM   31  C   UNL     1      43.283 -16.133   7.746  1.00  0.00     0.001 A 
HETATM   32  C   UNL     1      43.138 -15.636   2.523  1.00  0.00     0.155 C 
HETATM   33  C   UNL     1      42.805 -13.606   3.906  1.00  0.00     0.101 A 
ENDBRANCH  21  24
ENDBRANCH  20  21
ENDBRANCH   2  20
TORSDOF 7
ENDMDL
MODEL 6
REMARK VINA RESULT:      -8.1      4.766      8.643
REMARK  7 active torsions:
REMARK  status: ('A' for Active; 'I' for Inactive)
REMARK       I    between atoms: C_2  and  N_3 
REMARK    1  A    between atoms: N_3  and  C_4 
REMARK    2  A    between atoms: C_7  and  N_8 
REMARK       I    between atoms: N_8  and  C_9 
REMARK    3  A    between atoms: C_9  and  C_10 
REMARK       I    between atoms: C_10  and  N_11 
REMARK    4  A    between atoms: N_11  and  C_12 
REMARK    5  A    between atoms: C_12  and  C_13 
REMARK    6  A    between atoms: C_13  and  O_14 
REMARK    7  A    between atoms: C_13  and  C_15 
ROOT
HETATM    1  C   UNL     1      40.995 -13.287   1.428  1.00  0.00     0.309 C 
HETATM    2  N   UNL     1      42.247 -13.765   1.149  1.00  0.00    -0.350 N 
HETATM    3  O   UNL     1      40.375 -13.436   2.472  1.00  0.00    -0.262 OA
HETATM    4  H   UNL     1      42.688 -13.437   0.294  1.00  0.00     0.163 HD
ENDROOT
BRANCH   1   5
HETATM    5  C   UNL     1      40.369 -12.485   0.263  1.00  0.00     0.313 C 
HETATM    6  N   UNL     1      39.016 -12.729   0.138  1.00  0.00    -0.319 N 
HETATM    7  H   UNL     1      38.635 -13.350   0.847  1.00  0.00     0.169 HD
HETATM    8  O   UNL     1      41.086 -11.748  -0.399  1.00  0.00    -0.262 OA
BRANCH   6   9
HETATM    9  C   UNL     1      38.150 -12.254  -0.861  1.00  0.00     0.035 A 
HETATM   10  C   UNL     1      37.579 -10.982  -0.852  1.00  0.00     0.032 A 
HETATM   11  C   UNL     1      36.764 -10.555  -1.910  1.00  0.00     0.032 A 
HETATM   12  C   UNL     1      36.499 -11.397  -2.989  1.00  0.00     0.034 A 
HETATM   13  C   UNL     1      37.050 -12.682  -2.985  1.00  0.00     0.032 A 
HETATM   14  C   UNL     1      37.874 -13.105  -1.934  1.00  0.00     0.032 A 
BRANCH  12  15
HETATM   15  N   UNL     1      35.709 -11.033  -4.100  1.00  0.00    -0.328 N 
HETATM   16  C   UNL     1      34.391 -11.377  -4.344  1.00  0.00     0.218 C 
HETATM   17  C   UNL     1      33.868 -10.774  -5.624  1.00  0.00     0.117 C 
HETATM   18  O   UNL     1      33.660 -12.054  -3.630  1.00  0.00    -0.274 OA
HETATM   19  H   UNL     1      36.152 -10.422  -4.773  1.00  0.00     0.169 HD
ENDBRANCH  12  15
ENDBRANCH   6   9
ENDBRANCH   1   5
BRANCH   2  20
HETATM   20  C   UNL     1      43.044 -14.539   2.084  1.00  0.00     0.159 C 
BRANCH  20  21
HETATM   21  C   UNL     1      42.785 -16.057   1.984  1.00  0.00     0.171 C 
BRANCH  21  22
HETATM   22  O   UNL     1      41.391 -16.270   1.718  1.00  0.00    -0.389 OA
HETATM   23  H   UNL     1      41.198 -15.776   0.901  1.00  0.00     0.210 HD
ENDBRANCH  21  22
BRANCH  21  24
HETATM   24  C   UNL     1      43.213 -16.831   3.201  1.00  0.00     0.000 A 
HETATM   25  C   UNL     1      43.454 -18.243   3.281  1.00  0.00     0.001 A 
HETATM   26  C   UNL     1      43.804 -18.543   4.603  1.00  0.00     0.044 A 
HETATM   27  C   UNL     1      43.398 -19.298   2.345  1.00  0.00     0.014 A 
HETATM   28  C   UNL     1      44.100 -19.853   5.017  1.00  0.00     0.030 A 
HETATM   29  N   UNL     1      43.780 -17.356   5.302  1.00  0.00    -0.360 N 
HETATM   30  C   UNL     1      44.028 -20.877   4.069  1.00  0.00     0.002 A 
HETATM   31  C   UNL     1      43.683 -20.607   2.750  1.00  0.00     0.001 A 
HETATM   32  C   UNL     1      44.088 -17.178   6.704  1.00  0.00     0.155 C 
HETATM   33  C   UNL     1      43.409 -16.328   4.476  1.00  0.00     0.101 A 
ENDBRANCH  21  24
ENDBRANCH  20  21
ENDBRANCH   2  20
TORSDOF 7
ENDMDL
MODEL 7
REMARK VINA RESULT:      -7.9      2.819      9.356
REMARK  7 active torsions:
REMARK  status: ('A' for Active; 'I' for Inactive)
REMARK       I    between atoms: C_2  and  N_3 
REMARK    1  A    between atoms: N_3  and  C_4 
REMARK    2  A    between atoms: C_7  and  N_8 
REMARK       I    between atoms: N_8  and  C_9 
REMARK    3  A    between atoms: C_9  and  C_10 
REMARK       I    between atoms: C_10  and  N_11 
REMARK    4  A    between atoms: N_11  and  C_12 
REMARK    5  A    between atoms: C_12  and  C_13 
REMARK    6  A    between atoms: C_13  and  O_14 
REMARK    7  A    between atoms: C_13  and  C_15 
ROOT
HETATM    1  C   UNL     1      39.608 -10.790   7.159  1.00  0.00     0.309 C 
HETATM    2  N   UNL     1      40.616  -9.864   7.184  1.00  0.00    -0.350 N 
HETATM    3  O   UNL     1      38.633 -10.825   7.897  1.00  0.00    -0.262 OA
HETATM    4  H   UNL     1      41.281  -9.882   6.416  1.00  0.00     0.163 HD
ENDROOT
BRANCH   1   5
HETATM    5  C   UNL     1      39.786 -11.863   6.060  1.00  0.00     0.313 C 
HETATM    6  N   UNL     1      40.770 -12.774   6.383  1.00  0.00    -0.319 N 
HETATM    7  H   UNL     1      41.189 -12.632   7.298  1.00  0.00     0.169 HD
HETATM    8  O   UNL     1      39.075 -11.813   5.066  1.00  0.00    -0.262 OA
BRANCH   6   9
HETATM    9  C   UNL     1      41.266 -13.819   5.584  1.00  0.00     0.035 A 
HETATM   10  C   UNL     1      42.325 -13.675   4.689  1.00  0.00     0.032 A 
HETATM   11  C   UNL     1      42.802 -14.775   3.962  1.00  0.00     0.032 A 
HETATM   12  C   UNL     1      42.221 -16.033   4.110  1.00  0.00     0.034 A 
HETATM   13  C   UNL     1      41.142 -16.172   4.989  1.00  0.00     0.032 A 
HETATM   14  C   UNL     1      40.672 -15.076   5.725  1.00  0.00     0.032 A 
BRANCH  12  15
HETATM   15  N   UNL     1      42.658 -17.191   3.433  1.00  0.00    -0.328 N 
HETATM   16  C   UNL     1      43.714 -18.017   3.775  1.00  0.00     0.218 C 
HETATM   17  C   UNL     1      43.862 -19.182   2.828  1.00  0.00     0.117 C 
HETATM   18  O   UNL     1      44.460 -17.901   4.741  1.00  0.00    -0.274 OA
HETATM   19  H   UNL     1      42.111 -17.462   2.627  1.00  0.00     0.169 HD
ENDBRANCH  12  15
ENDBRANCH   6   9
ENDBRANCH   1   5
BRANCH   2  20
HETATM   20  C   UNL     1      40.671  -8.754   8.118  1.00  0.00     0.159 C 
BRANCH  20  21
HETATM   21  C   UNL     1      41.800  -8.896   9.160  1.00  0.00     0.171 C 
BRANCH  21  22
HETATM   22  O   UNL     1      42.702  -9.925   8.723  1.00  0.00    -0.389 OA
HETATM   23  H   UNL     1      42.978 -10.395   9.529  1.00  0.00     0.210 HD
ENDBRANCH  21  22
BRANCH  21  24
HETATM   24  C   UNL     1      41.313  -9.180  10.554  1.00  0.00     0.000 A 
HETATM   25  C   UNL     1      41.872  -8.682  11.778  1.00  0.00     0.001 A 
HETATM   26  C   UNL     1      41.129  -9.218  12.837  1.00  0.00     0.044 A 
HETATM   27  C   UNL     1      42.953  -7.826  12.081  1.00  0.00     0.014 A 
HETATM   28  C   UNL     1      41.427  -8.926  14.178  1.00  0.00     0.030 A 
HETATM   29  N   UNL     1      40.152 -10.011  12.278  1.00  0.00    -0.360 N 
HETATM   30  C   UNL     1      42.508  -8.082  14.447  1.00  0.00     0.002 A 
HETATM   31  C   UNL     1      43.262  -7.537  13.415  1.00  0.00     0.001 A 
HETATM   32  C   UNL     1      39.139 -10.757  12.991  1.00  0.00     0.155 C 
HETATM   33  C   UNL     1      40.266 -10.011  10.913  1.00  0.00     0.101 A 
ENDBRANCH  21  24
ENDBRANCH  20  21
ENDBRANCH   2  20
TORSDOF 7
ENDMDL
MODEL 8
REMARK VINA RESULT:      -7.8      2.570      9.441
REMARK  7 active torsions:
REMARK  status: ('A' for Active; 'I' for Inactive)
REMARK       I    between atoms: C_2  and  N_3 
REMARK    1  A    between atoms: N_3  and  C_4 
REMARK    2  A    between atoms: C_7  and  N_8 
REMARK       I    between atoms: N_8  and  C_9 
REMARK    3  A    between atoms: C_9  and  C_10 
REMARK       I    between atoms: C_10  and  N_11 
REMARK    4  A    between atoms: N_11  and  C_12 
REMARK    5  A    between atoms: C_12  and  C_13 
REMARK    6  A    between atoms: C_13  and  O_14 
REMARK    7  A    between atoms: C_13  and  C_15 
ROOT
HETATM    1  C   UNL     1      42.239 -10.452   6.435  1.00  0.00     0.309 C 
HETATM    2  N   UNL     1      42.242 -10.396   7.803  1.00  0.00    -0.350 N 
HETATM    3  O   UNL     1      42.002  -9.527   5.670  1.00  0.00    -0.262 OA
HETATM    4  H   UNL     1      42.598 -11.209   8.299  1.00  0.00     0.163 HD
ENDROOT
BRANCH   1   5
HETATM    5  C   UNL     1      42.582 -11.852   5.875  1.00  0.00     0.313 C 
HETATM    6  N   UNL     1      42.052 -12.862   6.651  1.00  0.00    -0.319 N 
HETATM    7  H   UNL     1      41.487 -12.538   7.431  1.00  0.00     0.169 HD
HETATM    8  O   UNL     1      43.248 -11.931   4.853  1.00  0.00    -0.262 OA
BRANCH   6   9
HETATM    9  C   UNL     1      42.241 -14.246   6.500  1.00  0.00     0.035 A 
HETATM   10  C   UNL     1      41.608 -15.014   5.524  1.00  0.00     0.032 A 
HETATM   11  C   UNL     1      41.884 -16.382   5.398  1.00  0.00     0.032 A 
HETATM   12  C   UNL     1      42.791 -17.007   6.252  1.00  0.00     0.034 A 
HETATM   13  C   UNL     1      43.407 -16.243   7.248  1.00  0.00     0.032 A 
HETATM   14  C   UNL     1      43.140 -14.873   7.367  1.00  0.00     0.032 A 
BRANCH  12  15
HETATM   15  N   UNL     1      43.139 -18.372   6.174  1.00  0.00    -0.328 N 
HETATM   16  C   UNL     1      43.977 -18.975   5.253  1.00  0.00     0.218 C 
HETATM   17  C   UNL     1      44.138 -20.454   5.504  1.00  0.00     0.117 C 
HETATM   18  O   UNL     1      44.583 -18.429   4.338  1.00  0.00    -0.274 OA
HETATM   19  H   UNL     1      42.758 -18.966   6.899  1.00  0.00     0.169 HD
ENDBRANCH  12  15
ENDBRANCH   6   9
ENDBRANCH   1   5
BRANCH   2  20
HETATM   20  C   UNL     1      41.960  -9.193   8.564  1.00  0.00     0.159 C 
BRANCH  20  21
HETATM   21  C   UNL     1      42.813  -9.074   9.844  1.00  0.00     0.171 C 
BRANCH  21  22
HETATM   22  O   UNL     1      43.865 -10.050   9.788  1.00  0.00    -0.389 OA
HETATM   23  H   UNL     1      44.542  -9.746  10.418  1.00  0.00     0.210 HD
ENDBRANCH  21  22
BRANCH  21  24
HETATM   24  C   UNL     1      42.027  -9.221  11.118  1.00  0.00     0.000 A 
HETATM   25  C   UNL     1      42.296  -8.580  12.373  1.00  0.00     0.001 A 
HETATM   26  C   UNL     1      41.336  -9.020  13.293  1.00  0.00     0.044 A 
HETATM   27  C   UNL     1      43.280  -7.667  12.812  1.00  0.00     0.014 A 
HETATM   28  C   UNL     1      41.326  -8.578  14.627  1.00  0.00     0.030 A 
HETATM   29  N   UNL     1      40.511  -9.894  12.621  1.00  0.00    -0.360 N 
HETATM   30  C   UNL     1      42.317  -7.681  15.034  1.00  0.00     0.002 A 
HETATM   31  C   UNL     1      43.281  -7.229  14.142  1.00  0.00     0.001 A 
HETATM   32  C   UNL     1      39.366 -10.586  13.170  1.00  0.00     0.155 C 
HETATM   33  C   UNL     1      40.927 -10.036  11.324  1.00  0.00     0.101 A 
ENDBRANCH  21  24
ENDBRANCH  20  21
ENDBRANCH   2  20
TORSDOF 7
ENDMDL
MODEL 9
REMARK VINA RESULT:      -7.8      2.816     10.106
REMARK  7 active torsions:
REMARK  status: ('A' for Active; 'I' for Inactive)
REMARK       I    between atoms: C_2  and  N_3 
REMARK    1  A    between atoms: N_3  and  C_4 
REMARK    2  A    between atoms: C_7  and  N_8 
REMARK       I    between atoms: N_8  and  C_9 
REMARK    3  A    between atoms: C_9  and  C_10 
REMARK       I    between atoms: C_10  and  N_11 
REMARK    4  A    between atoms: N_11  and  C_12 
REMARK    5  A    between atoms: C_12  and  C_13 
REMARK    6  A    between atoms: C_13  and  O_14 
REMARK    7  A    between atoms: C_13  and  C_15 
ROOT
HETATM    1  C   UNL     1      44.267 -11.042   8.194  1.00  0.00     0.309 C 
HETATM    2  N   UNL     1      43.064 -10.391   8.182  1.00  0.00    -0.350 N 
HETATM    3  O   UNL     1      45.158 -10.909   9.023  1.00  0.00    -0.262 OA
HETATM    4  H   UNL     1      42.370 -10.713   7.511  1.00  0.00     0.163 HD
ENDROOT
BRANCH   1   5
HETATM    5  C   UNL     1      44.447 -12.028   7.018  1.00  0.00     0.313 C 
HETATM    6  N   UNL     1      43.358 -12.862   6.872  1.00  0.00    -0.319 N 
HETATM    7  H   UNL     1      42.596 -12.672   7.518  1.00  0.00     0.169 HD
HETATM    8  O   UNL     1      45.477 -11.980   6.359  1.00  0.00    -0.262 OA
BRANCH   6   9
HETATM    9  C   UNL     1      43.215 -13.936   5.978  1.00  0.00     0.035 A 
HETATM   10  C   UNL     1      42.946 -13.784   4.619  1.00  0.00     0.032 A 
HETATM   11  C   UNL     1      42.868 -14.900   3.774  1.00  0.00     0.032 A 
HETATM   12  C   UNL     1      43.050 -16.188   4.277  1.00  0.00     0.034 A 
HETATM   13  C   UNL     1      43.295 -16.342   5.645  1.00  0.00     0.032 A 
HETATM   14  C   UNL     1      43.384 -15.227   6.487  1.00  0.00     0.032 A 
BRANCH  12  15
HETATM   15  N   UNL     1      43.011 -17.357   3.489  1.00  0.00    -0.328 N 
HETATM   16  C   UNL     1      43.917 -18.403   3.491  1.00  0.00     0.218 C 
HETATM   17  C   UNL     1      43.527 -19.502   2.533  1.00  0.00     0.117 C 
HETATM   18  O   UNL     1      44.918 -18.512   4.189  1.00  0.00    -0.274 OA
HETATM   19  H   UNL     1      42.207 -17.452   2.882  1.00  0.00     0.169 HD
ENDBRANCH  12  15
ENDBRANCH   6   9
ENDBRANCH   1   5
BRANCH   2  20
HETATM   20  C   UNL     1      42.656  -9.423   9.184  1.00  0.00     0.159 C 
BRANCH  20  21
HETATM   21  C   UNL     1      43.007  -7.971   8.798  1.00  0.00     0.171 C 
BRANCH  21  22
HETATM   22  O   UNL     1      44.419  -7.887   8.555  1.00  0.00    -0.389 OA
HETATM   23  H   UNL     1      44.530  -7.210   7.864  1.00  0.00     0.210 HD
ENDBRANCH  21  22
BRANCH  21  24
HETATM   24  C   UNL     1      42.586  -6.949   9.818  1.00  0.00     0.000 A 
HETATM   25  C   UNL     1      42.727  -7.047  11.242  1.00  0.00     0.001 A 
HETATM   26  C   UNL     1      42.178  -5.890  11.807  1.00  0.00     0.044 A 
HETATM   27  C   UNL     1      43.268  -8.025  12.105  1.00  0.00     0.014 A 
HETATM   28  C   UNL     1      42.155  -5.678  13.196  1.00  0.00     0.030 A 
HETATM   29  N   UNL     1      41.723  -5.114  10.765  1.00  0.00    -0.360 N 
HETATM   30  C   UNL     1      42.690  -6.668  14.025  1.00  0.00     0.002 A 
HETATM   31  C   UNL     1      43.240  -7.826  13.490  1.00  0.00     0.001 A 
HETATM   32  C   UNL     1      41.091  -3.817  10.872  1.00  0.00     0.155 C 
HETATM   33  C   UNL     1      41.945  -5.747   9.571  1.00  0.00     0.101 A 
ENDBRANCH  21  24
ENDBRANCH  20  21
ENDBRANCH   2  20
TORSDOF 7
ENDMDL
MODEL 10
REMARK VINA RESULT:      -7.6      2.732      8.863
REMARK  7 active torsions:
REMARK  status: ('A' for Active; 'I' for Inactive)
REMARK       I    between atoms: C_2  and  N_3 
REMARK    1  A    between atoms: N_3  and  C_4 
REMARK    2  A    between atoms: C_7  and  N_8 
REMARK       I    between atoms: N_8  and  C_9 
REMARK    3  A    between atoms: C_9  and  C_10 
REMARK       I    between atoms: C_10  and  N_11 
REMARK    4  A    between atoms: N_11  and  C_12 
REMARK    5  A    between atoms: C_12  and  C_13 
REMARK    6  A    between atoms: C_13  and  O_14 
REMARK    7  A    between atoms: C_13  and  C_15 
ROOT
HETATM    1  C   UNL     1      41.018 -10.620   6.100  1.00  0.00     0.309 C 
HETATM    2  N   UNL     1      40.041 -10.792   7.042  1.00  0.00    -0.350 N 
HETATM    3  O   UNL     1      41.456  -9.552   5.692  1.00  0.00    -0.262 OA
HETATM    4  H   UNL     1      39.886 -11.738   7.381  1.00  0.00     0.163 HD
ENDROOT
BRANCH   1   5
HETATM    5  C   UNL     1      41.579 -11.949   5.545  1.00  0.00     0.313 C 
HETATM    6  N   UNL     1      41.572 -12.949   6.495  1.00  0.00    -0.319 N 
HETATM    7  H   UNL     1      41.162 -12.678   7.385  1.00  0.00     0.169 HD
HETATM    8  O   UNL     1      41.952 -11.992   4.381  1.00  0.00    -0.262 OA
BRANCH   6   9
HETATM    9  C   UNL     1      42.094 -14.248   6.375  1.00  0.00     0.035 A 
HETATM   10  C   UNL     1      43.431 -14.571   6.604  1.00  0.00     0.032 A 
HETATM   11  C   UNL     1      43.872 -15.899   6.517  1.00  0.00     0.032 A 
HETATM   12  C   UNL     1      42.985 -16.924   6.190  1.00  0.00     0.034 A 
HETATM   13  C   UNL     1      41.650 -16.597   5.935  1.00  0.00     0.032 A 
HETATM   14  C   UNL     1      41.206 -15.272   6.033  1.00  0.00     0.032 A 
BRANCH  12  15
HETATM   15  N   UNL     1      43.347 -18.285   6.105  1.00  0.00    -0.328 N 
HETATM   16  C   UNL     1      43.989 -18.921   5.058  1.00  0.00     0.218 C 
HETATM   17  C   UNL     1      44.240 -20.382   5.340  1.00  0.00     0.117 C 
HETATM   18  O   UNL     1      44.375 -18.414   4.011  1.00  0.00    -0.274 OA
HETATM   19  H   UNL     1      43.142 -18.846   6.922  1.00  0.00     0.169 HD
ENDBRANCH  12  15
ENDBRANCH   6   9
ENDBRANCH   1   5
BRANCH   2  20
HETATM   20  C   UNL     1      39.365  -9.698   7.717  1.00  0.00     0.159 C 
BRANCH  20  21
HETATM   21  C   UNL     1      39.374  -9.839   9.253  1.00  0.00     0.171 C 
BRANCH  21  22
HETATM   22  O   UNL     1      38.284  -9.076   9.792  1.00  0.00    -0.389 OA
HETATM   23  H   UNL     1      38.563  -8.144   9.742  1.00  0.00     0.210 HD
ENDBRANCH  21  22
BRANCH  21  24
HETATM   24  C   UNL     1      40.672  -9.432   9.897  1.00  0.00     0.000 A 
HETATM   25  C   UNL     1      40.955  -9.380  11.302  1.00  0.00     0.001 A 
HETATM   26  C   UNL     1      42.269  -8.921  11.456  1.00  0.00     0.044 A 
HETATM   27  C   UNL     1      40.206  -9.677  12.461  1.00  0.00     0.014 A 
HETATM   28  C   UNL     1      42.855  -8.753  12.723  1.00  0.00     0.030 A 
HETATM   29  N   UNL     1      42.768  -8.704  10.191  1.00  0.00    -0.360 N 
HETATM   30  C   UNL     1      42.086  -9.048  13.851  1.00  0.00     0.002 A 
HETATM   31  C   UNL     1      40.780  -9.504  13.726  1.00  0.00     0.001 A 
HETATM   32  C   UNL     1      44.096  -8.239   9.860  1.00  0.00     0.155 C 
HETATM   33  C   UNL     1      41.813  -8.988   9.251  1.00  0.00     0.101 A 
ENDBRANCH  21  24
ENDBRANCH  20  21
ENDBRANCH   2  20
TORSDOF 7
ENDMDL
