MODEL 1
REMARK VINA RESULT:      -9.1      0.000      0.000
REMARK  5 active torsions:
REMARK  status: ('A' for Active; 'I' for Inactive)
REMARK    1  A    between atoms: C_2  and  C_3 
REMARK    2  A    between atoms: C_6  and  N_7 
REMARK       I    between atoms: N_7  and  C_8 
REMARK       I    between atoms: C_8  and  N_9 
REMARK    3  A    between atoms: N_9  and  C_10 
REMARK    4  A    between atoms: N_20  and  N_21 
REMARK       I    between atoms: N_21  and  C_22 
REMARK    5  A    between atoms: C_22  and  C_23 
ROOT
HETATM    1  C   UNL     1      41.326 -13.047   4.152  1.00  0.00    -0.010 A 
HETATM    2  C   UNL     1      41.374 -13.397   5.504  1.00  0.00     0.016 A 
HETATM    3  C   UNL     1      42.441 -12.964   6.301  1.00  0.00     0.030 A 
HETATM    4  C   UNL     1      43.463 -12.184   5.747  1.00  0.00     0.036 A 
HETATM    5  C   UNL     1      43.422 -11.866   4.385  1.00  0.00     0.030 A 
HETATM    6  C   UNL     1      42.343 -12.268   3.596  1.00  0.00     0.016 A 
ENDROOT
BRANCH   1   7
HETATM    7  C   UNL     1      40.195 -13.489   3.295  1.00  0.00     0.061 C 
HETATM    8  C   UNL     1      39.192 -12.431   2.891  1.00  0.00     0.073 C 
HETATM    9  N   UNL     1      40.007 -14.689   2.828  1.00  0.00    -0.176 NA
BRANCH   9  10
HETATM   10  N   UNL     1      40.820 -15.702   3.240  1.00  0.00    -0.243 N 
HETATM   11  C   UNL     1      41.890 -16.094   2.448  1.00  0.00     0.273 C 
HETATM   12  O   UNL     1      42.177 -15.610   1.356  1.00  0.00    -0.266 OA
HETATM   13  H   UNL     1      40.536 -16.241   4.048  1.00  0.00     0.192 HD
BRANCH  11  14
HETATM   14  C   UNL     1      42.739 -17.185   2.990  1.00  0.00     0.051 A 
HETATM   15  C   UNL     1      43.412 -17.086   4.202  1.00  0.00     0.133 A 
HETATM   16  N   UNL     1      44.204 -18.060   4.716  1.00  0.00    -0.272 NA
HETATM   17  C   UNL     1      44.351 -19.176   3.970  1.00  0.00     0.116 A 
HETATM   18  C   UNL     1      43.746 -19.364   2.737  1.00  0.00     0.020 A 
HETATM   19  C   UNL     1      42.931 -18.349   2.241  1.00  0.00     0.020 A 
ENDBRANCH  11  14
ENDBRANCH   9  10
ENDBRANCH   1   7
BRANCH   4  20
HETATM   20  N   UNL     1      44.583 -11.743   6.468  1.00  0.00    -0.309 N 
HETATM   21  C   UNL     1      44.731 -11.208   7.719  1.00  0.00     0.325 C 
HETATM   22  N   UNL     1      43.604 -10.678   8.291  1.00  0.00    -0.309 N 
HETATM   23  O   UNL     1      45.870 -11.146   8.173  1.00  0.00    -0.247 OA
HETATM   24  H   UNL     1      42.788 -10.658   7.700  1.00  0.00     0.170 HD
HETATM   25  H   UNL     1      45.480 -11.794   5.997  1.00  0.00     0.170 HD
BRANCH  22  26
HETATM   26  C   UNL     1      43.515  -9.935   9.486  1.00  0.00     0.036 A 
HETATM   27  C   UNL     1      43.371  -8.545   9.537  1.00  0.00     0.031 A 
HETATM   28  C   UNL     1      43.229  -7.888  10.765  1.00  0.00     0.026 A 
HETATM   29  C   UNL     1      43.244  -8.617  11.950  1.00  0.00     0.034 A 
HETATM   30 CL   UNL     1      43.055  -7.810  13.457  1.00  0.00    -0.084 Cl
HETATM   31  C   UNL     1      43.408  -9.998  11.918  1.00  0.00     0.026 A 
HETATM   32  C   UNL     1      43.543 -10.654  10.690  1.00  0.00     0.031 A 
ENDBRANCH  22  26
ENDBRANCH   4  20
TORSDOF 5
ENDMDL
MODEL 2
REMARK VINA RESULT:      -8.5      5.161      8.923
REMARK  5 active torsions:
REMARK  status: ('A' for Active; 'I' for Inactive)
REMARK    1  A    between atoms: C_2  and  C_3 
REMARK    2  A    between atoms: C_6  and  N_7 
REMARK       I    between atoms: N_7  and  C_8 
REMARK       I    between atoms: C_8  and  N_9 
REMARK    3  A    between atoms: N_9  and  C_10 
REMARK    4  A    between atoms: N_20  and  N_21 
REMARK       I    between atoms: N_21  and  C_22 
REMARK    5  A    between atoms: C_22  and  C_23 
ROOT
HETATM    1  C   UNL     1      41.985 -14.286   3.745  1.00  0.00    -0.010 A 
HETATM    2  C   UNL     1      42.571 -13.987   2.511  1.00  0.00     0.016 A 
HETATM    3  C   UNL     1      41.858 -14.209   1.327  1.00  0.00     0.030 A 
HETATM    4  C   UNL     1      40.561 -14.732   1.372  1.00  0.00     0.036 A 
HETATM    5  C   UNL     1      39.995 -15.058   2.610  1.00  0.00     0.030 A 
HETATM    6  C   UNL     1      40.689 -14.807   3.794  1.00  0.00     0.016 A 
ENDROOT
BRANCH   1   7
HETATM    7  C   UNL     1      42.723 -14.045   5.012  1.00  0.00     0.061 C 
HETATM    8  C   UNL     1      42.611 -12.661   5.614  1.00  0.00     0.073 C 
HETATM    9  N   UNL     1      43.422 -14.921   5.672  1.00  0.00    -0.176 NA
BRANCH   9  10
HETATM   10  N   UNL     1      43.641 -16.151   5.127  1.00  0.00    -0.243 N 
HETATM   11  C   UNL     1      43.419 -17.291   5.887  1.00  0.00     0.273 C 
HETATM   12  O   UNL     1      43.047 -17.302   7.057  1.00  0.00    -0.266 OA
HETATM   13  H   UNL     1      44.100 -16.198   4.227  1.00  0.00     0.192 HD
BRANCH  11  14
HETATM   14  C   UNL     1      43.654 -18.588   5.203  1.00  0.00     0.051 A 
HETATM   15  C   UNL     1      43.826 -18.695   3.828  1.00  0.00     0.133 A 
HETATM   16  N   UNL     1      44.030 -19.866   3.174  1.00  0.00    -0.272 NA
HETATM   17  C   UNL     1      44.037 -20.987   3.928  1.00  0.00     0.116 A 
HETATM   18  C   UNL     1      43.849 -20.992   5.301  1.00  0.00     0.020 A 
HETATM   19  C   UNL     1      43.652 -19.772   5.945  1.00  0.00     0.020 A 
ENDBRANCH  11  14
ENDBRANCH   9  10
ENDBRANCH   1   7
BRANCH   4  20
HETATM   20  N   UNL     1      39.797 -15.019   0.231  1.00  0.00    -0.309 N 
HETATM   21  C   UNL     1      39.516 -14.304  -0.902  1.00  0.00     0.325 C 
HETATM   22  N   UNL     1      39.706 -12.949  -0.829  1.00  0.00    -0.309 N 
HETATM   23  O   UNL     1      39.015 -14.914  -1.843  1.00  0.00    -0.247 OA
HETATM   24  H   UNL     1      39.955 -12.596   0.081  1.00  0.00     0.170 HD
HETATM   25  H   UNL     1      39.324 -15.915   0.208  1.00  0.00     0.170 HD
BRANCH  22  26
HETATM   26  C   UNL     1      39.346 -11.977  -1.786  1.00  0.00     0.036 A 
HETATM   27  C   UNL     1      38.030 -11.595  -2.060  1.00  0.00     0.031 A 
HETATM   28  C   UNL     1      37.761 -10.578  -2.984  1.00  0.00     0.026 A 
HETATM   29  C   UNL     1      38.807  -9.948  -3.650  1.00  0.00     0.034 A 
HETATM   30 CL   UNL     1      38.476  -8.689  -4.774  1.00  0.00    -0.084 Cl
HETATM   31  C   UNL     1      40.122 -10.331  -3.405  1.00  0.00     0.026 A 
HETATM   32  C   UNL     1      40.390 -11.342  -2.476  1.00  0.00     0.031 A 
ENDBRANCH  22  26
ENDBRANCH   4  20
TORSDOF 5
ENDMDL
MODEL 3
REMARK VINA RESULT:      -8.5      3.814      9.698
REMARK  5 active torsions:
REMARK  status: ('A' for Active; 'I' for Inactive)
REMARK    1  A    between atoms: C_2  and  C_3 
REMARK    2  A    between atoms: C_6  and  N_7 
REMARK       I    between atoms: N_7  and  C_8 
REMARK       I    between atoms: C_8  and  N_9 
REMARK    3  A    between atoms: N_9  and  C_10 
REMARK    4  A    between atoms: N_20  and  N_21 
REMARK       I    between atoms: N_21  and  C_22 
REMARK    5  A    between atoms: C_22  and  C_23 
ROOT
HETATM    1  C   UNL     1      44.239 -11.295   7.132  1.00  0.00    -0.010 A 
HETATM    2  C   UNL     1      43.232 -10.699   6.367  1.00  0.00     0.016 A 
HETATM    3  C   UNL     1      42.211 -11.486   5.820  1.00  0.00     0.030 A 
HETATM    4  C   UNL     1      42.196 -12.869   6.034  1.00  0.00     0.036 A 
HETATM    5  C   UNL     1      43.225 -13.460   6.774  1.00  0.00     0.030 A 
HETATM    6  C   UNL     1      44.226 -12.676   7.348  1.00  0.00     0.016 A 
ENDROOT
BRANCH   1   7
HETATM    7  C   UNL     1      45.324 -10.473   7.729  1.00  0.00     0.061 C 
HETATM    8  C   UNL     1      46.710 -10.647   7.147  1.00  0.00     0.073 C 
HETATM    9  N   UNL     1      45.187  -9.591   8.675  1.00  0.00    -0.176 NA
BRANCH   9  10
HETATM   10  N   UNL     1      43.985  -9.466   9.305  1.00  0.00    -0.243 N 
HETATM   11  C   UNL     1      43.769 -10.113  10.514  1.00  0.00     0.273 C 
HETATM   12  O   UNL     1      44.582 -10.834  11.087  1.00  0.00    -0.266 OA
HETATM   13  H   UNL     1      43.228  -9.021   8.802  1.00  0.00     0.192 HD
BRANCH  11  14
HETATM   14  C   UNL     1      42.442  -9.896  11.143  1.00  0.00     0.051 A 
HETATM   15  C   UNL     1      42.186 -10.175  12.480  1.00  0.00     0.133 A 
HETATM   16  N   UNL     1      40.982 -10.000  13.079  1.00  0.00    -0.272 NA
HETATM   17  C   UNL     1      39.977  -9.547  12.296  1.00  0.00     0.116 A 
HETATM   18  C   UNL     1      40.121  -9.263  10.948  1.00  0.00     0.020 A 
HETATM   19  C   UNL     1      41.373  -9.445  10.365  1.00  0.00     0.020 A 
ENDBRANCH  11  14
ENDBRANCH   9  10
ENDBRANCH   1   7
BRANCH   4  20
HETATM   20  N   UNL     1      41.230 -13.729   5.490  1.00  0.00    -0.309 N 
HETATM   21  C   UNL     1      41.293 -15.006   5.003  1.00  0.00     0.325 C 
HETATM   22  N   UNL     1      42.536 -15.463   4.649  1.00  0.00    -0.309 N 
HETATM   23  O   UNL     1      40.229 -15.591   4.817  1.00  0.00    -0.247 OA
HETATM   24  H   UNL     1      43.277 -14.782   4.704  1.00  0.00     0.170 HD
HETATM   25  H   UNL     1      40.288 -13.364   5.403  1.00  0.00     0.170 HD
BRANCH  22  26
HETATM   26  C   UNL     1      42.854 -16.664   3.983  1.00  0.00     0.036 A 
HETATM   27  C   UNL     1      42.424 -16.982   2.691  1.00  0.00     0.031 A 
HETATM   28  C   UNL     1      42.834 -18.172   2.077  1.00  0.00     0.026 A 
HETATM   29  C   UNL     1      43.665 -19.056   2.758  1.00  0.00     0.034 A 
HETATM   30 CL   UNL     1      44.180 -20.510   1.996  1.00  0.00    -0.084 Cl
HETATM   31  C   UNL     1      44.085 -18.764   4.052  1.00  0.00     0.026 A 
HETATM   32  C   UNL     1      43.680 -17.572   4.662  1.00  0.00     0.031 A 
ENDBRANCH  22  26
ENDBRANCH   4  20
TORSDOF 5
ENDMDL
MODEL 4
REMARK VINA RESULT:      -8.5      4.797      7.696
REMARK  5 active torsions:
REMARK  status: ('A' for Active; 'I' for Inactive)
REMARK    1  A    between atoms: C_2  and  C_3 
REMARK    2  A    between atoms: C_6  and  N_7 
REMARK       I    between atoms: N_7  and  C_8 
REMARK       I    between atoms: C_8  and  N_9 
REMARK    3  A    between atoms: N_9  and  C_10 
REMARK    4  A    between atoms: N_20  and  N_21 
REMARK       I    between atoms: N_21  and  C_22 
REMARK    5  A    between atoms: C_22  and  C_23 
ROOT
HETATM    1  C   UNL     1      39.903 -11.133   5.059  1.00  0.00    -0.010 A 
HETATM    2  C   UNL     1      41.269 -10.865   4.931  1.00  0.00     0.016 A 
HETATM    3  C   UNL     1      42.210 -11.795   5.390  1.00  0.00     0.030 A 
HETATM    4  C   UNL     1      41.788 -12.992   5.980  1.00  0.00     0.036 A 
HETATM    5  C   UNL     1      40.419 -13.237   6.132  1.00  0.00     0.030 A 
HETATM    6  C   UNL     1      39.478 -12.328   5.647  1.00  0.00     0.016 A 
ENDROOT
BRANCH   1   7
HETATM    7  C   UNL     1      38.891 -10.162   4.567  1.00  0.00     0.061 C 
HETATM    8  C   UNL     1      38.567  -8.996   5.475  1.00  0.00     0.073 C 
HETATM    9  N   UNL     1      38.287 -10.199   3.415  1.00  0.00    -0.176 NA
BRANCH   9  10
HETATM   10  N   UNL     1      38.462 -11.279   2.602  1.00  0.00    -0.243 N 
HETATM   11  C   UNL     1      39.282 -11.175   1.486  1.00  0.00     0.273 C 
HETATM   12  O   UNL     1      39.874 -10.159   1.134  1.00  0.00    -0.266 OA
HETATM   13  H   UNL     1      37.875 -12.088   2.752  1.00  0.00     0.192 HD
BRANCH  11  14
HETATM   14  C   UNL     1      39.439 -12.408   0.674  1.00  0.00     0.051 A 
HETATM   15  C   UNL     1      38.917 -12.540  -0.607  1.00  0.00     0.133 A 
HETATM   16  N   UNL     1      39.034 -13.657  -1.367  1.00  0.00    -0.272 NA
HETATM   17  C   UNL     1      39.681 -14.704  -0.808  1.00  0.00     0.116 A 
HETATM   18  C   UNL     1      40.215 -14.685   0.470  1.00  0.00     0.020 A 
HETATM   19  C   UNL     1      40.088 -13.519   1.221  1.00  0.00     0.020 A 
ENDBRANCH  11  14
ENDBRANCH   9  10
ENDBRANCH   1   7
BRANCH   4  20
HETATM   20  N   UNL     1      42.666 -13.956   6.498  1.00  0.00    -0.309 N 
HETATM   21  C   UNL     1      43.284 -15.044   5.943  1.00  0.00     0.325 C 
HETATM   22  N   UNL     1      42.740 -15.525   4.781  1.00  0.00    -0.309 N 
HETATM   23  O   UNL     1      44.194 -15.562   6.584  1.00  0.00    -0.247 OA
HETATM   24  H   UNL     1      41.883 -15.082   4.489  1.00  0.00     0.170 HD
HETATM   25  H   UNL     1      42.901 -13.881   7.481  1.00  0.00     0.170 HD
BRANCH  22  26
HETATM   26  C   UNL     1      43.079 -16.712   4.099  1.00  0.00     0.036 A 
HETATM   27  C   UNL     1      43.933 -17.694   4.611  1.00  0.00     0.031 A 
HETATM   28  C   UNL     1      44.173 -18.873   3.895  1.00  0.00     0.026 A 
HETATM   29  C   UNL     1      43.570 -19.069   2.656  1.00  0.00     0.034 A 
HETATM   30 CL   UNL     1      43.853 -20.525   1.784  1.00  0.00    -0.084 Cl
HETATM   31  C   UNL     1      42.735 -18.093   2.123  1.00  0.00     0.026 A 
HETATM   32  C   UNL     1      42.490 -16.918   2.843  1.00  0.00     0.031 A 
ENDBRANCH  22  26
ENDBRANCH   4  20
TORSDOF 5
ENDMDL
MODEL 5
REMARK VINA RESULT:      -8.3      4.128      8.750
REMARK  5 active torsions:
REMARK  status: ('A' for Active; 'I' for Inactive)
REMARK    1  A    between atoms: C_2  and  C_3 
REMARK    2  A    between atoms: C_6  and  N_7 
REMARK       I    between atoms: N_7  and  C_8 
REMARK       I    between atoms: C_8  and  N_9 
REMARK    3  A    between atoms: N_9  and  C_10 
REMARK    4  A    between atoms: N_20  and  N_21 
REMARK       I    between atoms: N_21  and  C_22 
REMARK    5  A    between atoms: C_22  and  C_23 
ROOT
HETATM    1  C   UNL     1      42.803 -16.874   4.143  1.00  0.00    -0.010 A 
HETATM    2  C   UNL     1      43.294 -16.842   2.835  1.00  0.00     0.016 A 
HETATM    3  C   UNL     1      42.464 -16.424   1.787  1.00  0.00     0.030 A 
HETATM    4  C   UNL     1      41.143 -16.041   2.044  1.00  0.00     0.036 A 
HETATM    5  C   UNL     1      40.651 -16.107   3.352  1.00  0.00     0.030 A 
HETATM    6  C   UNL     1      41.485 -16.492   4.404  1.00  0.00     0.016 A 
ENDROOT
BRANCH   1   7
HETATM    7  C   UNL     1      43.674 -17.304   5.268  1.00  0.00     0.061 C 
HETATM    8  C   UNL     1      43.829 -18.794   5.480  1.00  0.00     0.073 C 
HETATM    9  N   UNL     1      44.345 -16.522   6.062  1.00  0.00    -0.176 NA
BRANCH   9  10
HETATM   10  N   UNL     1      44.165 -15.173   5.983  1.00  0.00    -0.243 N 
HETATM   11  C   UNL     1      43.398 -14.524   6.941  1.00  0.00     0.273 C 
HETATM   12  O   UNL     1      42.825 -15.069   7.880  1.00  0.00    -0.266 OA
HETATM   13  H   UNL     1      44.476 -14.699   5.146  1.00  0.00     0.192 HD
BRANCH  11  14
HETATM   14  C   UNL     1      43.280 -13.051   6.793  1.00  0.00     0.051 A 
HETATM   15  C   UNL     1      44.187 -12.161   7.357  1.00  0.00     0.133 A 
HETATM   16  N   UNL     1      44.099 -10.812   7.250  1.00  0.00    -0.272 NA
HETATM   17  C   UNL     1      43.037 -10.327   6.568  1.00  0.00     0.116 A 
HETATM   18  C   UNL     1      42.064 -11.126   5.991  1.00  0.00     0.020 A 
HETATM   19  C   UNL     1      42.188 -12.509   6.110  1.00  0.00     0.020 A 
ENDBRANCH  11  14
ENDBRANCH   9  10
ENDBRANCH   1   7
BRANCH   4  20
HETATM   20  N   UNL     1      40.239 -15.647   1.046  1.00  0.00    -0.309 N 
HETATM   21  C   UNL     1      40.230 -14.604   0.160  1.00  0.00     0.325 C 
HETATM   22  N   UNL     1      41.038 -13.541   0.464  1.00  0.00    -0.309 N 
HETATM   23  O   UNL     1      39.421 -14.657  -0.763  1.00  0.00    -0.247 OA
HETATM   24  H   UNL     1      41.502 -13.592   1.357  1.00  0.00     0.170 HD
HETATM   25  H   UNL     1      39.400 -16.208   0.940  1.00  0.00     0.170 HD
BRANCH  22  26
HETATM   26  C   UNL     1      41.096 -12.290  -0.186  1.00  0.00     0.036 A 
HETATM   27  C   UNL     1      41.250 -11.069   0.476  1.00  0.00     0.031 A 
HETATM   28  C   UNL     1      41.357  -9.875  -0.248  1.00  0.00     0.026 A 
HETATM   29  C   UNL     1      41.299  -9.896  -1.638  1.00  0.00     0.034 A 
HETATM   30 CL   UNL     1      41.447  -8.431  -2.526  1.00  0.00    -0.084 Cl
HETATM   31  C   UNL     1      41.124 -11.101  -2.311  1.00  0.00     0.026 A 
HETATM   32  C   UNL     1      41.024 -12.294  -1.587  1.00  0.00     0.031 A 
ENDBRANCH  22  26
ENDBRANCH   4  20
TORSDOF 5
ENDMDL
MODEL 6
REMARK VINA RESULT:      -8.2      2.392      4.154
REMARK  5 active torsions:
REMARK  status: ('A' for Active; 'I' for Inactive)
REMARK    1  A    between atoms: C_2  and  C_3 
REMARK    2  A    between atoms: C_6  and  N_7 
REMARK       I    between atoms: N_7  and  C_8 
REMARK       I    between atoms: C_8  and  N_9 
REMARK    3  A    between atoms: N_9  and  C_10 
REMARK    4  A    between atoms: N_20  and  N_21 
REMARK       I    between atoms: N_21  and  C_22 
REMARK    5  A    between atoms: C_22  and  C_23 
ROOT
HETATM    1  C   UNL     1      41.156 -14.167   5.199  1.00  0.00    -0.010 A 
HETATM    2  C   UNL     1      40.102 -13.537   5.867  1.00  0.00     0.016 A 
HETATM    3  C   UNL     1      40.165 -12.164   6.134  1.00  0.00     0.030 A 
HETATM    4  C   UNL     1      41.282 -11.419   5.738  1.00  0.00     0.036 A 
HETATM    5  C   UNL     1      42.346 -12.065   5.099  1.00  0.00     0.030 A 
HETATM    6  C   UNL     1      42.272 -13.427   4.801  1.00  0.00     0.016 A 
ENDROOT
BRANCH   1   7
HETATM    7  C   UNL     1      41.100 -15.621   4.897  1.00  0.00     0.061 C 
HETATM    8  C   UNL     1      41.770 -16.550   5.886  1.00  0.00     0.073 C 
HETATM    9  N   UNL     1      40.497 -16.173   3.885  1.00  0.00    -0.176 NA
BRANCH   9  10
HETATM   10  N   UNL     1      39.965 -15.382   2.910  1.00  0.00    -0.243 N 
HETATM   11  C   UNL     1      40.679 -15.155   1.742  1.00  0.00     0.273 C 
HETATM   12  O   UNL     1      41.798 -15.597   1.498  1.00  0.00    -0.266 OA
HETATM   13  H   UNL     1      39.124 -14.863   3.124  1.00  0.00     0.192 HD
BRANCH  11  14
HETATM   14  C   UNL     1      40.011 -14.306   0.723  1.00  0.00     0.051 A 
HETATM   15  C   UNL     1      39.752 -14.743  -0.571  1.00  0.00     0.133 A 
HETATM   16  N   UNL     1      39.155 -13.987  -1.526  1.00  0.00    -0.272 NA
HETATM   17  C   UNL     1      38.823 -12.724  -1.178  1.00  0.00     0.116 A 
HETATM   18  C   UNL     1      39.061 -12.184   0.076  1.00  0.00     0.020 A 
HETATM   19  C   UNL     1      39.666 -12.989   1.037  1.00  0.00     0.020 A 
ENDBRANCH  11  14
ENDBRANCH   9  10
ENDBRANCH   1   7
BRANCH   4  20
HETATM   20  N   UNL     1      41.438 -10.050   6.002  1.00  0.00    -0.309 N 
HETATM   21  C   UNL     1      41.971  -9.363   7.058  1.00  0.00     0.325 C 
HETATM   22  N   UNL     1      42.092 -10.053   8.235  1.00  0.00    -0.309 N 
HETATM   23  O   UNL     1      42.190  -8.165   6.896  1.00  0.00    -0.247 OA
HETATM   24  H   UNL     1      41.697 -10.980   8.235  1.00  0.00     0.170 HD
HETATM   25  H   UNL     1      41.077  -9.406   5.307  1.00  0.00     0.170 HD
BRANCH  22  26
HETATM   26  C   UNL     1      42.457  -9.542   9.498  1.00  0.00     0.036 A 
HETATM   27  C   UNL     1      43.764  -9.535   9.994  1.00  0.00     0.031 A 
HETATM   28  C   UNL     1      44.052  -8.955  11.235  1.00  0.00     0.026 A 
HETATM   29  C   UNL     1      43.031  -8.391  11.993  1.00  0.00     0.034 A 
HETATM   30 CL   UNL     1      43.388  -7.666  13.511  1.00  0.00    -0.084 Cl
HETATM   31  C   UNL     1      41.721  -8.409  11.524  1.00  0.00     0.026 A 
HETATM   32  C   UNL     1      41.436  -8.982  10.281  1.00  0.00     0.031 A 
ENDBRANCH  22  26
ENDBRANCH   4  20
TORSDOF 5
ENDMDL
MODEL 7
REMARK VINA RESULT:      -8.2      4.860      8.003
REMARK  5 active torsions:
REMARK  status: ('A' for Active; 'I' for Inactive)
REMARK    1  A    between atoms: C_2  and  C_3 
REMARK    2  A    between atoms: C_6  and  N_7 
REMARK       I    between atoms: N_7  and  C_8 
REMARK       I    between atoms: C_8  and  N_9 
REMARK    3  A    between atoms: N_9  and  C_10 
REMARK    4  A    between atoms: N_20  and  N_21 
REMARK       I    between atoms: N_21  and  C_22 
REMARK    5  A    between atoms: C_22  and  C_23 
ROOT
HETATM    1  C   UNL     1      41.930 -14.237   4.093  1.00  0.00    -0.010 A 
HETATM    2  C   UNL     1      42.926 -14.247   3.113  1.00  0.00     0.016 A 
HETATM    3  C   UNL     1      42.581 -14.099   1.764  1.00  0.00     0.030 A 
HETATM    4  C   UNL     1      41.240 -13.945   1.392  1.00  0.00     0.036 A 
HETATM    5  C   UNL     1      40.248 -13.969   2.378  1.00  0.00     0.030 A 
HETATM    6  C   UNL     1      40.590 -14.082   3.726  1.00  0.00     0.016 A 
ENDROOT
BRANCH   1   7
HETATM    7  C   UNL     1      42.280 -14.381   5.530  1.00  0.00     0.061 C 
HETATM    8  C   UNL     1      42.325 -13.111   6.351  1.00  0.00     0.073 C 
HETATM    9  N   UNL     1      42.512 -15.497   6.157  1.00  0.00    -0.176 NA
BRANCH   9  10
HETATM   10  N   UNL     1      42.586 -16.660   5.448  1.00  0.00    -0.243 N 
HETATM   11  C   UNL     1      43.823 -17.235   5.195  1.00  0.00     0.273 C 
HETATM   12  O   UNL     1      44.905 -16.772   5.544  1.00  0.00    -0.266 OA
HETATM   13  H   UNL     1      41.744 -16.997   5.000  1.00  0.00     0.192 HD
BRANCH  11  14
HETATM   14  C   UNL     1      43.806 -18.516   4.443  1.00  0.00     0.051 A 
HETATM   15  C   UNL     1      44.066 -19.744   5.038  1.00  0.00     0.133 A 
HETATM   16  N   UNL     1      44.070 -20.927   4.375  1.00  0.00    -0.272 NA
HETATM   17  C   UNL     1      43.826 -20.877   3.047  1.00  0.00     0.116 A 
HETATM   18  C   UNL     1      43.581 -19.703   2.353  1.00  0.00     0.020 A 
HETATM   19  C   UNL     1      43.574 -18.505   3.065  1.00  0.00     0.020 A 
ENDBRANCH  11  14
ENDBRANCH   9  10
ENDBRANCH   1   7
BRANCH   4  20
HETATM   20  N   UNL     1      40.810 -13.830   0.062  1.00  0.00    -0.309 N 
HETATM   21  C   UNL     1      40.812 -12.790  -0.829  1.00  0.00     0.325 C 
HETATM   22  N   UNL     1      40.933 -11.534  -0.297  1.00  0.00    -0.309 N 
HETATM   23  O   UNL     1      40.593 -13.058  -2.007  1.00  0.00    -0.247 OA
HETATM   24  H   UNL     1      40.925 -11.488   0.710  1.00  0.00     0.170 HD
HETATM   25  H   UNL     1      40.388 -14.652  -0.356  1.00  0.00     0.170 HD
BRANCH  22  26
HETATM   26  C   UNL     1      40.805 -10.299  -0.967  1.00  0.00     0.036 A 
HETATM   27  C   UNL     1      41.879  -9.585  -1.507  1.00  0.00     0.031 A 
HETATM   28  C   UNL     1      41.660  -8.395  -2.210  1.00  0.00     0.026 A 
HETATM   29  C   UNL     1      40.367  -7.905  -2.365  1.00  0.00     0.034 A 
HETATM   30 CL   UNL     1      40.099  -6.450  -3.242  1.00  0.00    -0.084 Cl
HETATM   31  C   UNL     1      39.290  -8.593  -1.815  1.00  0.00     0.026 A 
HETATM   32  C   UNL     1      39.509  -9.786  -1.119  1.00  0.00     0.031 A 
ENDBRANCH  22  26
ENDBRANCH   4  20
TORSDOF 5
ENDMDL
MODEL 8
REMARK VINA RESULT:      -8.1      5.355      9.877
REMARK  5 active torsions:
REMARK  status: ('A' for Active; 'I' for Inactive)
REMARK    1  A    between atoms: C_2  and  C_3 
REMARK    2  A    between atoms: C_6  and  N_7 
REMARK       I    between atoms: N_7  and  C_8 
REMARK       I    between atoms: C_8  and  N_9 
REMARK    3  A    between atoms: N_9  and  C_10 
REMARK    4  A    between atoms: N_20  and  N_21 
REMARK       I    between atoms: N_21  and  C_22 
REMARK    5  A    between atoms: C_22  and  C_23 
ROOT
HETATM    1  C   UNL     1      41.710 -15.249   3.431  1.00  0.00    -0.010 A 
HETATM    2  C   UNL     1      42.335 -14.788   2.268  1.00  0.00     0.016 A 
HETATM    3  C   UNL     1      41.637 -14.785   1.054  1.00  0.00     0.030 A 
HETATM    4  C   UNL     1      40.317 -15.246   0.998  1.00  0.00     0.036 A 
HETATM    5  C   UNL     1      39.711 -15.735   2.161  1.00  0.00     0.030 A 
HETATM    6  C   UNL     1      40.391 -15.708   3.379  1.00  0.00     0.016 A 
ENDROOT
BRANCH   1   7
HETATM    7  C   UNL     1      42.432 -15.248   4.730  1.00  0.00     0.061 C 
HETATM    8  C   UNL     1      43.218 -16.493   5.074  1.00  0.00     0.073 C 
HETATM    9  N   UNL     1      42.483 -14.263   5.579  1.00  0.00    -0.176 NA
BRANCH   9  10
HETATM   10  N   UNL     1      41.714 -13.158   5.370  1.00  0.00    -0.243 N 
HETATM   11  C   UNL     1      40.437 -13.094   5.913  1.00  0.00     0.273 C 
HETATM   12  O   UNL     1      39.903 -13.980   6.573  1.00  0.00    -0.266 OA
HETATM   13  H   UNL     1      42.038 -12.471   4.702  1.00  0.00     0.192 HD
BRANCH  11  14
HETATM   14  C   UNL     1      39.683 -11.840   5.660  1.00  0.00     0.051 A 
HETATM   15  C   UNL     1      39.149 -11.062   6.680  1.00  0.00     0.133 A 
HETATM   16  N   UNL     1      38.445  -9.920   6.479  1.00  0.00    -0.272 NA
HETATM   17  C   UNL     1      38.243  -9.552   5.195  1.00  0.00     0.116 A 
HETATM   18  C   UNL     1      38.709 -10.271   4.106  1.00  0.00     0.020 A 
HETATM   19  C   UNL     1      39.437 -11.434   4.345  1.00  0.00     0.020 A 
ENDBRANCH  11  14
ENDBRANCH   9  10
ENDBRANCH   1   7
BRANCH   4  20
HETATM   20  N   UNL     1      39.565 -15.311  -0.184  1.00  0.00    -0.309 N 
HETATM   21  C   UNL     1      39.438 -14.464  -1.252  1.00  0.00     0.325 C 
HETATM   22  N   UNL     1      39.823 -13.165  -1.048  1.00  0.00    -0.309 N 
HETATM   23  O   UNL     1      38.889 -14.905  -2.258  1.00  0.00    -0.247 OA
HETATM   24  H   UNL     1      40.086 -12.936  -0.102  1.00  0.00     0.170 HD
HETATM   25  H   UNL     1      38.965 -16.120  -0.303  1.00  0.00     0.170 HD
BRANCH  22  26
HETATM   26  C   UNL     1      39.649 -12.069  -1.918  1.00  0.00     0.036 A 
HETATM   27  C   UNL     1      38.420 -11.453  -2.168  1.00  0.00     0.031 A 
HETATM   28  C   UNL     1      38.342 -10.331  -3.002  1.00  0.00     0.026 A 
HETATM   29  C   UNL     1      39.493  -9.827  -3.600  1.00  0.00     0.034 A 
HETATM   30 CL   UNL     1      39.398  -8.439  -4.611  1.00  0.00    -0.084 Cl
HETATM   31  C   UNL     1      40.721 -10.441  -3.378  1.00  0.00     0.026 A 
HETATM   32  C   UNL     1      40.799 -11.558  -2.540  1.00  0.00     0.031 A 
ENDBRANCH  22  26
ENDBRANCH   4  20
TORSDOF 5
ENDMDL
MODEL 9
REMARK VINA RESULT:      -7.9      2.496      3.482
REMARK  5 active torsions:
REMARK  status: ('A' for Active; 'I' for Inactive)
REMARK    1  A    between atoms: C_2  and  C_3 
REMARK    2  A    between atoms: C_6  and  N_7 
REMARK       I    between atoms: N_7  and  C_8 
REMARK       I    between atoms: C_8  and  N_9 
REMARK    3  A    between atoms: N_9  and  C_10 
REMARK    4  A    between atoms: N_20  and  N_21 
REMARK       I    between atoms: N_21  and  C_22 
REMARK    5  A    between atoms: C_22  and  C_23 
ROOT
HETATM    1  C   UNL     1      40.447 -13.419   1.658  1.00  0.00    -0.010 A 
HETATM    2  C   UNL     1      39.475 -13.107   2.614  1.00  0.00     0.016 A 
HETATM    3  C   UNL     1      39.547 -11.896   3.314  1.00  0.00     0.030 A 
HETATM    4  C   UNL     1      40.591 -10.998   3.062  1.00  0.00     0.036 A 
HETATM    5  C   UNL     1      41.575 -11.334   2.127  1.00  0.00     0.030 A 
HETATM    6  C   UNL     1      41.489 -12.524   1.404  1.00  0.00     0.016 A 
ENDROOT
BRANCH   1   7
HETATM    7  C   UNL     1      40.379 -14.695   0.898  1.00  0.00     0.061 C 
HETATM    8  C   UNL     1      39.703 -14.647  -0.455  1.00  0.00     0.073 C 
HETATM    9  N   UNL     1      40.879 -15.837   1.268  1.00  0.00    -0.176 NA
BRANCH   9  10
HETATM   10  N   UNL     1      41.408 -15.963   2.518  1.00  0.00    -0.243 N 
HETATM   11  C   UNL     1      42.786 -15.932   2.690  1.00  0.00     0.273 C 
HETATM   12  O   UNL     1      43.610 -15.819   1.788  1.00  0.00    -0.266 OA
HETATM   13  H   UNL     1      40.788 -16.221   3.274  1.00  0.00     0.192 HD
BRANCH  11  14
HETATM   14  C   UNL     1      43.272 -16.046   4.089  1.00  0.00     0.051 A 
HETATM   15  C   UNL     1      43.803 -17.220   4.610  1.00  0.00     0.133 A 
HETATM   16  N   UNL     1      44.242 -17.358   5.885  1.00  0.00    -0.272 NA
HETATM   17  C   UNL     1      44.122 -16.276   6.687  1.00  0.00     0.116 A 
HETATM   18  C   UNL     1      43.584 -15.068   6.273  1.00  0.00     0.020 A 
HETATM   19  C   UNL     1      43.150 -14.956   4.954  1.00  0.00     0.020 A 
ENDBRANCH  11  14
ENDBRANCH   9  10
ENDBRANCH   1   7
BRANCH   4  20
HETATM   20  N   UNL     1      40.753  -9.784   3.747  1.00  0.00    -0.309 N 
HETATM   21  C   UNL     1      41.569  -9.400   4.776  1.00  0.00     0.325 C 
HETATM   22  N   UNL     1      42.107 -10.407   5.535  1.00  0.00    -0.309 N 
HETATM   23  O   UNL     1      41.661  -8.197   5.004  1.00  0.00    -0.247 OA
HETATM   24  H   UNL     1      41.782 -11.335   5.313  1.00  0.00     0.170 HD
HETATM   25  H   UNL     1      40.151  -9.017   3.470  1.00  0.00     0.170 HD
BRANCH  22  26
HETATM   26  C   UNL     1      42.841 -10.284   6.733  1.00  0.00     0.036 A 
HETATM   27  C   UNL     1      42.355  -9.671   7.891  1.00  0.00     0.031 A 
HETATM   28  C   UNL     1      43.126  -9.643   9.059  1.00  0.00     0.026 A 
HETATM   29  C   UNL     1      44.394 -10.217   9.070  1.00  0.00     0.034 A 
HETATM   30 CL   UNL     1      45.334 -10.194  10.510  1.00  0.00    -0.084 Cl
HETATM   31  C   UNL     1      44.901 -10.812   7.920  1.00  0.00     0.026 A 
HETATM   32  C   UNL     1      44.126 -10.846   6.755  1.00  0.00     0.031 A 
ENDBRANCH  22  26
ENDBRANCH   4  20
TORSDOF 5
ENDMDL
MODEL 10
REMARK VINA RESULT:      -7.9      3.752      8.250
REMARK  5 active torsions:
REMARK  status: ('A' for Active; 'I' for Inactive)
REMARK    1  A    between atoms: C_2  and  C_3 
REMARK    2  A    between atoms: C_6  and  N_7 
REMARK       I    between atoms: N_7  and  C_8 
REMARK       I    between atoms: C_8  and  N_9 
REMARK    3  A    between atoms: N_9  and  C_10 
REMARK    4  A    between atoms: N_20  and  N_21 
REMARK       I    between atoms: N_21  and  C_22 
REMARK    5  A    between atoms: C_22  and  C_23 
ROOT
HETATM    1  C   UNL     1      39.908 -10.051   2.388  1.00  0.00    -0.010 A 
HETATM    2  C   UNL     1      39.027 -10.898   3.066  1.00  0.00     0.016 A 
HETATM    3  C   UNL     1      38.915 -12.241   2.684  1.00  0.00     0.030 A 
HETATM    4  C   UNL     1      39.680 -12.738   1.623  1.00  0.00     0.036 A 
HETATM    5  C   UNL     1      40.535 -11.874   0.930  1.00  0.00     0.030 A 
HETATM    6  C   UNL     1      40.674 -10.544   1.328  1.00  0.00     0.016 A 
ENDROOT
BRANCH   1   7
HETATM    7  C   UNL     1      40.048  -8.626   2.788  1.00  0.00     0.061 C 
HETATM    8  C   UNL     1      39.133  -7.633   2.105  1.00  0.00     0.073 C 
HETATM    9  N   UNL     1      40.854  -8.159   3.696  1.00  0.00    -0.176 NA
BRANCH   9  10
HETATM   10  N   UNL     1      41.770  -8.989   4.270  1.00  0.00    -0.243 N 
HETATM   11  C   UNL     1      41.630  -9.355   5.602  1.00  0.00     0.273 C 
HETATM   12  O   UNL     1      40.736  -8.972   6.351  1.00  0.00    -0.266 OA
HETATM   13  H   UNL     1      42.611  -9.203   3.749  1.00  0.00     0.192 HD
BRANCH  11  14
HETATM   14  C   UNL     1      42.657 -10.286   6.134  1.00  0.00     0.051 A 
HETATM   15  C   UNL     1      43.100 -10.247   7.451  1.00  0.00     0.133 A 
HETATM   16  N   UNL     1      44.044 -11.075   7.962  1.00  0.00    -0.272 NA
HETATM   17  C   UNL     1      44.591 -11.970   7.109  1.00  0.00     0.116 A 
HETATM   18  C   UNL     1      44.238 -12.073   5.773  1.00  0.00     0.020 A 
HETATM   19  C   UNL     1      43.258 -11.215   5.281  1.00  0.00     0.020 A 
ENDBRANCH  11  14
ENDBRANCH   9  10
ENDBRANCH   1   7
BRANCH   4  20
HETATM   20  N   UNL     1      39.597 -14.058   1.156  1.00  0.00    -0.309 N 
HETATM   21  C   UNL     1      40.118 -15.239   1.611  1.00  0.00     0.325 C 
HETATM   22  N   UNL     1      41.180 -15.144   2.472  1.00  0.00    -0.309 N 
HETATM   23  O   UNL     1      39.669 -16.275   1.128  1.00  0.00    -0.247 OA
HETATM   24  H   UNL     1      41.531 -14.211   2.623  1.00  0.00     0.170 HD
HETATM   25  H   UNL     1      39.073 -14.210   0.301  1.00  0.00     0.170 HD
BRANCH  22  26
HETATM   26  C   UNL     1      41.991 -16.191   2.956  1.00  0.00     0.036 A 
HETATM   27  C   UNL     1      42.699 -17.077   2.140  1.00  0.00     0.031 A 
HETATM   28  C   UNL     1      43.530 -18.054   2.700  1.00  0.00     0.026 A 
HETATM   29  C   UNL     1      43.648 -18.157   4.083  1.00  0.00     0.034 A 
HETATM   30 CL   UNL     1      44.681 -19.347   4.771  1.00  0.00    -0.084 Cl
HETATM   31  C   UNL     1      42.934 -17.296   4.911  1.00  0.00     0.026 A 
HETATM   32  C   UNL     1      42.109 -16.316   4.349  1.00  0.00     0.031 A 
ENDBRANCH  22  26
ENDBRANCH   4  20
TORSDOF 5
ENDMDL
