MODEL 1
REMARK VINA RESULT:      -9.2      0.000      0.000
REMARK  4 active torsions:
REMARK  status: ('A' for Active; 'I' for Inactive)
REMARK    1  A    between atoms: C_8  and  C_9 
REMARK    2  A    between atoms: C_9  and  C_10 
REMARK       I    between atoms: C_10  and  N_11 
REMARK    3  A    between atoms: N_11  and  C_12 
REMARK    4  A    between atoms: C_14  and  C_15 
ROOT
HETATM    1  C   UNL     1      41.990 -15.850   1.890  1.00  0.00     0.226 C 
HETATM    2  N   UNL     1      42.130 -14.556   1.393  1.00  0.00    -0.327 N 
HETATM    3  O   UNL     1      40.930 -16.436   2.082  1.00  0.00    -0.273 OA
HETATM    4  H   UNL     1      43.054 -14.148   1.445  1.00  0.00     0.169 HD
ENDROOT
BRANCH   1   5
HETATM    5  C   UNL     1      43.338 -16.453   2.239  1.00  0.00     0.144 C 
BRANCH   5   6
HETATM    6  C   UNL     1      43.475 -17.199   3.536  1.00  0.00    -0.021 A 
HETATM    7  C   UNL     1      43.628 -18.610   3.847  1.00  0.00     0.005 A 
HETATM    8  C   UNL     1      43.636 -19.843   3.124  1.00  0.00    -0.049 A 
HETATM    9  C   UNL     1      43.835 -18.684   5.235  1.00  0.00     0.043 A 
HETATM   10  C   UNL     1      43.425 -19.985   1.643  1.00  0.00     0.049 C 
HETATM   11  C   UNL     1      43.815 -21.048   3.847  1.00  0.00     0.007 A 
HETATM   12  C   UNL     1      44.024 -21.066   5.218  1.00  0.00     0.003 A 
HETATM   13  C   UNL     1      44.044 -19.879   5.935  1.00  0.00     0.030 A 
HETATM   14  N   UNL     1      43.800 -17.409   5.738  1.00  0.00    -0.365 N 
HETATM   15  H   UNL     1      43.930 -17.176   6.713  1.00  0.00     0.165 HD
HETATM   16  C   UNL     1      43.590 -16.514   4.737  1.00  0.00     0.097 A 
ENDBRANCH   5   6
ENDBRANCH   1   5
BRANCH   2  17
HETATM   17  C   UNL     1      41.155 -13.747   0.778  1.00  0.00     0.035 A 
HETATM   18  C   UNL     1      40.397 -14.134  -0.330  1.00  0.00     0.042 A 
HETATM   19  C   UNL     1      39.498 -13.242  -0.941  1.00  0.00    -0.021 A 
HETATM   20  C   UNL     1      39.359 -11.953  -0.405  1.00  0.00     0.012 A 
HETATM   21  C   UNL     1      40.104 -11.562   0.706  1.00  0.00     0.003 A 
HETATM   22  C   UNL     1      41.000 -12.454   1.291  1.00  0.00     0.029 A 
BRANCH  19  23
HETATM   23  C   UNL     1      38.738 -13.620  -2.125  1.00  0.00     0.010 A 
HETATM   24  C   UNL     1      38.968 -14.639  -3.087  1.00  0.00     0.152 A 
HETATM   25  N   UNL     1      38.032 -14.679  -4.039  1.00  0.00    -0.187 NA
HETATM   26  N   UNL     1      37.194 -13.690  -3.693  1.00  0.00    -0.289 N 
HETATM   27  H   UNL     1      36.381 -13.521  -4.276  1.00  0.00     0.188 HD
HETATM   28  C   UNL     1      37.572 -13.028  -2.561  1.00  0.00     0.123 A 
ENDBRANCH  19  23
ENDBRANCH   2  17
TORSDOF 4
ENDMDL
MODEL 2
REMARK VINA RESULT:      -8.9      2.330      8.264
REMARK  4 active torsions:
REMARK  status: ('A' for Active; 'I' for Inactive)
REMARK    1  A    between atoms: C_8  and  C_9 
REMARK    2  A    between atoms: C_9  and  C_10 
REMARK       I    between atoms: C_10  and  N_11 
REMARK    3  A    between atoms: N_11  and  C_12 
REMARK    4  A    between atoms: C_14  and  C_15 
ROOT
HETATM    1  C   UNL     1      42.382 -13.428   3.068  1.00  0.00     0.226 C 
HETATM    2  N   UNL     1      42.023 -14.447   3.947  1.00  0.00    -0.327 N 
HETATM    3  O   UNL     1      43.526 -13.126   2.744  1.00  0.00    -0.273 OA
HETATM    4  H   UNL     1      41.057 -14.469   4.244  1.00  0.00     0.169 HD
ENDROOT
BRANCH   1   5
HETATM    5  C   UNL     1      41.162 -12.665   2.584  1.00  0.00     0.144 C 
BRANCH   5   6
HETATM    6  C   UNL     1      41.032 -12.379   1.115  1.00  0.00    -0.021 A 
HETATM    7  C   UNL     1      40.516 -13.160   0.003  1.00  0.00     0.005 A 
HETATM    8  C   UNL     1      40.012 -14.481  -0.199  1.00  0.00    -0.049 A 
HETATM    9  C   UNL     1      40.539 -12.309  -1.115  1.00  0.00     0.043 A 
HETATM   10  C   UNL     1      39.911 -15.545   0.858  1.00  0.00     0.049 C 
HETATM   11  C   UNL     1      39.605 -14.857  -1.502  1.00  0.00     0.007 A 
HETATM   12  C   UNL     1      39.640 -13.975  -2.573  1.00  0.00     0.003 A 
HETATM   13  C   UNL     1      40.104 -12.680  -2.393  1.00  0.00     0.030 A 
HETATM   14  N   UNL     1      41.044 -11.098  -0.717  1.00  0.00    -0.365 N 
HETATM   15  H   UNL     1      41.161 -10.300  -1.327  1.00  0.00     0.165 HD
HETATM   16  C   UNL     1      41.338 -11.124   0.610  1.00  0.00     0.097 A 
ENDBRANCH   5   6
ENDBRANCH   1   5
BRANCH   2  17
HETATM   17  C   UNL     1      42.827 -15.489   4.449  1.00  0.00     0.035 A 
HETATM   18  C   UNL     1      42.943 -16.747   3.854  1.00  0.00     0.042 A 
HETATM   19  C   UNL     1      43.702 -17.768   4.457  1.00  0.00    -0.021 A 
HETATM   20  C   UNL     1      44.359 -17.493   5.666  1.00  0.00     0.012 A 
HETATM   21  C   UNL     1      44.256 -16.237   6.261  1.00  0.00     0.003 A 
HETATM   22  C   UNL     1      43.490 -15.243   5.657  1.00  0.00     0.029 A 
BRANCH  19  23
HETATM   23  C   UNL     1      43.791 -19.097   3.869  1.00  0.00     0.010 A 
HETATM   24  C   UNL     1      43.617 -19.531   2.529  1.00  0.00     0.152 A 
HETATM   25  N   UNL     1      43.788 -20.847   2.379  1.00  0.00    -0.187 NA
HETATM   26  N   UNL     1      44.078 -21.266   3.621  1.00  0.00    -0.289 N 
HETATM   27  H   UNL     1      44.257 -22.254   3.767  1.00  0.00     0.188 HD
HETATM   28  C   UNL     1      44.090 -20.261   4.545  1.00  0.00     0.123 A 
ENDBRANCH  19  23
ENDBRANCH   2  17
TORSDOF 4
ENDMDL
MODEL 3
REMARK VINA RESULT:      -8.9      1.571      2.108
REMARK  4 active torsions:
REMARK  status: ('A' for Active; 'I' for Inactive)
REMARK    1  A    between atoms: C_8  and  C_9 
REMARK    2  A    between atoms: C_9  and  C_10 
REMARK       I    between atoms: C_10  and  N_11 
REMARK    3  A    between atoms: N_11  and  C_12 
REMARK    4  A    between atoms: C_14  and  C_15 
ROOT
HETATM    1  C   UNL     1      41.708 -14.889   4.536  1.00  0.00     0.226 C 
HETATM    2  N   UNL     1      41.901 -13.919   3.555  1.00  0.00    -0.327 N 
HETATM    3  O   UNL     1      40.626 -15.305   4.935  1.00  0.00    -0.273 OA
HETATM    4  H   UNL     1      42.840 -13.561   3.450  1.00  0.00     0.169 HD
ENDROOT
BRANCH   1   5
HETATM    5  C   UNL     1      43.032 -15.348   5.121  1.00  0.00     0.144 C 
BRANCH   5   6
HETATM    6  C   UNL     1      43.245 -16.818   5.343  1.00  0.00    -0.021 A 
HETATM    7  C   UNL     1      43.441 -17.933   4.432  1.00  0.00     0.005 A 
HETATM    8  C   UNL     1      43.440 -18.136   3.018  1.00  0.00    -0.049 A 
HETATM    9  C   UNL     1      43.715 -19.052   5.236  1.00  0.00     0.043 A 
HETATM   10  C   UNL     1      43.162 -17.079   1.986  1.00  0.00     0.049 C 
HETATM   11  C   UNL     1      43.677 -19.443   2.523  1.00  0.00     0.007 A 
HETATM   12  C   UNL     1      43.951 -20.514   3.361  1.00  0.00     0.003 A 
HETATM   13  C   UNL     1      43.981 -20.333   4.736  1.00  0.00     0.030 A 
HETATM   14  N   UNL     1      43.678 -18.652   6.548  1.00  0.00    -0.365 N 
HETATM   15  H   UNL     1      43.849 -19.261   7.336  1.00  0.00     0.165 HD
HETATM   16  C   UNL     1      43.403 -17.323   6.626  1.00  0.00     0.097 A 
ENDBRANCH   5   6
ENDBRANCH   1   5
BRANCH   2  17
HETATM   17  C   UNL     1      40.957 -13.396   2.648  1.00  0.00     0.035 A 
HETATM   18  C   UNL     1      40.870 -13.766   1.305  1.00  0.00     0.042 A 
HETATM   19  C   UNL     1      39.955 -13.141   0.438  1.00  0.00    -0.021 A 
HETATM   20  C   UNL     1      39.112 -12.145   0.954  1.00  0.00     0.012 A 
HETATM   21  C   UNL     1      39.185 -11.777   2.296  1.00  0.00     0.003 A 
HETATM   22  C   UNL     1      40.107 -12.397   3.137  1.00  0.00     0.029 A 
BRANCH  19  23
HETATM   23  C   UNL     1      39.889 -13.486  -0.975  1.00  0.00     0.010 A 
HETATM   24  C   UNL     1      40.475 -12.864  -2.109  1.00  0.00     0.152 A 
HETATM   25  N   UNL     1      40.185 -13.487  -3.255  1.00  0.00    -0.187 NA
HETATM   26  N   UNL     1      39.415 -14.514  -2.864  1.00  0.00    -0.289 N 
HETATM   27  H   UNL     1      39.064 -15.150  -3.572  1.00  0.00     0.188 HD
HETATM   28  C   UNL     1      39.208 -14.556  -1.516  1.00  0.00     0.123 A 
ENDBRANCH  19  23
ENDBRANCH   2  17
TORSDOF 4
ENDMDL
MODEL 4
REMARK VINA RESULT:      -8.9      1.247      2.079
REMARK  4 active torsions:
REMARK  status: ('A' for Active; 'I' for Inactive)
REMARK    1  A    between atoms: C_8  and  C_9 
REMARK    2  A    between atoms: C_9  and  C_10 
REMARK       I    between atoms: C_10  and  N_11 
REMARK    3  A    between atoms: N_11  and  C_12 
REMARK    4  A    between atoms: C_14  and  C_15 
ROOT
HETATM    1  C   UNL     1      41.784 -14.995   3.246  1.00  0.00     0.226 C 
HETATM    2  N   UNL     1      42.186 -14.104   2.254  1.00  0.00    -0.327 N 
HETATM    3  O   UNL     1      40.628 -15.216   3.589  1.00  0.00    -0.273 OA
HETATM    4  H   UNL     1      43.176 -13.905   2.197  1.00  0.00     0.169 HD
ENDROOT
BRANCH   1   5
HETATM    5  C   UNL     1      42.981 -15.640   3.921  1.00  0.00     0.144 C 
BRANCH   5   6
HETATM    6  C   UNL     1      43.325 -17.059   3.566  1.00  0.00    -0.021 A 
HETATM    7  C   UNL     1      43.519 -18.254   4.368  1.00  0.00     0.005 A 
HETATM    8  C   UNL     1      43.550 -18.584   5.758  1.00  0.00    -0.049 A 
HETATM    9  C   UNL     1      43.696 -19.311   3.459  1.00  0.00     0.043 A 
HETATM   10  C   UNL     1      43.392 -17.606   6.889  1.00  0.00     0.049 C 
HETATM   11  C   UNL     1      43.789 -19.930   6.128  1.00  0.00     0.007 A 
HETATM   12  C   UNL     1      43.950 -20.939   5.189  1.00  0.00     0.003 A 
HETATM   13  C   UNL     1      43.899 -20.644   3.835  1.00  0.00     0.030 A 
HETATM   14  N   UNL     1      43.626 -18.795   2.190  1.00  0.00    -0.365 N 
HETATM   15  H   UNL     1      43.713 -19.344   1.346  1.00  0.00     0.165 HD
HETATM   16  C   UNL     1      43.401 -17.456   2.239  1.00  0.00     0.097 A 
ENDBRANCH   5   6
ENDBRANCH   1   5
BRANCH   2  17
HETATM   17  C   UNL     1      41.392 -13.468   1.279  1.00  0.00     0.035 A 
HETATM   18  C   UNL     1      40.708 -14.139   0.263  1.00  0.00     0.042 A 
HETATM   19  C   UNL     1      40.000 -13.430  -0.725  1.00  0.00    -0.021 A 
HETATM   20  C   UNL     1      39.976 -12.029  -0.663  1.00  0.00     0.012 A 
HETATM   21  C   UNL     1      40.648 -11.352   0.354  1.00  0.00     0.003 A 
HETATM   22  C   UNL     1      41.356 -12.069   1.316  1.00  0.00     0.029 A 
BRANCH  19  23
HETATM   23  C   UNL     1      39.323 -14.118  -1.816  1.00  0.00     0.010 A 
HETATM   24  C   UNL     1      38.918 -13.654  -3.095  1.00  0.00     0.152 A 
HETATM   25  N   UNL     1      38.322 -14.598  -3.829  1.00  0.00    -0.187 NA
HETATM   26  N   UNL     1      38.344 -15.674  -3.028  1.00  0.00    -0.289 N 
HETATM   27  H   UNL     1      37.942 -16.540  -3.372  1.00  0.00     0.188 HD
HETATM   28  C   UNL     1      38.928 -15.439  -1.817  1.00  0.00     0.123 A 
ENDBRANCH  19  23
ENDBRANCH   2  17
TORSDOF 4
ENDMDL
MODEL 5
REMARK VINA RESULT:      -8.8      1.749      9.161
REMARK  4 active torsions:
REMARK  status: ('A' for Active; 'I' for Inactive)
REMARK    1  A    between atoms: C_8  and  C_9 
REMARK    2  A    between atoms: C_9  and  C_10 
REMARK       I    between atoms: C_10  and  N_11 
REMARK    3  A    between atoms: N_11  and  C_12 
REMARK    4  A    between atoms: C_14  and  C_15 
ROOT
HETATM    1  C   UNL     1      40.803 -14.790   0.709  1.00  0.00     0.226 C 
HETATM    2  N   UNL     1      42.139 -14.954   1.068  1.00  0.00    -0.327 N 
HETATM    3  O   UNL     1      39.854 -15.417   1.165  1.00  0.00    -0.273 OA
HETATM    4  H   UNL     1      42.825 -14.485   0.490  1.00  0.00     0.169 HD
ENDROOT
BRANCH   1   5
HETATM    5  C   UNL     1      40.654 -13.754  -0.390  1.00  0.00     0.144 C 
BRANCH   5   6
HETATM    6  C   UNL     1      39.419 -13.791  -1.246  1.00  0.00    -0.021 A 
HETATM    7  C   UNL     1      38.458 -12.772  -1.629  1.00  0.00     0.005 A 
HETATM    8  C   UNL     1      38.219 -11.396  -1.326  1.00  0.00    -0.049 A 
HETATM    9  C   UNL     1      37.590 -13.380  -2.551  1.00  0.00     0.043 A 
HETATM   10  C   UNL     1      39.021 -10.564  -0.364  1.00  0.00     0.049 C 
HETATM   11  C   UNL     1      37.117 -10.750  -1.939  1.00  0.00     0.007 A 
HETATM   12  C   UNL     1      36.293 -11.396  -2.850  1.00  0.00     0.003 A 
HETATM   13  C   UNL     1      36.522 -12.724  -3.176  1.00  0.00     0.030 A 
HETATM   14  N   UNL     1      37.986 -14.684  -2.711  1.00  0.00    -0.365 N 
HETATM   15  H   UNL     1      37.536 -15.346  -3.328  1.00  0.00     0.165 HD
HETATM   16  C   UNL     1      39.077 -14.941  -1.943  1.00  0.00     0.097 A 
ENDBRANCH   5   6
ENDBRANCH   1   5
BRANCH   2  17
HETATM   17  C   UNL     1      42.667 -15.660   2.167  1.00  0.00     0.035 A 
HETATM   18  C   UNL     1      42.973 -17.023   2.152  1.00  0.00     0.042 A 
HETATM   19  C   UNL     1      43.421 -17.678   3.314  1.00  0.00    -0.021 A 
HETATM   20  C   UNL     1      43.576 -16.932   4.491  1.00  0.00     0.012 A 
HETATM   21  C   UNL     1      43.283 -15.569   4.512  1.00  0.00     0.003 A 
HETATM   22  C   UNL     1      42.827 -14.939   3.356  1.00  0.00     0.029 A 
BRANCH  19  23
HETATM   23  C   UNL     1      43.696 -19.108   3.321  1.00  0.00     0.010 A 
HETATM   24  C   UNL     1      43.649 -20.066   2.274  1.00  0.00     0.152 A 
HETATM   25  N   UNL     1      43.979 -21.297   2.676  1.00  0.00    -0.187 NA
HETATM   26  N   UNL     1      44.245 -21.136   3.981  1.00  0.00    -0.289 N 
HETATM   27  H   UNL     1      44.528 -21.948   4.520  1.00  0.00     0.188 HD
HETATM   28  C   UNL     1      44.089 -19.851   4.414  1.00  0.00     0.123 A 
ENDBRANCH  19  23
ENDBRANCH   2  17
TORSDOF 4
ENDMDL
MODEL 6
REMARK VINA RESULT:      -8.6      2.432      8.269
REMARK  4 active torsions:
REMARK  status: ('A' for Active; 'I' for Inactive)
REMARK    1  A    between atoms: C_8  and  C_9 
REMARK    2  A    between atoms: C_9  and  C_10 
REMARK       I    between atoms: C_10  and  N_11 
REMARK    3  A    between atoms: N_11  and  C_12 
REMARK    4  A    between atoms: C_14  and  C_15 
ROOT
HETATM    1  C   UNL     1      40.380 -14.750   2.630  1.00  0.00     0.226 C 
HETATM    2  N   UNL     1      41.673 -14.566   3.116  1.00  0.00    -0.327 N 
HETATM    3  O   UNL     1      39.815 -15.827   2.478  1.00  0.00    -0.273 OA
HETATM    4  H   UNL     1      42.062 -13.637   3.030  1.00  0.00     0.169 HD
ENDROOT
BRANCH   1   5
HETATM    5  C   UNL     1      39.749 -13.426   2.239  1.00  0.00     0.144 C 
BRANCH   5   6
HETATM    6  C   UNL     1      40.397 -12.617   1.151  1.00  0.00    -0.021 A 
HETATM    7  C   UNL     1      40.477 -12.791  -0.289  1.00  0.00     0.005 A 
HETATM    8  C   UNL     1      40.076 -13.774  -1.244  1.00  0.00    -0.049 A 
HETATM    9  C   UNL     1      41.107 -11.638  -0.787  1.00  0.00     0.043 A 
HETATM   10  C   UNL     1      39.398 -15.077  -0.922  1.00  0.00     0.049 C 
HETATM   11  C   UNL     1      40.367 -13.546  -2.612  1.00  0.00     0.007 A 
HETATM   12  C   UNL     1      40.986 -12.385  -3.054  1.00  0.00     0.003 A 
HETATM   13  C   UNL     1      41.361 -11.407  -2.145  1.00  0.00     0.030 A 
HETATM   14  N   UNL     1      41.403 -10.823   0.275  1.00  0.00    -0.365 N 
HETATM   15  H   UNL     1      41.854  -9.922   0.195  1.00  0.00     0.165 HD
HETATM   16  C   UNL     1      40.982 -11.392   1.436  1.00  0.00     0.097 A 
ENDBRANCH   5   6
ENDBRANCH   1   5
BRANCH   2  17
HETATM   17  C   UNL     1      42.505 -15.505   3.759  1.00  0.00     0.035 A 
HETATM   18  C   UNL     1      42.725 -16.804   3.298  1.00  0.00     0.042 A 
HETATM   19  C   UNL     1      43.505 -17.713   4.038  1.00  0.00    -0.021 A 
HETATM   20  C   UNL     1      44.077 -17.283   5.244  1.00  0.00     0.012 A 
HETATM   21  C   UNL     1      43.870 -15.985   5.706  1.00  0.00     0.003 A 
HETATM   22  C   UNL     1      43.084 -15.102   4.968  1.00  0.00     0.029 A 
BRANCH  19  23
HETATM   23  C   UNL     1      43.702 -19.085   3.590  1.00  0.00     0.010 A 
HETATM   24  C   UNL     1      43.598 -19.661   2.297  1.00  0.00     0.152 A 
HETATM   25  N   UNL     1      43.862 -20.971   2.286  1.00  0.00    -0.187 NA
HETATM   26  N   UNL     1      44.143 -21.242   3.570  1.00  0.00    -0.289 N 
HETATM   27  H   UNL     1      44.384 -22.195   3.820  1.00  0.00     0.188 HD
HETATM   28  C   UNL     1      44.059 -20.152   4.387  1.00  0.00     0.123 A 
ENDBRANCH  19  23
ENDBRANCH   2  17
TORSDOF 4
ENDMDL
MODEL 7
REMARK VINA RESULT:      -8.6      5.867      9.015
REMARK  4 active torsions:
REMARK  status: ('A' for Active; 'I' for Inactive)
REMARK    1  A    between atoms: C_8  and  C_9 
REMARK    2  A    between atoms: C_9  and  C_10 
REMARK       I    between atoms: C_10  and  N_11 
REMARK    3  A    between atoms: N_11  and  C_12 
REMARK    4  A    between atoms: C_14  and  C_15 
ROOT
HETATM    1  C   UNL     1      42.910 -12.810   5.766  1.00  0.00     0.226 C 
HETATM    2  N   UNL     1      44.198 -12.690   6.282  1.00  0.00    -0.327 N 
HETATM    3  O   UNL     1      41.916 -12.214   6.167  1.00  0.00    -0.273 OA
HETATM    4  H   UNL     1      44.880 -13.364   5.961  1.00  0.00     0.169 HD
ENDROOT
BRANCH   1   5
HETATM    5  C   UNL     1      42.858 -13.842   4.655  1.00  0.00     0.144 C 
BRANCH   5   6
HETATM    6  C   UNL     1      43.154 -15.276   4.995  1.00  0.00    -0.021 A 
HETATM    7  C   UNL     1      43.360 -16.458   4.176  1.00  0.00     0.005 A 
HETATM    8  C   UNL     1      43.300 -16.789   2.787  1.00  0.00    -0.049 A 
HETATM    9  C   UNL     1      43.727 -17.487   5.060  1.00  0.00     0.043 A 
HETATM   10  C   UNL     1      42.921 -15.843   1.682  1.00  0.00     0.049 C 
HETATM   11  C   UNL     1      43.577 -18.123   2.397  1.00  0.00     0.007 A 
HETATM   12  C   UNL     1      43.943 -19.100   3.311  1.00  0.00     0.003 A 
HETATM   13  C   UNL     1      44.030 -18.794   4.661  1.00  0.00     0.030 A 
HETATM   14  N   UNL     1      43.734 -16.972   6.331  1.00  0.00    -0.365 N 
HETATM   15  H   UNL     1      43.972 -17.499   7.160  1.00  0.00     0.165 HD
HETATM   16  C   UNL     1      43.398 -15.655   6.307  1.00  0.00     0.097 A 
ENDBRANCH   5   6
ENDBRANCH   1   5
BRANCH   2  17
HETATM   17  C   UNL     1      44.695 -11.715   7.170  1.00  0.00     0.035 A 
HETATM   18  C   UNL     1      44.065 -11.340   8.358  1.00  0.00     0.042 A 
HETATM   19  C   UNL     1      44.578 -10.300   9.155  1.00  0.00    -0.021 A 
HETATM   20  C   UNL     1      45.752  -9.653   8.742  1.00  0.00     0.012 A 
HETATM   21  C   UNL     1      46.393 -10.027   7.562  1.00  0.00     0.003 A 
HETATM   22  C   UNL     1      45.863 -11.050   6.779  1.00  0.00     0.029 A 
BRANCH  19  23
HETATM   23  C   UNL     1      43.903  -9.870  10.371  1.00  0.00     0.010 A 
HETATM   24  C   UNL     1      43.497 -10.607  11.515  1.00  0.00     0.152 A 
HETATM   25  N   UNL     1      42.903  -9.848  12.441  1.00  0.00    -0.187 NA
HETATM   26  N   UNL     1      42.928  -8.621  11.900  1.00  0.00    -0.289 N 
HETATM   27  H   UNL     1      42.527  -7.853  12.428  1.00  0.00     0.188 HD
HETATM   28  C   UNL     1      43.511  -8.582  10.667  1.00  0.00     0.123 A 
ENDBRANCH  19  23
ENDBRANCH   2  17
TORSDOF 4
ENDMDL
MODEL 8
REMARK VINA RESULT:      -8.6      1.390      2.118
REMARK  4 active torsions:
REMARK  status: ('A' for Active; 'I' for Inactive)
REMARK    1  A    between atoms: C_8  and  C_9 
REMARK    2  A    between atoms: C_9  and  C_10 
REMARK       I    between atoms: C_10  and  N_11 
REMARK    3  A    between atoms: N_11  and  C_12 
REMARK    4  A    between atoms: C_14  and  C_15 
ROOT
HETATM    1  C   UNL     1      41.585 -13.618   3.365  1.00  0.00     0.226 C 
HETATM    2  N   UNL     1      41.797 -12.690   2.348  1.00  0.00    -0.327 N 
HETATM    3  O   UNL     1      40.516 -14.151   3.642  1.00  0.00    -0.273 OA
HETATM    4  H   UNL     1      42.691 -12.216   2.346  1.00  0.00     0.169 HD
ENDROOT
BRANCH   1   5
HETATM    5  C   UNL     1      42.856 -13.861   4.160  1.00  0.00     0.144 C 
BRANCH   5   6
HETATM    6  C   UNL     1      43.138 -15.253   4.651  1.00  0.00    -0.021 A 
HETATM    7  C   UNL     1      43.345 -16.515   3.963  1.00  0.00     0.005 A 
HETATM    8  C   UNL     1      43.297 -16.989   2.616  1.00  0.00    -0.049 A 
HETATM    9  C   UNL     1      43.696 -17.447   4.953  1.00  0.00     0.043 A 
HETATM   10  C   UNL     1      42.935 -16.162   1.414  1.00  0.00     0.049 C 
HETATM   11  C   UNL     1      43.569 -18.358   2.370  1.00  0.00     0.007 A 
HETATM   12  C   UNL     1      43.920 -19.236   3.385  1.00  0.00     0.003 A 
HETATM   13  C   UNL     1      43.995 -18.791   4.697  1.00  0.00     0.030 A 
HETATM   14  N   UNL     1      43.694 -16.802   6.164  1.00  0.00    -0.365 N 
HETATM   15  H   UNL     1      43.920 -17.242   7.045  1.00  0.00     0.165 HD
HETATM   16  C   UNL     1      43.366 -15.494   5.998  1.00  0.00     0.097 A 
ENDBRANCH   5   6
ENDBRANCH   1   5
BRANCH   2  17
HETATM   17  C   UNL     1      40.939 -12.352   1.283  1.00  0.00     0.035 A 
HETATM   18  C   UNL     1      40.398 -13.276   0.387  1.00  0.00     0.042 A 
HETATM   19  C   UNL     1      39.613 -12.855  -0.703  1.00  0.00    -0.021 A 
HETATM   20  C   UNL     1      39.366 -11.484  -0.865  1.00  0.00     0.012 A 
HETATM   21  C   UNL     1      39.895 -10.556   0.031  1.00  0.00     0.003 A 
HETATM   22  C   UNL     1      40.681 -10.989   1.096  1.00  0.00     0.029 A 
BRANCH  19  23
HETATM   23  C   UNL     1      39.084 -13.806  -1.671  1.00  0.00     0.010 A 
HETATM   24  C   UNL     1      38.384 -13.597  -2.888  1.00  0.00     0.152 A 
HETATM   25  N   UNL     1      38.063 -14.735  -3.509  1.00  0.00    -0.187 NA
HETATM   26  N   UNL     1      38.559 -15.682  -2.697  1.00  0.00    -0.289 N 
HETATM   27  H   UNL     1      38.441 -16.654  -2.961  1.00  0.00     0.188 HD
HETATM   28  C   UNL     1      39.174 -15.179  -1.587  1.00  0.00     0.123 A 
ENDBRANCH  19  23
ENDBRANCH   2  17
TORSDOF 4
ENDMDL
MODEL 9
REMARK VINA RESULT:      -8.3      2.143      2.856
REMARK  4 active torsions:
REMARK  status: ('A' for Active; 'I' for Inactive)
REMARK    1  A    between atoms: C_8  and  C_9 
REMARK    2  A    between atoms: C_9  and  C_10 
REMARK       I    between atoms: C_10  and  N_11 
REMARK    3  A    between atoms: N_11  and  C_12 
REMARK    4  A    between atoms: C_14  and  C_15 
ROOT
HETATM    1  C   UNL     1      41.956 -14.610   4.162  1.00  0.00     0.226 C 
HETATM    2  N   UNL     1      42.351 -14.257   2.874  1.00  0.00    -0.327 N 
HETATM    3  O   UNL     1      40.809 -14.586   4.595  1.00  0.00    -0.273 OA
HETATM    4  H   UNL     1      43.345 -14.168   2.713  1.00  0.00     0.169 HD
ENDROOT
BRANCH   1   5
HETATM    5  C   UNL     1      43.152 -14.984   5.019  1.00  0.00     0.144 C 
BRANCH   5   6
HETATM    6  C   UNL     1      43.214 -16.370   5.595  1.00  0.00    -0.021 A 
HETATM    7  C   UNL     1      43.469 -17.671   5.001  1.00  0.00     0.005 A 
HETATM    8  C   UNL     1      43.678 -18.195   3.688  1.00  0.00    -0.049 A 
HETATM    9  C   UNL     1      43.526 -18.584   6.067  1.00  0.00     0.043 A 
HETATM   10  C   UNL     1      43.649 -17.395   2.416  1.00  0.00     0.049 C 
HETATM   11  C   UNL     1      43.892 -19.588   3.542  1.00  0.00     0.007 A 
HETATM   12  C   UNL     1      43.947 -20.447   4.631  1.00  0.00     0.003 A 
HETATM   13  C   UNL     1      43.770 -19.955   5.916  1.00  0.00     0.030 A 
HETATM   14  N   UNL     1      43.310 -17.891   7.231  1.00  0.00    -0.365 N 
HETATM   15  H   UNL     1      43.307 -18.309   8.151  1.00  0.00     0.165 HD
HETATM   16  C   UNL     1      43.127 -16.571   6.965  1.00  0.00     0.097 A 
ENDBRANCH   5   6
ENDBRANCH   1   5
BRANCH   2  17
HETATM   17  C   UNL     1      41.542 -14.046   1.740  1.00  0.00     0.035 A 
HETATM   18  C   UNL     1      41.357 -12.805   1.126  1.00  0.00     0.042 A 
HETATM   19  C   UNL     1      40.469 -12.656   0.045  1.00  0.00    -0.021 A 
HETATM   20  C   UNL     1      39.781 -13.785  -0.422  1.00  0.00     0.012 A 
HETATM   21  C   UNL     1      39.966 -15.029   0.178  1.00  0.00     0.003 A 
HETATM   22  C   UNL     1      40.839 -15.156   1.257  1.00  0.00     0.029 A 
BRANCH  19  23
HETATM   23  C   UNL     1      40.234 -11.357  -0.572  1.00  0.00     0.010 A 
HETATM   24  C   UNL     1      41.146 -10.368  -1.024  1.00  0.00     0.152 A 
HETATM   25  N   UNL     1      40.539  -9.297  -1.545  1.00  0.00    -0.187 NA
HETATM   26  N   UNL     1      39.236  -9.595  -1.435  1.00  0.00    -0.289 N 
HETATM   27  H   UNL     1      38.557  -8.921  -1.774  1.00  0.00     0.188 HD
HETATM   28  C   UNL     1      39.002 -10.810  -0.860  1.00  0.00     0.123 A 
ENDBRANCH  19  23
ENDBRANCH   2  17
TORSDOF 4
ENDMDL
MODEL 10
REMARK VINA RESULT:      -8.2      2.549      3.386
REMARK  4 active torsions:
REMARK  status: ('A' for Active; 'I' for Inactive)
REMARK    1  A    between atoms: C_8  and  C_9 
REMARK    2  A    between atoms: C_9  and  C_10 
REMARK       I    between atoms: C_10  and  N_11 
REMARK    3  A    between atoms: N_11  and  C_12 
REMARK    4  A    between atoms: C_14  and  C_15 
ROOT
HETATM    1  C   UNL     1      41.974 -14.998   4.526  1.00  0.00     0.226 C 
HETATM    2  N   UNL     1      42.269 -14.290   3.363  1.00  0.00    -0.327 N 
HETATM    3  O   UNL     1      40.855 -15.174   4.997  1.00  0.00    -0.273 OA
HETATM    4  H   UNL     1      43.245 -14.088   3.191  1.00  0.00     0.169 HD
ENDROOT
BRANCH   1   5
HETATM    5  C   UNL     1      43.239 -15.491   5.204  1.00  0.00     0.144 C 
BRANCH   5   6
HETATM    6  C   UNL     1      43.342 -16.949   5.553  1.00  0.00    -0.021 A 
HETATM    7  C   UNL     1      43.527 -18.143   4.745  1.00  0.00     0.005 A 
HETATM    8  C   UNL     1      43.607 -18.459   3.354  1.00  0.00    -0.049 A 
HETATM    9  C   UNL     1      43.674 -19.208   5.650  1.00  0.00     0.043 A 
HETATM   10  C   UNL     1      43.467 -17.474   2.228  1.00  0.00     0.049 C 
HETATM   11  C   UNL     1      43.793 -19.812   2.978  1.00  0.00     0.007 A 
HETATM   12  C   UNL     1      43.941 -20.827   3.913  1.00  0.00     0.003 A 
HETATM   13  C   UNL     1      43.890 -20.538   5.269  1.00  0.00     0.030 A 
HETATM   14  N   UNL     1      43.575 -18.702   6.921  1.00  0.00    -0.365 N 
HETATM   15  H   UNL     1      43.654 -19.255   7.763  1.00  0.00     0.165 HD
HETATM   16  C   UNL     1      43.381 -17.358   6.878  1.00  0.00     0.097 A 
ENDBRANCH   5   6
ENDBRANCH   1   5
BRANCH   2  17
HETATM   17  C   UNL     1      41.382 -13.852   2.359  1.00  0.00     0.035 A 
HETATM   18  C   UNL     1      40.527 -12.756   2.492  1.00  0.00     0.042 A 
HETATM   19  C   UNL     1      39.609 -12.425   1.477  1.00  0.00    -0.021 A 
HETATM   20  C   UNL     1      39.581 -13.208   0.314  1.00  0.00     0.012 A 
HETATM   21  C   UNL     1      40.439 -14.298   0.170  1.00  0.00     0.003 A 
HETATM   22  C   UNL     1      41.331 -14.619   1.190  1.00  0.00     0.029 A 
BRANCH  19  23
HETATM   23  C   UNL     1      38.680 -11.314   1.625  1.00  0.00     0.010 A 
HETATM   24  C   UNL     1      38.884  -9.994   2.108  1.00  0.00     0.152 A 
HETATM   25  N   UNL     1      37.773  -9.252   2.085  1.00  0.00    -0.187 NA
HETATM   26  N   UNL     1      36.851 -10.089   1.585  1.00  0.00    -0.289 N 
HETATM   27  H   UNL     1      35.904  -9.747   1.465  1.00  0.00     0.188 HD
HETATM   28  C   UNL     1      37.341 -11.329   1.297  1.00  0.00     0.123 A 
ENDBRANCH  19  23
ENDBRANCH   2  17
TORSDOF 4
ENDMDL
