MODEL 1
REMARK VINA RESULT:      -8.3      0.000      0.000
REMARK  8 active torsions:
REMARK  status: ('A' for Active; 'I' for Inactive)
REMARK    1  A    between atoms: C_3  and  N_4 
REMARK       I    between atoms: N_4  and  C_5 
REMARK       I    between atoms: C_5  and  N_6 
REMARK       I    between atoms: N_6  and  C_7 
REMARK    2  A    between atoms: C_7  and  C_8 
REMARK    3  A    between atoms: C_8  and  N_9 
REMARK    4  A    between atoms: N_9  and  C_11 
REMARK    5  A    between atoms: N_9  and  C_17 
REMARK    6  A    between atoms: C_11  and  C_12 
REMARK    7  A    between atoms: C_17  and  C_18 
REMARK    8  A    between atoms: C_19  and  O_20 
ROOT
HETATM    1  N   UNL     1      42.691 -15.440   2.816  1.00  0.00    -0.053 N 
HETATM    2  H   UNL     1      43.100 -15.530   3.757  1.00  0.00     0.281 HD
ENDROOT
BRANCH   1   3
HETATM    3  C   UNL     1      43.132 -14.050   2.360  1.00  0.00     0.338 C 
BRANCH   3   4
HETATM    4  C   UNL     1      43.218 -13.041   3.503  1.00  0.00     0.251 C 
HETATM    5  N   UNL     1      43.166 -13.599   4.763  1.00  0.00    -0.278 N 
HETATM    6  C   UNL     1      43.567 -13.041   5.950  1.00  0.00     0.323 C 
HETATM    7  H   UNL     1      43.125 -14.605   4.865  1.00  0.00     0.173 HD
HETATM    8  N   UNL     1      43.770 -11.698   5.952  1.00  0.00    -0.338 N 
HETATM    9  O   UNL     1      43.757 -13.789   6.903  1.00  0.00    -0.247 OA
HETATM   10  H   UNL     1      43.486 -11.182   5.124  1.00  0.00     0.164 HD
HETATM   11  O   UNL     1      43.286 -11.835   3.261  1.00  0.00    -0.271 OA
BRANCH   8  12
HETATM   12  C   UNL     1      44.161 -10.915   7.124  1.00  0.00     0.089 C 
HETATM   13  C   UNL     1      43.354  -9.605   7.291  1.00  0.00     0.004 C 
HETATM   14  C   UNL     1      41.847  -9.871   7.378  1.00  0.00     0.012 C 
HETATM   15  C   UNL     1      43.818  -8.840   8.542  1.00  0.00     0.006 C 
HETATM   16  C   UNL     1      45.323  -8.587   8.534  1.00  0.00     0.001 C 
HETATM   17  C   UNL     1      46.107  -9.887   8.383  1.00  0.00     0.002 C 
HETATM   18  C   UNL     1      45.675 -10.655   7.138  1.00  0.00     0.026 C 
ENDBRANCH   8  12
ENDBRANCH   3   4
ENDBRANCH   1   3
BRANCH   1  19
HETATM   19  C   UNL     1      41.200 -15.598   3.028  1.00  0.00     0.300 C 
BRANCH  19  20
HETATM   20  C   UNL     1      40.759 -15.552   4.446  1.00  0.00     0.078 A 
HETATM   21  O   UNL     1      40.397 -14.329   4.934  1.00  0.00    -0.325 OA
HETATM   22  C   UNL     1      40.050 -14.504   6.235  1.00  0.00     0.142 A 
HETATM   23  C   UNL     1      40.179 -15.826   6.590  1.00  0.00     0.027 A 
HETATM   24  C   UNL     1      40.641 -16.505   5.437  1.00  0.00     0.036 A 
ENDBRANCH  19  20
ENDBRANCH   1  19
BRANCH   1  25
HETATM   25  C   UNL     1      43.296 -16.532   1.970  1.00  0.00     0.277 C 
BRANCH  25  26
HETATM   26  C   UNL     1      43.507 -17.806   2.738  1.00  0.00     0.001 A 
HETATM   27  C   UNL     1      43.931 -17.781   4.072  1.00  0.00     0.073 A 
HETATM   28  C   UNL     1      44.135 -18.959   4.787  1.00  0.00     0.037 A 
HETATM   29  C   UNL     1      43.908 -20.186   4.169  1.00  0.00     0.003 A 
HETATM   30  C   UNL     1      43.474 -20.232   2.845  1.00  0.00     0.001 A 
HETATM   31  C   UNL     1      43.271 -19.049   2.132  1.00  0.00     0.011 A 
BRANCH  27  32
HETATM   32  O   UNL     1      44.138 -16.570   4.669  1.00  0.00    -0.360 OA
HETATM   33  H   UNL     1      43.718 -16.591   5.552  1.00  0.00     0.217 HD
ENDBRANCH  27  32
ENDBRANCH  25  26
ENDBRANCH   1  25
TORSDOF 8
ENDMDL
MODEL 2
REMARK VINA RESULT:      -8.1      1.983      3.189
REMARK  8 active torsions:
REMARK  status: ('A' for Active; 'I' for Inactive)
REMARK    1  A    between atoms: C_3  and  N_4 
REMARK       I    between atoms: N_4  and  C_5 
REMARK       I    between atoms: C_5  and  N_6 
REMARK       I    between atoms: N_6  and  C_7 
REMARK    2  A    between atoms: C_7  and  C_8 
REMARK    3  A    between atoms: C_8  and  N_9 
REMARK    4  A    between atoms: N_9  and  C_11 
REMARK    5  A    between atoms: N_9  and  C_17 
REMARK    6  A    between atoms: C_11  and  C_12 
REMARK    7  A    between atoms: C_17  and  C_18 
REMARK    8  A    between atoms: C_19  and  O_20 
ROOT
HETATM    1  N   UNL     1      41.320 -14.898   4.015  1.00  0.00    -0.053 N 
HETATM    2  H   UNL     1      40.835 -15.774   3.773  1.00  0.00     0.281 HD
ENDROOT
BRANCH   1   3
HETATM    3  C   UNL     1      41.141 -14.790   5.528  1.00  0.00     0.338 C 
BRANCH   3   4
HETATM    4  C   UNL     1      42.071 -13.762   6.172  1.00  0.00     0.251 C 
HETATM    5  N   UNL     1      41.797 -12.453   5.834  1.00  0.00    -0.278 N 
HETATM    6  C   UNL     1      42.185 -11.314   6.490  1.00  0.00     0.323 C 
HETATM    7  H   UNL     1      41.001 -12.243   5.244  1.00  0.00     0.173 HD
HETATM    8  N   UNL     1      43.183 -11.448   7.403  1.00  0.00    -0.338 N 
HETATM    9  O   UNL     1      41.584 -10.274   6.245  1.00  0.00    -0.247 OA
HETATM   10  H   UNL     1      43.661 -12.343   7.442  1.00  0.00     0.164 HD
HETATM   11  O   UNL     1      42.998 -14.132   6.893  1.00  0.00    -0.271 OA
BRANCH   8  12
HETATM   12  C   UNL     1      43.761 -10.349   8.175  1.00  0.00     0.089 C 
HETATM   13  C   UNL     1      45.251 -10.562   8.536  1.00  0.00     0.004 C 
HETATM   14  C   UNL     1      46.115 -10.772   7.288  1.00  0.00     0.012 C 
HETATM   15  C   UNL     1      45.789  -9.367   9.342  1.00  0.00     0.006 C 
HETATM   16  C   UNL     1      44.936  -9.080  10.576  1.00  0.00     0.001 C 
HETATM   17  C   UNL     1      43.474  -8.858  10.205  1.00  0.00     0.002 C 
HETATM   18  C   UNL     1      42.914 -10.038   9.419  1.00  0.00     0.026 C 
ENDBRANCH   8  12
ENDBRANCH   3   4
ENDBRANCH   1   3
BRANCH   1  19
HETATM   19  C   UNL     1      40.610 -13.830   3.211  1.00  0.00     0.300 C 
BRANCH  19  20
HETATM   20  C   UNL     1      40.342 -14.185   1.794  1.00  0.00     0.078 A 
HETATM   21  O   UNL     1      40.494 -13.186   0.875  1.00  0.00    -0.325 OA
HETATM   22  C   UNL     1      40.186 -13.709  -0.340  1.00  0.00     0.142 A 
HETATM   23  C   UNL     1      39.843 -15.034  -0.216  1.00  0.00     0.027 A 
HETATM   24  C   UNL     1      39.939 -15.344   1.163  1.00  0.00     0.036 A 
ENDBRANCH  19  20
ENDBRANCH   1  19
BRANCH   1  25
HETATM   25  C   UNL     1      42.767 -15.078   3.628  1.00  0.00     0.277 C 
BRANCH  25  26
HETATM   26  C   UNL     1      43.153 -16.524   3.501  1.00  0.00     0.001 A 
HETATM   27  C   UNL     1      43.916 -17.156   4.491  1.00  0.00     0.073 A 
HETATM   28  C   UNL     1      44.284 -18.495   4.375  1.00  0.00     0.037 A 
HETATM   29  C   UNL     1      43.882 -19.223   3.258  1.00  0.00     0.003 A 
HETATM   30  C   UNL     1      43.113 -18.616   2.267  1.00  0.00     0.001 A 
HETATM   31  C   UNL     1      42.747 -17.274   2.388  1.00  0.00     0.011 A 
BRANCH  27  32
HETATM   32  O   UNL     1      44.292 -16.432   5.587  1.00  0.00    -0.360 OA
HETATM   33  H   UNL     1      44.132 -16.980   6.381  1.00  0.00     0.217 HD
ENDBRANCH  27  32
ENDBRANCH  25  26
ENDBRANCH   1  25
TORSDOF 8
ENDMDL
MODEL 3
REMARK VINA RESULT:      -8.0      2.097      3.064
REMARK  8 active torsions:
REMARK  status: ('A' for Active; 'I' for Inactive)
REMARK    1  A    between atoms: C_3  and  N_4 
REMARK       I    between atoms: N_4  and  C_5 
REMARK       I    between atoms: C_5  and  N_6 
REMARK       I    between atoms: N_6  and  C_7 
REMARK    2  A    between atoms: C_7  and  C_8 
REMARK    3  A    between atoms: C_8  and  N_9 
REMARK    4  A    between atoms: N_9  and  C_11 
REMARK    5  A    between atoms: N_9  and  C_17 
REMARK    6  A    between atoms: C_11  and  C_12 
REMARK    7  A    between atoms: C_17  and  C_18 
REMARK    8  A    between atoms: C_19  and  O_20 
ROOT
HETATM    1  N   UNL     1      41.157 -14.769   2.439  1.00  0.00    -0.053 N 
HETATM    2  H   UNL     1      41.029 -14.671   3.456  1.00  0.00     0.281 HD
ENDROOT
BRANCH   1   3
HETATM    3  C   UNL     1      42.497 -14.086   2.174  1.00  0.00     0.338 C 
BRANCH   3   4
HETATM    4  C   UNL     1      42.893 -13.093   3.265  1.00  0.00     0.251 C 
HETATM    5  N   UNL     1      42.466 -13.436   4.531  1.00  0.00    -0.278 N 
HETATM    6  C   UNL     1      42.940 -12.978   5.733  1.00  0.00     0.323 C 
HETATM    7  H   UNL     1      41.978 -14.311   4.677  1.00  0.00     0.173 HD
HETATM    8  N   UNL     1      43.709 -11.858   5.697  1.00  0.00    -0.338 N 
HETATM    9  O   UNL     1      42.680 -13.627   6.740  1.00  0.00    -0.247 OA
HETATM   10  H   UNL     1      43.770 -11.363   4.813  1.00  0.00     0.164 HD
HETATM   11  O   UNL     1      43.507 -12.065   2.975  1.00  0.00    -0.271 OA
BRANCH   8  12
HETATM   12  C   UNL     1      44.274 -11.196   6.872  1.00  0.00     0.089 C 
HETATM   13  C   UNL     1      43.612  -9.834   7.194  1.00  0.00     0.004 C 
HETATM   14  C   UNL     1      42.101  -9.972   7.407  1.00  0.00     0.012 C 
HETATM   15  C   UNL     1      44.255  -9.201   8.440  1.00  0.00     0.006 C 
HETATM   16  C   UNL     1      45.770  -9.083   8.305  1.00  0.00     0.001 C 
HETATM   17  C   UNL     1      46.412 -10.432   8.002  1.00  0.00     0.002 C 
HETATM   18  C   UNL     1      45.801 -11.072   6.759  1.00  0.00     0.026 C 
ENDBRANCH   8  12
ENDBRANCH   3   4
ENDBRANCH   1   3
BRANCH   1  19
HETATM   19  C   UNL     1      39.957 -14.075   1.832  1.00  0.00     0.300 C 
BRANCH  19  20
HETATM   20  C   UNL     1      40.030 -13.863   0.363  1.00  0.00     0.078 A 
HETATM   21  O   UNL     1      40.459 -12.636  -0.056  1.00  0.00    -0.325 OA
HETATM   22  C   UNL     1      40.434 -12.645  -1.414  1.00  0.00     0.142 A 
HETATM   23  C   UNL     1      40.000 -13.865  -1.875  1.00  0.00     0.027 A 
HETATM   24  C   UNL     1      39.734 -14.653  -0.728  1.00  0.00     0.036 A 
ENDBRANCH  19  20
ENDBRANCH   1  19
BRANCH   1  25
HETATM   25  C   UNL     1      41.208 -16.248   2.146  1.00  0.00     0.277 C 
BRANCH  25  26
HETATM   26  C   UNL     1      42.231 -16.966   2.980  1.00  0.00     0.001 A 
HETATM   27  C   UNL     1      42.266 -16.809   4.370  1.00  0.00     0.073 A 
HETATM   28  C   UNL     1      43.216 -17.465   5.148  1.00  0.00     0.037 A 
HETATM   29  C   UNL     1      44.147 -18.301   4.535  1.00  0.00     0.003 A 
HETATM   30  C   UNL     1      44.122 -18.480   3.153  1.00  0.00     0.001 A 
HETATM   31  C   UNL     1      43.167 -17.819   2.378  1.00  0.00     0.011 A 
BRANCH  27  32
HETATM   32  O   UNL     1      41.339 -15.995   4.959  1.00  0.00    -0.360 OA
HETATM   33  H   UNL     1      41.398 -15.114   4.539  1.00  0.00     0.217 HD
ENDBRANCH  27  32
ENDBRANCH  25  26
ENDBRANCH   1  25
TORSDOF 8
ENDMDL
MODEL 4
REMARK VINA RESULT:      -7.9      3.327      6.638
REMARK  8 active torsions:
REMARK  status: ('A' for Active; 'I' for Inactive)
REMARK    1  A    between atoms: C_3  and  N_4 
REMARK       I    between atoms: N_4  and  C_5 
REMARK       I    between atoms: C_5  and  N_6 
REMARK       I    between atoms: N_6  and  C_7 
REMARK    2  A    between atoms: C_7  and  C_8 
REMARK    3  A    between atoms: C_8  and  N_9 
REMARK    4  A    between atoms: N_9  and  C_11 
REMARK    5  A    between atoms: N_9  and  C_17 
REMARK    6  A    between atoms: C_11  and  C_12 
REMARK    7  A    between atoms: C_17  and  C_18 
REMARK    8  A    between atoms: C_19  and  O_20 
ROOT
HETATM    1  N   UNL     1      41.720 -14.617   5.519  1.00  0.00    -0.053 N 
HETATM    2  H   UNL     1      42.224 -14.432   4.640  1.00  0.00     0.281 HD
ENDROOT
BRANCH   1   3
HETATM    3  C   UNL     1      40.465 -13.754   5.407  1.00  0.00     0.338 C 
BRANCH   3   4
HETATM    4  C   UNL     1      40.153 -13.330   3.972  1.00  0.00     0.251 C 
HETATM    5  N   UNL     1      41.219 -13.429   3.103  1.00  0.00    -0.278 N 
HETATM    6  C   UNL     1      41.188 -13.476   1.733  1.00  0.00     0.323 C 
HETATM    7  H   UNL     1      42.100 -13.806   3.429  1.00  0.00     0.173 HD
HETATM    8  N   UNL     1      40.027 -13.099   1.138  1.00  0.00    -0.338 N 
HETATM    9  O   UNL     1      42.181 -13.894   1.148  1.00  0.00    -0.247 OA
HETATM   10  H   UNL     1      39.314 -12.683   1.729  1.00  0.00     0.164 HD
HETATM   11  O   UNL     1      39.034 -12.905   3.681  1.00  0.00    -0.271 OA
BRANCH   8  12
HETATM   12  C   UNL     1      39.809 -13.044  -0.308  1.00  0.00     0.089 C 
HETATM   13  C   UNL     1      38.692 -12.059  -0.729  1.00  0.00     0.004 C 
HETATM   14  C   UNL     1      38.971 -10.635  -0.236  1.00  0.00     0.012 C 
HETATM   15  C   UNL     1      38.523 -12.054  -2.258  1.00  0.00     0.006 C 
HETATM   16  C   UNL     1      38.290 -13.456  -2.813  1.00  0.00     0.001 C 
HETATM   17  C   UNL     1      39.404 -14.412  -2.403  1.00  0.00     0.002 C 
HETATM   18  C   UNL     1      39.579 -14.447  -0.888  1.00  0.00     0.026 C 
ENDBRANCH   8  12
ENDBRANCH   3   4
ENDBRANCH   1   3
BRANCH   1  19
HETATM   19  C   UNL     1      42.684 -14.200   6.610  1.00  0.00     0.300 C 
BRANCH  19  20
HETATM   20  C   UNL     1      43.539 -13.031   6.280  1.00  0.00     0.078 A 
HETATM   21  O   UNL     1      43.512 -12.600   4.985  1.00  0.00    -0.325 OA
HETATM   22  C   UNL     1      44.367 -11.549   4.895  1.00  0.00     0.142 A 
HETATM   23  C   UNL     1      44.940 -11.293   6.118  1.00  0.00     0.027 A 
HETATM   24  C   UNL     1      44.410 -12.252   7.015  1.00  0.00     0.036 A 
ENDBRANCH  19  20
ENDBRANCH   1  19
BRANCH   1  25
HETATM   25  C   UNL     1      41.396 -16.089   5.535  1.00  0.00     0.277 C 
BRANCH  25  26
HETATM   26  C   UNL     1      42.329 -16.895   4.676  1.00  0.00     0.001 A 
HETATM   27  C   UNL     1      42.119 -17.012   3.298  1.00  0.00     0.073 A 
HETATM   28  C   UNL     1      42.976 -17.763   2.497  1.00  0.00     0.037 A 
HETATM   29  C   UNL     1      44.068 -18.406   3.075  1.00  0.00     0.003 A 
HETATM   30  C   UNL     1      44.302 -18.293   4.445  1.00  0.00     0.001 A 
HETATM   31  C   UNL     1      43.439 -17.538   5.242  1.00  0.00     0.011 A 
BRANCH  27  32
HETATM   32  O   UNL     1      41.051 -16.366   2.742  1.00  0.00    -0.360 OA
HETATM   33  H   UNL     1      40.404 -16.184   3.452  1.00  0.00     0.217 HD
ENDBRANCH  27  32
ENDBRANCH  25  26
ENDBRANCH   1  25
TORSDOF 8
ENDMDL
MODEL 5
REMARK VINA RESULT:      -7.9      2.409      3.823
REMARK  8 active torsions:
REMARK  status: ('A' for Active; 'I' for Inactive)
REMARK    1  A    between atoms: C_3  and  N_4 
REMARK       I    between atoms: N_4  and  C_5 
REMARK       I    between atoms: C_5  and  N_6 
REMARK       I    between atoms: N_6  and  C_7 
REMARK    2  A    between atoms: C_7  and  C_8 
REMARK    3  A    between atoms: C_8  and  N_9 
REMARK    4  A    between atoms: N_9  and  C_11 
REMARK    5  A    between atoms: N_9  and  C_17 
REMARK    6  A    between atoms: C_11  and  C_12 
REMARK    7  A    between atoms: C_17  and  C_18 
REMARK    8  A    between atoms: C_19  and  O_20 
ROOT
HETATM    1  N   UNL     1      41.496 -13.743   3.202  1.00  0.00    -0.053 N 
HETATM    2  H   UNL     1      41.015 -14.580   2.845  1.00  0.00     0.281 HD
ENDROOT
BRANCH   1   3
HETATM    3  C   UNL     1      40.838 -13.495   4.557  1.00  0.00     0.338 C 
BRANCH   3   4
HETATM    4  C   UNL     1      41.745 -12.757   5.540  1.00  0.00     0.251 C 
HETATM    5  N   UNL     1      41.859 -11.402   5.306  1.00  0.00    -0.278 N 
HETATM    6  C   UNL     1      42.279 -10.429   6.175  1.00  0.00     0.323 C 
HETATM    7  H   UNL     1      41.323 -10.975   4.561  1.00  0.00     0.173 HD
HETATM    8  N   UNL     1      42.929 -10.850   7.291  1.00  0.00    -0.338 N 
HETATM    9  O   UNL     1      42.003  -9.263   5.912  1.00  0.00    -0.247 OA
HETATM   10  H   UNL     1      43.178 -11.833   7.343  1.00  0.00     0.164 HD
HETATM   11  O   UNL     1      42.334 -13.378   6.426  1.00  0.00    -0.271 OA
BRANCH   8  12
HETATM   12  C   UNL     1      43.486  -9.967   8.315  1.00  0.00     0.089 C 
HETATM   13  C   UNL     1      44.813 -10.483   8.924  1.00  0.00     0.004 C 
HETATM   14  C   UNL     1      45.885 -10.702   7.851  1.00  0.00     0.012 C 
HETATM   15  C   UNL     1      45.338  -9.503   9.988  1.00  0.00     0.006 C 
HETATM   16  C   UNL     1      44.292  -9.209  11.060  1.00  0.00     0.001 C 
HETATM   17  C   UNL     1      42.996  -8.688  10.449  1.00  0.00     0.002 C 
HETATM   18  C   UNL     1      42.447  -9.652   9.402  1.00  0.00     0.026 C 
ENDBRANCH   8  12
ENDBRANCH   3   4
ENDBRANCH   1   3
BRANCH   1  19
HETATM   19  C   UNL     1      41.233 -12.675   2.161  1.00  0.00     0.300 C 
BRANCH  19  20
HETATM   20  C   UNL     1      40.725 -13.178   0.858  1.00  0.00     0.078 A 
HETATM   21  O   UNL     1      40.208 -14.442   0.852  1.00  0.00    -0.325 OA
HETATM   22  C   UNL     1      39.824 -14.710  -0.423  1.00  0.00     0.142 A 
HETATM   23  C   UNL     1      40.083 -13.633  -1.236  1.00  0.00     0.027 A 
HETATM   24  C   UNL     1      40.669 -12.643  -0.412  1.00  0.00     0.036 A 
ENDBRANCH  19  20
ENDBRANCH   1  19
BRANCH   1  25
HETATM   25  C   UNL     1      42.955 -14.102   3.338  1.00  0.00     0.277 C 
BRANCH  25  26
HETATM   26  C   UNL     1      43.183 -15.586   3.358  1.00  0.00     0.001 A 
HETATM   27  C   UNL     1      43.164 -16.334   2.175  1.00  0.00     0.073 A 
HETATM   28  C   UNL     1      43.368 -17.712   2.187  1.00  0.00     0.037 A 
HETATM   29  C   UNL     1      43.601 -18.361   3.398  1.00  0.00     0.003 A 
HETATM   30  C   UNL     1      43.635 -17.633   4.586  1.00  0.00     0.001 A 
HETATM   31  C   UNL     1      43.431 -16.252   4.568  1.00  0.00     0.011 A 
BRANCH  27  32
HETATM   32  O   UNL     1      42.946 -15.683   0.993  1.00  0.00    -0.360 OA
HETATM   33  H   UNL     1      42.365 -16.243   0.441  1.00  0.00     0.217 HD
ENDBRANCH  27  32
ENDBRANCH  25  26
ENDBRANCH   1  25
TORSDOF 8
ENDMDL
MODEL 6
REMARK VINA RESULT:      -7.6      1.684      4.265
REMARK  8 active torsions:
REMARK  status: ('A' for Active; 'I' for Inactive)
REMARK    1  A    between atoms: C_3  and  N_4 
REMARK       I    between atoms: N_4  and  C_5 
REMARK       I    between atoms: C_5  and  N_6 
REMARK       I    between atoms: N_6  and  C_7 
REMARK    2  A    between atoms: C_7  and  C_8 
REMARK    3  A    between atoms: C_8  and  N_9 
REMARK    4  A    between atoms: N_9  and  C_11 
REMARK    5  A    between atoms: N_9  and  C_17 
REMARK    6  A    between atoms: C_11  and  C_12 
REMARK    7  A    between atoms: C_17  and  C_18 
REMARK    8  A    between atoms: C_19  and  O_20 
ROOT
HETATM    1  N   UNL     1      43.061 -16.504   5.008  1.00  0.00    -0.053 N 
HETATM    2  H   UNL     1      43.346 -15.634   4.537  1.00  0.00     0.281 HD
ENDROOT
BRANCH   1   3
HETATM    3  C   UNL     1      42.535 -16.028   6.361  1.00  0.00     0.338 C 
BRANCH   3   4
HETATM    4  C   UNL     1      43.103 -14.675   6.786  1.00  0.00     0.251 C 
HETATM    5  N   UNL     1      43.336 -13.801   5.744  1.00  0.00    -0.278 N 
HETATM    6  C   UNL     1      43.489 -12.440   5.805  1.00  0.00     0.323 C 
HETATM    7  H   UNL     1      43.084 -14.066   4.800  1.00  0.00     0.173 HD
HETATM    8  N   UNL     1      43.730 -11.909   7.032  1.00  0.00    -0.338 N 
HETATM    9  O   UNL     1      43.355 -11.799   4.768  1.00  0.00    -0.247 OA
HETATM   10  H   UNL     1      43.913 -12.557   7.792  1.00  0.00     0.164 HD
HETATM   11  O   UNL     1      43.353 -14.453   7.971  1.00  0.00    -0.271 OA
BRANCH   8  12
HETATM   12  C   UNL     1      43.960 -10.489   7.296  1.00  0.00     0.089 C 
HETATM   13  C   UNL     1      45.229 -10.213   8.138  1.00  0.00     0.004 C 
HETATM   14  C   UNL     1      46.488 -10.783   7.474  1.00  0.00     0.012 C 
HETATM   15  C   UNL     1      45.406  -8.703   8.371  1.00  0.00     0.006 C 
HETATM   16  C   UNL     1      44.161  -8.070   8.989  1.00  0.00     0.001 C 
HETATM   17  C   UNL     1      42.921  -8.337   8.143  1.00  0.00     0.002 C 
HETATM   18  C   UNL     1      42.716  -9.831   7.912  1.00  0.00     0.026 C 
ENDBRANCH   8  12
ENDBRANCH   3   4
ENDBRANCH   1   3
BRANCH   1  19
HETATM   19  C   UNL     1      44.323 -17.338   5.073  1.00  0.00     0.300 C 
BRANCH  19  20
HETATM   20  C   UNL     1      44.167 -18.748   4.631  1.00  0.00     0.078 A 
HETATM   21  O   UNL     1      44.136 -18.966   3.284  1.00  0.00    -0.325 OA
HETATM   22  C   UNL     1      43.971 -20.301   3.098  1.00  0.00     0.142 A 
HETATM   23  C   UNL     1      43.902 -20.947   4.309  1.00  0.00     0.027 A 
HETATM   24  C   UNL     1      44.025 -19.945   5.302  1.00  0.00     0.036 A 
ENDBRANCH  19  20
ENDBRANCH   1  19
BRANCH   1  25
HETATM   25  C   UNL     1      41.975 -17.123   4.164  1.00  0.00     0.277 C 
BRANCH  25  26
HETATM   26  C   UNL     1      41.472 -16.191   3.099  1.00  0.00     0.001 A 
HETATM   27  C   UNL     1      42.257 -15.882   1.982  1.00  0.00     0.073 A 
HETATM   28  C   UNL     1      41.800 -15.013   0.994  1.00  0.00     0.037 A 
HETATM   29  C   UNL     1      40.535 -14.444   1.113  1.00  0.00     0.003 A 
HETATM   30  C   UNL     1      39.732 -14.747   2.212  1.00  0.00     0.001 A 
HETATM   31  C   UNL     1      40.195 -15.619   3.199  1.00  0.00     0.011 A 
BRANCH  27  32
HETATM   32  O   UNL     1      43.492 -16.458   1.873  1.00  0.00    -0.360 OA
HETATM   33  H   UNL     1      43.715 -16.519   0.922  1.00  0.00     0.217 HD
ENDBRANCH  27  32
ENDBRANCH  25  26
ENDBRANCH   1  25
TORSDOF 8
ENDMDL
MODEL 7
REMARK VINA RESULT:      -7.6      2.469      4.553
REMARK  8 active torsions:
REMARK  status: ('A' for Active; 'I' for Inactive)
REMARK    1  A    between atoms: C_3  and  N_4 
REMARK       I    between atoms: N_4  and  C_5 
REMARK       I    between atoms: C_5  and  N_6 
REMARK       I    between atoms: N_6  and  C_7 
REMARK    2  A    between atoms: C_7  and  C_8 
REMARK    3  A    between atoms: C_8  and  N_9 
REMARK    4  A    between atoms: N_9  and  C_11 
REMARK    5  A    between atoms: N_9  and  C_17 
REMARK    6  A    between atoms: C_11  and  C_12 
REMARK    7  A    between atoms: C_17  and  C_18 
REMARK    8  A    between atoms: C_19  and  O_20 
ROOT
HETATM    1  N   UNL     1      41.826 -14.660   1.912  1.00  0.00    -0.053 N 
HETATM    2  H   UNL     1      41.961 -15.165   1.024  1.00  0.00     0.281 HD
ENDROOT
BRANCH   1   3
HETATM    3  C   UNL     1      43.208 -14.083   2.215  1.00  0.00     0.338 C 
BRANCH   3   4
HETATM    4  C   UNL     1      43.203 -13.088   3.375  1.00  0.00     0.251 C 
HETATM    5  N   UNL     1      43.039 -13.662   4.618  1.00  0.00    -0.278 N 
HETATM    6  C   UNL     1      43.341 -13.122   5.842  1.00  0.00     0.323 C 
HETATM    7  H   UNL     1      42.983 -14.669   4.703  1.00  0.00     0.173 HD
HETATM    8  N   UNL     1      43.553 -11.780   5.879  1.00  0.00    -0.338 N 
HETATM    9  O   UNL     1      43.443 -13.883   6.798  1.00  0.00    -0.247 OA
HETATM   10  H   UNL     1      43.344 -11.252   5.037  1.00  0.00     0.164 HD
HETATM   11  O   UNL     1      43.300 -11.880   3.155  1.00  0.00    -0.271 OA
BRANCH   8  12
HETATM   12  C   UNL     1      43.848 -11.015   7.090  1.00  0.00     0.089 C 
HETATM   13  C   UNL     1      43.078  -9.675   7.180  1.00  0.00     0.004 C 
HETATM   14  C   UNL     1      41.561  -9.883   7.106  1.00  0.00     0.012 C 
HETATM   15  C   UNL     1      43.436  -8.931   8.477  1.00  0.00     0.006 C 
HETATM   16  C   UNL     1      44.942  -8.737   8.628  1.00  0.00     0.001 C 
HETATM   17  C   UNL     1      45.687 -10.065   8.553  1.00  0.00     0.002 C 
HETATM   18  C   UNL     1      45.361 -10.814   7.266  1.00  0.00     0.026 C 
ENDBRANCH   8  12
ENDBRANCH   3   4
ENDBRANCH   1   3
BRANCH   1  19
HETATM   19  C   UNL     1      41.350 -15.717   2.886  1.00  0.00     0.300 C 
BRANCH  19  20
HETATM   20  C   UNL     1      42.334 -16.792   3.178  1.00  0.00     0.078 A 
HETATM   21  O   UNL     1      42.926 -16.760   4.408  1.00  0.00    -0.325 OA
HETATM   22  C   UNL     1      43.792 -17.804   4.463  1.00  0.00     0.142 A 
HETATM   23  C   UNL     1      43.762 -18.511   3.285  1.00  0.00     0.027 A 
HETATM   24  C   UNL     1      42.822 -17.857   2.451  1.00  0.00     0.036 A 
ENDBRANCH  19  20
ENDBRANCH   1  19
BRANCH   1  25
HETATM   25  C   UNL     1      40.806 -13.580   1.652  1.00  0.00     0.277 C 
BRANCH  25  26
HETATM   26  C   UNL     1      40.610 -13.314   0.186  1.00  0.00     0.001 A 
HETATM   27  C   UNL     1      39.967 -14.247  -0.636  1.00  0.00     0.073 A 
HETATM   28  C   UNL     1      39.789 -14.010  -1.997  1.00  0.00     0.037 A 
HETATM   29  C   UNL     1      40.252 -12.820  -2.553  1.00  0.00     0.003 A 
HETATM   30  C   UNL     1      40.885 -11.873  -1.749  1.00  0.00     0.001 A 
HETATM   31  C   UNL     1      41.061 -12.116  -0.386  1.00  0.00     0.011 A 
BRANCH  27  32
HETATM   32  O   UNL     1      39.507 -15.405  -0.074  1.00  0.00    -0.360 OA
HETATM   33  H   UNL     1      39.195 -15.201   0.830  1.00  0.00     0.217 HD
ENDBRANCH  27  32
ENDBRANCH  25  26
ENDBRANCH   1  25
TORSDOF 8
ENDMDL
MODEL 8
REMARK VINA RESULT:      -7.6      2.648      4.015
REMARK  8 active torsions:
REMARK  status: ('A' for Active; 'I' for Inactive)
REMARK    1  A    between atoms: C_3  and  N_4 
REMARK       I    between atoms: N_4  and  C_5 
REMARK       I    between atoms: C_5  and  N_6 
REMARK       I    between atoms: N_6  and  C_7 
REMARK    2  A    between atoms: C_7  and  C_8 
REMARK    3  A    between atoms: C_8  and  N_9 
REMARK    4  A    between atoms: N_9  and  C_11 
REMARK    5  A    between atoms: N_9  and  C_17 
REMARK    6  A    between atoms: C_11  and  C_12 
REMARK    7  A    between atoms: C_17  and  C_18 
REMARK    8  A    between atoms: C_19  and  O_20 
ROOT
HETATM    1  N   UNL     1      40.768 -13.908   1.714  1.00  0.00    -0.053 N 
HETATM    2  H   UNL     1      40.461 -13.761   2.686  1.00  0.00     0.281 HD
ENDROOT
BRANCH   1   3
HETATM    3  C   UNL     1      42.160 -13.281   1.673  1.00  0.00     0.338 C 
BRANCH   3   4
HETATM    4  C   UNL     1      42.415 -12.307   2.823  1.00  0.00     0.251 C 
HETATM    5  N   UNL     1      42.009 -12.764   4.059  1.00  0.00    -0.278 N 
HETATM    6  C   UNL     1      42.404 -12.317   5.294  1.00  0.00     0.323 C 
HETATM    7  H   UNL     1      41.626 -13.696   4.149  1.00  0.00     0.173 HD
HETATM    8  N   UNL     1      43.035 -11.115   5.332  1.00  0.00    -0.338 N 
HETATM    9  O   UNL     1      42.203 -13.044   6.260  1.00  0.00    -0.247 OA
HETATM   10  H   UNL     1      43.053 -10.570   4.475  1.00  0.00     0.164 HD
HETATM   11  O   UNL     1      42.909 -11.201   2.599  1.00  0.00    -0.271 OA
BRANCH   8  12
HETATM   12  C   UNL     1      43.496 -10.453   6.552  1.00  0.00     0.089 C 
HETATM   13  C   UNL     1      44.628 -11.217   7.282  1.00  0.00     0.004 C 
HETATM   14  C   UNL     1      45.842 -11.441   6.374  1.00  0.00     0.012 C 
HETATM   15  C   UNL     1      45.061 -10.461   8.550  1.00  0.00     0.006 C 
HETATM   16  C   UNL     1      43.881 -10.168   9.472  1.00  0.00     0.001 C 
HETATM   17  C   UNL     1      42.781  -9.402   8.746  1.00  0.00     0.002 C 
HETATM   18  C   UNL     1      42.323 -10.142   7.493  1.00  0.00     0.026 C 
ENDBRANCH   8  12
ENDBRANCH   3   4
ENDBRANCH   1   3
BRANCH   1  19
HETATM   19  C   UNL     1      39.726 -13.203   0.872  1.00  0.00     0.300 C 
BRANCH  19  20
HETATM   20  C   UNL     1      39.922 -13.318  -0.596  1.00  0.00     0.078 A 
HETATM   21  O   UNL     1      39.247 -14.325  -1.225  1.00  0.00    -0.325 OA
HETATM   22  C   UNL     1      39.576 -14.267  -2.541  1.00  0.00     0.142 A 
HETATM   23  C   UNL     1      40.451 -13.231  -2.769  1.00  0.00     0.027 A 
HETATM   24  C   UNL     1      40.679 -12.619  -1.513  1.00  0.00     0.036 A 
ENDBRANCH  19  20
ENDBRANCH   1  19
BRANCH   1  25
HETATM   25  C   UNL     1      40.811 -15.399   1.491  1.00  0.00     0.277 C 
BRANCH  25  26
HETATM   26  C   UNL     1      41.642 -16.112   2.520  1.00  0.00     0.001 A 
HETATM   27  C   UNL     1      41.333 -16.024   3.882  1.00  0.00     0.073 A 
HETATM   28  C   UNL     1      42.103 -16.676   4.842  1.00  0.00     0.037 A 
HETATM   29  C   UNL     1      43.200 -17.436   4.442  1.00  0.00     0.003 A 
HETATM   30  C   UNL     1      43.519 -17.545   3.089  1.00  0.00     0.001 A 
HETATM   31  C   UNL     1      42.743 -16.890   2.131  1.00  0.00     0.011 A 
BRANCH  27  32
HETATM   32  O   UNL     1      40.247 -15.285   4.260  1.00  0.00    -0.360 OA
HETATM   33  H   UNL     1      40.485 -14.789   5.068  1.00  0.00     0.217 HD
ENDBRANCH  27  32
ENDBRANCH  25  26
ENDBRANCH   1  25
TORSDOF 8
ENDMDL
MODEL 9
REMARK VINA RESULT:      -7.5      3.219      6.786
REMARK  8 active torsions:
REMARK  status: ('A' for Active; 'I' for Inactive)
REMARK    1  A    between atoms: C_3  and  N_4 
REMARK       I    between atoms: N_4  and  C_5 
REMARK       I    between atoms: C_5  and  N_6 
REMARK       I    between atoms: N_6  and  C_7 
REMARK    2  A    between atoms: C_7  and  C_8 
REMARK    3  A    between atoms: C_8  and  N_9 
REMARK    4  A    between atoms: N_9  and  C_11 
REMARK    5  A    between atoms: N_9  and  C_17 
REMARK    6  A    between atoms: C_11  and  C_12 
REMARK    7  A    between atoms: C_17  and  C_18 
REMARK    8  A    between atoms: C_19  and  O_20 
ROOT
HETATM    1  N   UNL     1      43.023 -14.047   5.396  1.00  0.00    -0.053 N 
HETATM    2  H   UNL     1      43.920 -14.305   4.961  1.00  0.00     0.281 HD
ENDROOT
BRANCH   1   3
HETATM    3  C   UNL     1      42.541 -12.862   4.562  1.00  0.00     0.338 C 
BRANCH   3   4
HETATM    4  C   UNL     1      42.206 -13.239   3.119  1.00  0.00     0.251 C 
HETATM    5  N   UNL     1      40.860 -13.211   2.820  1.00  0.00    -0.278 N 
HETATM    6  C   UNL     1      40.273 -13.141   1.583  1.00  0.00     0.323 C 
HETATM    7  H   UNL     1      40.195 -12.909   3.521  1.00  0.00     0.173 HD
HETATM    8  N   UNL     1      41.067 -13.418   0.516  1.00  0.00    -0.338 N 
HETATM    9  O   UNL     1      39.099 -12.794   1.521  1.00  0.00    -0.247 OA
HETATM   10  H   UNL     1      41.994 -13.785   0.709  1.00  0.00     0.164 HD
HETATM   11  O   UNL     1      43.102 -13.571   2.341  1.00  0.00    -0.271 OA
BRANCH   8  12
HETATM   12  C   UNL     1      40.619 -13.434  -0.876  1.00  0.00     0.089 C 
HETATM   13  C   UNL     1      40.125 -12.058  -1.384  1.00  0.00     0.004 C 
HETATM   14  C   UNL     1      41.203 -10.978  -1.244  1.00  0.00     0.012 C 
HETATM   15  C   UNL     1      39.675 -12.153  -2.852  1.00  0.00     0.006 C 
HETATM   16  C   UNL     1      38.633 -13.248  -3.061  1.00  0.00     0.001 C 
HETATM   17  C   UNL     1      39.137 -14.601  -2.570  1.00  0.00     0.002 C 
HETATM   18  C   UNL     1      39.574 -14.535  -1.111  1.00  0.00     0.026 C 
ENDBRANCH   8  12
ENDBRANCH   3   4
ENDBRANCH   1   3
BRANCH   1  19
HETATM   19  C   UNL     1      43.373 -13.715   6.831  1.00  0.00     0.300 C 
BRANCH  19  20
HETATM   20  C   UNL     1      44.276 -12.548   7.004  1.00  0.00     0.078 A 
HETATM   21  O   UNL     1      44.137 -11.835   8.160  1.00  0.00    -0.325 OA
HETATM   22  C   UNL     1      45.031 -10.813   8.110  1.00  0.00     0.142 A 
HETATM   23  C   UNL     1      45.748 -10.863   6.938  1.00  0.00     0.027 A 
HETATM   24  C   UNL     1      45.259 -11.982   6.219  1.00  0.00     0.036 A 
ENDBRANCH  19  20
ENDBRANCH   1  19
BRANCH   1  25
HETATM   25  C   UNL     1      42.112 -15.242   5.261  1.00  0.00     0.277 C 
BRANCH  25  26
HETATM   26  C   UNL     1      42.773 -16.394   4.559  1.00  0.00     0.001 A 
HETATM   27  C   UNL     1      43.793 -17.126   5.178  1.00  0.00     0.073 A 
HETATM   28  C   UNL     1      44.415 -18.190   4.530  1.00  0.00     0.037 A 
HETATM   29  C   UNL     1      44.013 -18.540   3.243  1.00  0.00     0.003 A 
HETATM   30  C   UNL     1      42.991 -17.830   2.613  1.00  0.00     0.001 A 
HETATM   31  C   UNL     1      42.371 -16.765   3.268  1.00  0.00     0.011 A 
BRANCH  27  32
HETATM   32  O   UNL     1      44.169 -16.779   6.445  1.00  0.00    -0.360 OA
HETATM   33  H   UNL     1      43.367 -16.753   7.003  1.00  0.00     0.217 HD
ENDBRANCH  27  32
ENDBRANCH  25  26
ENDBRANCH   1  25
TORSDOF 8
ENDMDL
MODEL 10
REMARK VINA RESULT:      -7.2      2.286      7.759
REMARK  8 active torsions:
REMARK  status: ('A' for Active; 'I' for Inactive)
REMARK    1  A    between atoms: C_3  and  N_4 
REMARK       I    between atoms: N_4  and  C_5 
REMARK       I    between atoms: C_5  and  N_6 
REMARK       I    between atoms: N_6  and  C_7 
REMARK    2  A    between atoms: C_7  and  C_8 
REMARK    3  A    between atoms: C_8  and  N_9 
REMARK    4  A    between atoms: N_9  and  C_11 
REMARK    5  A    between atoms: N_9  and  C_17 
REMARK    6  A    between atoms: C_11  and  C_12 
REMARK    7  A    between atoms: C_17  and  C_18 
REMARK    8  A    between atoms: C_19  and  O_20 
ROOT
HETATM    1  N   UNL     1      41.235  -9.963   6.506  1.00  0.00    -0.053 N 
HETATM    2  H   UNL     1      41.926 -10.557   6.026  1.00  0.00     0.281 HD
ENDROOT
BRANCH   1   3
HETATM    3  C   UNL     1      39.970 -10.819   6.523  1.00  0.00     0.338 C 
BRANCH   3   4
HETATM    4  C   UNL     1      40.188 -12.225   5.967  1.00  0.00     0.251 C 
HETATM    5  N   UNL     1      41.056 -12.288   4.897  1.00  0.00    -0.278 N 
HETATM    6  C   UNL     1      41.724 -13.384   4.417  1.00  0.00     0.323 C 
HETATM    7  H   UNL     1      41.522 -11.448   4.579  1.00  0.00     0.173 HD
HETATM    8  N   UNL     1      41.283 -14.598   4.838  1.00  0.00    -0.338 N 
HETATM    9  O   UNL     1      42.691 -13.196   3.687  1.00  0.00    -0.247 OA
HETATM   10  H   UNL     1      40.415 -14.621   5.365  1.00  0.00     0.164 HD
HETATM   11  O   UNL     1      39.580 -13.182   6.448  1.00  0.00    -0.271 OA
BRANCH   8  12
HETATM   12  C   UNL     1      41.837 -15.882   4.411  1.00  0.00     0.089 C 
HETATM   13  C   UNL     1      43.320 -16.080   4.808  1.00  0.00     0.004 C 
HETATM   14  C   UNL     1      43.527 -15.952   6.321  1.00  0.00     0.012 C 
HETATM   15  C   UNL     1      43.831 -17.449   4.330  1.00  0.00     0.006 C 
HETATM   16  C   UNL     1      43.607 -17.653   2.833  1.00  0.00     0.001 C 
HETATM   17  C   UNL     1      42.141 -17.470   2.458  1.00  0.00     0.002 C 
HETATM   18  C   UNL     1      41.616 -16.111   2.908  1.00  0.00     0.026 C 
ENDBRANCH   8  12
ENDBRANCH   3   4
ENDBRANCH   1   3
BRANCH   1  19
HETATM   19  C   UNL     1      41.147  -8.713   5.657  1.00  0.00     0.300 C 
BRANCH  19  20
HETATM   20  C   UNL     1      40.822  -8.946   4.226  1.00  0.00     0.078 A 
HETATM   21  O   UNL     1      41.643  -9.797   3.544  1.00  0.00    -0.325 OA
HETATM   22  C   UNL     1      41.187  -9.855   2.266  1.00  0.00     0.142 A 
HETATM   23  C   UNL     1      40.079  -9.056   2.118  1.00  0.00     0.027 A 
HETATM   24  C   UNL     1      39.842  -8.464   3.382  1.00  0.00     0.036 A 
ENDBRANCH  19  20
ENDBRANCH   1  19
BRANCH   1  25
HETATM   25  C   UNL     1      41.765  -9.709   7.895  1.00  0.00     0.277 C 
BRANCH  25  26
HETATM   26  C   UNL     1      43.265  -9.775   7.959  1.00  0.00     0.001 A 
HETATM   27  C   UNL     1      43.949 -10.952   7.633  1.00  0.00     0.073 A 
HETATM   28  C   UNL     1      45.339 -11.022   7.698  1.00  0.00     0.037 A 
HETATM   29  C   UNL     1      46.065  -9.900   8.089  1.00  0.00     0.003 A 
HETATM   30  C   UNL     1      45.404  -8.715   8.408  1.00  0.00     0.001 A 
HETATM   31  C   UNL     1      44.011  -8.650   8.341  1.00  0.00     0.011 A 
BRANCH  27  32
HETATM   32  O   UNL     1      43.224 -12.041   7.239  1.00  0.00    -0.360 OA
HETATM   33  H   UNL     1      43.376 -12.757   7.888  1.00  0.00     0.217 HD
ENDBRANCH  27  32
ENDBRANCH  25  26
ENDBRANCH   1  25
TORSDOF 8
ENDMDL
