MODEL 1
REMARK VINA RESULT:      -9.6      0.000      0.000
REMARK  7 active torsions:
REMARK  status: ('A' for Active; 'I' for Inactive)
REMARK    1  A    between atoms: N_1  and  C_5 
REMARK    2  A    between atoms: C_11  and  N_12 
REMARK       I    between atoms: N_12  and  C_13 
REMARK    3  A    between atoms: C_13  and  C_15 
REMARK    4  A    between atoms: C_19  and  C_20 
REMARK    5  A    between atoms: C_20  and  N_21 
REMARK       I    between atoms: N_21  and  C_22 
REMARK    6  A    between atoms: C_22  and  C_24 
REMARK    7  A    between atoms: C_27  and  C_30 
ROOT
HETATM    1  C   UNL     1      44.269 -10.431   8.804  1.00  0.00     0.033 A 
HETATM    2  C   UNL     1      45.663 -10.464   8.690  1.00  0.00     0.017 A 
HETATM    3  C   UNL     1      46.255 -10.738   7.457  1.00  0.00     0.002 A 
HETATM    4  C   UNL     1      45.460 -10.978   6.335  1.00  0.00     0.009 A 
HETATM    5  C   UNL     1      44.065 -10.923   6.429  1.00  0.00    -0.040 A 
HETATM    6  C   UNL     1      43.476 -10.638   7.670  1.00  0.00     0.026 A 
ENDROOT
BRANCH   1   7
HETATM    7  C   UNL     1      43.665 -10.139  10.126  1.00  0.00     0.257 C 
HETATM    8  N   UNL     1      42.689  -9.097  10.184  1.00  0.00    -0.303 N 
HETATM    9  H   UNL     1      42.309  -8.708   9.334  1.00  0.00     0.171 HD
HETATM   10  O   UNL     1      43.973 -10.751  11.131  1.00  0.00    -0.267 OA
BRANCH   8  11
HETATM   11  C   UNL     1      42.214  -8.591  11.316  1.00  0.00     0.152 A 
HETATM   12  N   UNL     1      43.042  -8.073  12.250  1.00  0.00    -0.339 N 
HETATM   13  C   UNL     1      42.390  -7.640  13.385  1.00  0.00     0.024 A 
HETATM   14  H   UNL     1      44.044  -8.020  12.079  1.00  0.00     0.168 HD
HETATM   15  C   UNL     1      43.138  -7.086  14.541  1.00  0.00     0.060 C 
HETATM   16  C   UNL     1      41.033  -7.802  13.343  1.00  0.00     0.011 A 
HETATM   17  C   UNL     1      42.182  -6.352  15.511  1.00  0.00     0.039 C 
HETATM   18  C   UNL     1      40.810  -7.035  15.726  1.00  0.00     0.188 C 
HETATM   19  C   UNL     1      40.072  -7.356  14.400  1.00  0.00     0.081 C 
HETATM   20  S   UNL     1      40.559  -8.530  11.880  1.00  0.00    -0.056 SA
BRANCH  18  21
HETATM   21  N   UNL     1      40.985  -8.284  16.537  1.00  0.00    -0.075 N 
HETATM   22  H   UNL     1      40.084  -8.622  16.912  1.00  0.00     0.274 HD
HETATM   23  H   UNL     1      41.335  -9.059  15.948  1.00  0.00     0.274 HD
HETATM   24  H   UNL     1      41.637  -8.200  17.326  1.00  0.00     0.274 HD
ENDBRANCH  18  21
ENDBRANCH   8  11
ENDBRANCH   1   7
BRANCH   5  25
HETATM   25  C   UNL     1      43.192 -11.233   5.239  1.00  0.00     0.161 C 
BRANCH  25  26
HETATM   26  N   UNL     1      43.250 -12.635   4.897  1.00  0.00    -0.353 N 
HETATM   27  C   UNL     1      42.825 -13.128   3.681  1.00  0.00     0.251 C 
HETATM   28  O   UNL     1      42.318 -12.436   2.802  1.00  0.00    -0.268 OA
HETATM   29  H   UNL     1      43.803 -13.228   5.501  1.00  0.00     0.163 HD
BRANCH  27  30
HETATM   30  C   UNL     1      43.045 -14.590   3.477  1.00  0.00     0.032 A 
HETATM   31  C   UNL     1      43.145 -15.147   2.195  1.00  0.00     0.018 A 
HETATM   32  C   UNL     1      43.314 -16.529   2.035  1.00  0.00     0.015 A 
HETATM   33  C   UNL     1      43.392 -17.376   3.150  1.00  0.00    -0.005 A 
HETATM   34  C   UNL     1      43.323 -16.800   4.430  1.00  0.00     0.015 A 
HETATM   35  C   UNL     1      43.154 -15.419   4.594  1.00  0.00     0.018 A 
BRANCH  33  36
HETATM   36  C   UNL     1      43.551 -18.822   3.020  1.00  0.00     0.091 A 
HETATM   37  C   UNL     1      44.058 -19.660   4.001  1.00  0.00     0.099 A 
HETATM   38  S   UNL     1      44.064 -21.256   3.364  1.00  0.00    -0.008 SA
HETATM   39  N   UNL     1      43.429 -20.772   1.896  1.00  0.00    -0.037 NA
HETATM   40  N   UNL     1      43.206 -19.471   1.836  1.00  0.00    -0.169 NA
ENDBRANCH  33  36
ENDBRANCH  27  30
ENDBRANCH  25  26
ENDBRANCH   5  25
TORSDOF 7
ENDMDL
MODEL 2
REMARK VINA RESULT:      -9.3      4.934      8.262
REMARK  7 active torsions:
REMARK  status: ('A' for Active; 'I' for Inactive)
REMARK    1  A    between atoms: N_1  and  C_5 
REMARK    2  A    between atoms: C_11  and  N_12 
REMARK       I    between atoms: N_12  and  C_13 
REMARK    3  A    between atoms: C_13  and  C_15 
REMARK    4  A    between atoms: C_19  and  C_20 
REMARK    5  A    between atoms: C_20  and  N_21 
REMARK       I    between atoms: N_21  and  C_22 
REMARK    6  A    between atoms: C_22  and  C_24 
REMARK    7  A    between atoms: C_27  and  C_30 
ROOT
HETATM    1  C   UNL     1      43.138 -15.761   4.630  1.00  0.00     0.033 A 
HETATM    2  C   UNL     1      43.723 -17.028   4.525  1.00  0.00     0.017 A 
HETATM    3  C   UNL     1      43.322 -17.899   3.512  1.00  0.00     0.002 A 
HETATM    4  C   UNL     1      42.338 -17.510   2.601  1.00  0.00     0.009 A 
HETATM    5  C   UNL     1      41.764 -16.237   2.679  1.00  0.00    -0.040 A 
HETATM    6  C   UNL     1      42.178 -15.362   3.695  1.00  0.00     0.026 A 
ENDROOT
BRANCH   1   7
HETATM    7  C   UNL     1      43.581 -14.855   5.716  1.00  0.00     0.257 C 
HETATM    8  N   UNL     1      43.483 -13.449   5.478  1.00  0.00    -0.303 N 
HETATM    9  H   UNL     1      42.972 -13.104   4.680  1.00  0.00     0.171 HD
HETATM   10  O   UNL     1      44.013 -15.272   6.775  1.00  0.00    -0.267 OA
BRANCH   8  11
HETATM   11  C   UNL     1      44.021 -12.526   6.266  1.00  0.00     0.152 A 
HETATM   12  N   UNL     1      43.513 -12.273   7.491  1.00  0.00    -0.339 N 
HETATM   13  C   UNL     1      44.156 -11.250   8.155  1.00  0.00     0.024 A 
HETATM   14  H   UNL     1      42.733 -12.821   7.851  1.00  0.00     0.168 HD
HETATM   15  C   UNL     1      43.708 -10.795   9.495  1.00  0.00     0.060 C 
HETATM   16  C   UNL     1      45.194 -10.699   7.455  1.00  0.00     0.011 A 
HETATM   17  C   UNL     1      44.789  -9.913  10.164  1.00  0.00     0.039 C 
HETATM   18  C   UNL     1      45.521  -8.935   9.215  1.00  0.00     0.188 C 
HETATM   19  C   UNL     1      46.110  -9.628   7.958  1.00  0.00     0.081 C 
HETATM   20  S   UNL     1      45.356 -11.445   5.934  1.00  0.00    -0.056 SA
BRANCH  18  21
HETATM   21  N   UNL     1      44.594  -7.829   8.809  1.00  0.00    -0.075 N 
HETATM   22  H   UNL     1      43.975  -8.118   8.034  1.00  0.00     0.274 HD
HETATM   23  H   UNL     1      43.954  -7.583   9.583  1.00  0.00     0.274 HD
HETATM   24  H   UNL     1      45.058  -6.957   8.525  1.00  0.00     0.274 HD
ENDBRANCH  18  21
ENDBRANCH   8  11
ENDBRANCH   1   7
BRANCH   5  25
HETATM   25  C   UNL     1      40.662 -15.821   1.736  1.00  0.00     0.161 C 
BRANCH  25  26
HETATM   26  N   UNL     1      40.968 -14.565   1.094  1.00  0.00    -0.353 N 
HETATM   27  C   UNL     1      40.335 -14.136  -0.054  1.00  0.00     0.251 C 
HETATM   28  O   UNL     1      39.493 -14.797  -0.659  1.00  0.00    -0.268 OA
HETATM   29  H   UNL     1      41.521 -13.905   1.624  1.00  0.00     0.163 HD
BRANCH  27  30
HETATM   30  C   UNL     1      40.720 -12.772  -0.521  1.00  0.00     0.032 A 
HETATM   31  C   UNL     1      40.769 -12.447  -1.883  1.00  0.00     0.018 A 
HETATM   32  C   UNL     1      41.173 -11.168  -2.291  1.00  0.00     0.015 A 
HETATM   33  C   UNL     1      41.527 -10.192  -1.349  1.00  0.00    -0.005 A 
HETATM   34  C   UNL     1      41.443 -10.522   0.014  1.00  0.00     0.015 A 
HETATM   35  C   UNL     1      41.040 -11.799   0.427  1.00  0.00     0.018 A 
BRANCH  33  36
HETATM   36  C   UNL     1      41.967  -8.855  -1.739  1.00  0.00     0.091 A 
HETATM   37  C   UNL     1      41.338  -8.048  -2.672  1.00  0.00     0.099 A 
HETATM   38  S   UNL     1      42.244  -6.594  -2.795  1.00  0.00    -0.008 SA
HETATM   39  N   UNL     1      43.368  -7.090  -1.662  1.00  0.00    -0.037 NA
HETATM   40  N   UNL     1      43.116  -8.297  -1.183  1.00  0.00    -0.169 NA
ENDBRANCH  33  36
ENDBRANCH  27  30
ENDBRANCH  25  26
ENDBRANCH   5  25
TORSDOF 7
ENDMDL
MODEL 3
REMARK VINA RESULT:      -9.1      4.120     12.380
REMARK  7 active torsions:
REMARK  status: ('A' for Active; 'I' for Inactive)
REMARK    1  A    between atoms: N_1  and  C_5 
REMARK    2  A    between atoms: C_11  and  N_12 
REMARK       I    between atoms: N_12  and  C_13 
REMARK    3  A    between atoms: C_13  and  C_15 
REMARK    4  A    between atoms: C_19  and  C_20 
REMARK    5  A    between atoms: C_20  and  N_21 
REMARK       I    between atoms: N_21  and  C_22 
REMARK    6  A    between atoms: C_22  and  C_24 
REMARK    7  A    between atoms: C_27  and  C_30 
ROOT
HETATM    1  C   UNL     1      41.869 -14.553   4.776  1.00  0.00     0.033 A 
HETATM    2  C   UNL     1      41.758 -15.630   5.663  1.00  0.00     0.017 A 
HETATM    3  C   UNL     1      42.461 -15.615   6.868  1.00  0.00     0.002 A 
HETATM    4  C   UNL     1      43.275 -14.529   7.193  1.00  0.00     0.009 A 
HETATM    5  C   UNL     1      43.375 -13.435   6.327  1.00  0.00    -0.040 A 
HETATM    6  C   UNL     1      42.659 -13.451   5.120  1.00  0.00     0.026 A 
ENDROOT
BRANCH   1   7
HETATM    7  C   UNL     1      41.113 -14.593   3.501  1.00  0.00     0.257 C 
HETATM    8  N   UNL     1      41.301 -13.505   2.594  1.00  0.00    -0.303 N 
HETATM    9  H   UNL     1      42.046 -12.841   2.744  1.00  0.00     0.171 HD
HETATM   10  O   UNL     1      40.360 -15.506   3.221  1.00  0.00    -0.267 OA
BRANCH   8  11
HETATM   11  C   UNL     1      40.551 -13.302   1.518  1.00  0.00     0.152 A 
HETATM   12  N   UNL     1      40.842 -13.900   0.342  1.00  0.00    -0.339 N 
HETATM   13  C   UNL     1      39.995 -13.540  -0.685  1.00  0.00     0.024 A 
HETATM   14  H   UNL     1      41.619 -14.556   0.274  1.00  0.00     0.168 HD
HETATM   15  C   UNL     1      40.187 -14.057  -2.063  1.00  0.00     0.060 C 
HETATM   16  C   UNL     1      39.015 -12.662  -0.314  1.00  0.00     0.011 A 
HETATM   17  C   UNL     1      38.926 -13.806  -2.923  1.00  0.00     0.039 C 
HETATM   18  C   UNL     1      38.233 -12.441  -2.693  1.00  0.00     0.188 C 
HETATM   19  C   UNL     1      37.919 -12.159  -1.201  1.00  0.00     0.081 C 
HETATM   20  S   UNL     1      39.164 -12.253   1.331  1.00  0.00    -0.056 SA
BRANCH  18  21
HETATM   21  N   UNL     1      39.077 -11.340  -3.261  1.00  0.00    -0.075 N 
HETATM   22  H   UNL     1      39.888 -11.133  -2.656  1.00  0.00     0.274 HD
HETATM   23  H   UNL     1      39.486 -11.620  -4.168  1.00  0.00     0.274 HD
HETATM   24  H   UNL     1      38.580 -10.455  -3.426  1.00  0.00     0.274 HD
ENDBRANCH  18  21
ENDBRANCH   8  11
ENDBRANCH   1   7
BRANCH   5  25
HETATM   25  C   UNL     1      44.292 -12.278   6.638  1.00  0.00     0.161 C 
BRANCH  25  26
HETATM   26  N   UNL     1      43.929 -11.640   7.882  1.00  0.00    -0.353 N 
HETATM   27  C   UNL     1      44.732 -10.713   8.512  1.00  0.00     0.251 C 
HETATM   28  O   UNL     1      45.843 -10.381   8.104  1.00  0.00    -0.268 OA
HETATM   29  H   UNL     1      42.968 -11.741   8.180  1.00  0.00     0.163 HD
BRANCH  27  30
HETATM   30  C   UNL     1      44.150 -10.098   9.740  1.00  0.00     0.032 A 
HETATM   31  C   UNL     1      44.041  -8.709   9.887  1.00  0.00     0.018 A 
HETATM   32  C   UNL     1      43.524  -8.160  11.069  1.00  0.00     0.015 A 
HETATM   33  C   UNL     1      43.101  -8.987  12.118  1.00  0.00    -0.005 A 
HETATM   34  C   UNL     1      43.186 -10.379  11.945  1.00  0.00     0.015 A 
HETATM   35  C   UNL     1      43.702 -10.932  10.766  1.00  0.00     0.018 A 
BRANCH  33  36
HETATM   36  C   UNL     1      42.573  -8.450  13.370  1.00  0.00     0.091 A 
HETATM   37  C   UNL     1      43.003  -7.284  13.982  1.00  0.00     0.099 A 
HETATM   38  S   UNL     1      42.097  -7.094  15.429  1.00  0.00    -0.008 SA
HETATM   39  N   UNL     1      41.230  -8.500  15.179  1.00  0.00    -0.037 NA
HETATM   40  N   UNL     1      41.573  -9.125  14.067  1.00  0.00    -0.169 NA
ENDBRANCH  33  36
ENDBRANCH  27  30
ENDBRANCH  25  26
ENDBRANCH   5  25
TORSDOF 7
ENDMDL
MODEL 4
REMARK VINA RESULT:      -9.0      3.815     12.585
REMARK  7 active torsions:
REMARK  status: ('A' for Active; 'I' for Inactive)
REMARK    1  A    between atoms: N_1  and  C_5 
REMARK    2  A    between atoms: C_11  and  N_12 
REMARK       I    between atoms: N_12  and  C_13 
REMARK    3  A    between atoms: C_13  and  C_15 
REMARK    4  A    between atoms: C_19  and  C_20 
REMARK    5  A    between atoms: C_20  and  N_21 
REMARK       I    between atoms: N_21  and  C_22 
REMARK    6  A    between atoms: C_22  and  C_24 
REMARK    7  A    between atoms: C_27  and  C_30 
ROOT
HETATM    1  C   UNL     1      42.967 -12.548   4.391  1.00  0.00     0.033 A 
HETATM    2  C   UNL     1      42.826 -13.775   5.050  1.00  0.00     0.017 A 
HETATM    3  C   UNL     1      43.401 -13.960   6.308  1.00  0.00     0.002 A 
HETATM    4  C   UNL     1      44.115 -12.924   6.912  1.00  0.00     0.009 A 
HETATM    5  C   UNL     1      44.241 -11.685   6.275  1.00  0.00    -0.040 A 
HETATM    6  C   UNL     1      43.654 -11.502   5.015  1.00  0.00     0.026 A 
ENDROOT
BRANCH   1   7
HETATM    7  C   UNL     1      42.348 -12.378   3.054  1.00  0.00     0.257 C 
HETATM    8  N   UNL     1      41.314 -13.294   2.690  1.00  0.00    -0.303 N 
HETATM    9  H   UNL     1      40.911 -13.907   3.382  1.00  0.00     0.171 HD
HETATM   10  O   UNL     1      42.692 -11.499   2.287  1.00  0.00    -0.267 OA
BRANCH   8  11
HETATM   11  C   UNL     1      40.811 -13.392   1.465  1.00  0.00     0.152 A 
HETATM   12  N   UNL     1      40.406 -12.296   0.788  1.00  0.00    -0.339 N 
HETATM   13  C   UNL     1      39.861 -12.581  -0.447  1.00  0.00     0.024 A 
HETATM   14  H   UNL     1      40.523 -11.367   1.189  1.00  0.00     0.168 HD
HETATM   15  C   UNL     1      39.316 -11.509  -1.317  1.00  0.00     0.060 C 
HETATM   16  C   UNL     1      39.850 -13.913  -0.756  1.00  0.00     0.011 A 
HETATM   17  C   UNL     1      39.107 -12.027  -2.759  1.00  0.00     0.039 C 
HETATM   18  C   UNL     1      38.561 -13.471  -2.868  1.00  0.00     0.188 C 
HETATM   19  C   UNL     1      39.387 -14.500  -2.052  1.00  0.00     0.081 C 
HETATM   20  S   UNL     1      40.501 -14.831   0.520  1.00  0.00    -0.056 SA
BRANCH  18  21
HETATM   21  N   UNL     1      37.124 -13.506  -2.440  1.00  0.00    -0.075 N 
HETATM   22  H   UNL     1      36.505 -13.793  -3.216  1.00  0.00     0.274 HD
HETATM   23  H   UNL     1      36.976 -14.217  -1.704  1.00  0.00     0.274 HD
HETATM   24  H   UNL     1      36.762 -12.619  -2.067  1.00  0.00     0.274 HD
ENDBRANCH  18  21
ENDBRANCH   8  11
ENDBRANCH   1   7
BRANCH   5  25
HETATM   25  C   UNL     1      45.055 -10.574   6.891  1.00  0.00     0.161 C 
BRANCH  25  26
HETATM   26  N   UNL     1      44.505 -10.163   8.161  1.00  0.00    -0.353 N 
HETATM   27  C   UNL     1      44.757  -8.929   8.724  1.00  0.00     0.251 C 
HETATM   28  O   UNL     1      45.503  -8.089   8.225  1.00  0.00    -0.268 OA
HETATM   29  H   UNL     1      43.759 -10.731   8.539  1.00  0.00     0.163 HD
BRANCH  27  30
HETATM   30  C   UNL     1      44.031  -8.650   9.997  1.00  0.00     0.032 A 
HETATM   31  C   UNL     1      44.022  -9.568  11.055  1.00  0.00     0.018 A 
HETATM   32  C   UNL     1      43.299  -9.294  12.225  1.00  0.00     0.015 A 
HETATM   33  C   UNL     1      42.580  -8.098  12.359  1.00  0.00    -0.005 A 
HETATM   34  C   UNL     1      42.623  -7.173  11.303  1.00  0.00     0.015 A 
HETATM   35  C   UNL     1      43.344  -7.442  10.133  1.00  0.00     0.018 A 
BRANCH  33  36
HETATM   36  C   UNL     1      41.802  -7.787  13.556  1.00  0.00     0.091 A 
HETATM   37  C   UNL     1      40.932  -6.717  13.686  1.00  0.00     0.099 A 
HETATM   38  S   UNL     1      40.281  -6.769  15.275  1.00  0.00    -0.008 SA
HETATM   39  N   UNL     1      41.148  -8.138  15.685  1.00  0.00    -0.037 NA
HETATM   40  N   UNL     1      41.914  -8.575  14.700  1.00  0.00    -0.169 NA
ENDBRANCH  33  36
ENDBRANCH  27  30
ENDBRANCH  25  26
ENDBRANCH   5  25
TORSDOF 7
ENDMDL
MODEL 5
REMARK VINA RESULT:      -8.9      2.280      3.044
REMARK  7 active torsions:
REMARK  status: ('A' for Active; 'I' for Inactive)
REMARK    1  A    between atoms: N_1  and  C_5 
REMARK    2  A    between atoms: C_11  and  N_12 
REMARK       I    between atoms: N_12  and  C_13 
REMARK    3  A    between atoms: C_13  and  C_15 
REMARK    4  A    between atoms: C_19  and  C_20 
REMARK    5  A    between atoms: C_20  and  N_21 
REMARK       I    between atoms: N_21  and  C_22 
REMARK    6  A    between atoms: C_22  and  C_24 
REMARK    7  A    between atoms: C_27  and  C_30 
ROOT
HETATM    1  C   UNL     1      40.017  -9.693   6.721  1.00  0.00     0.033 A 
HETATM    2  C   UNL     1      38.831  -9.701   5.978  1.00  0.00     0.017 A 
HETATM    3  C   UNL     1      38.853 -10.085   4.637  1.00  0.00     0.002 A 
HETATM    4  C   UNL     1      40.054 -10.463   4.034  1.00  0.00     0.009 A 
HETATM    5  C   UNL     1      41.241 -10.483   4.772  1.00  0.00    -0.040 A 
HETATM    6  C   UNL     1      41.213 -10.105   6.123  1.00  0.00     0.026 A 
ENDROOT
BRANCH   1   7
HETATM    7  C   UNL     1      39.968  -9.279   8.144  1.00  0.00     0.257 C 
HETATM    8  N   UNL     1      41.215  -9.115   8.821  1.00  0.00    -0.303 N 
HETATM    9  H   UNL     1      42.079  -9.109   8.301  1.00  0.00     0.171 HD
HETATM   10  O   UNL     1      38.919  -9.083   8.728  1.00  0.00    -0.267 OA
BRANCH   8  11
HETATM   11  C   UNL     1      41.327  -8.947  10.134  1.00  0.00     0.152 A 
HETATM   12  N   UNL     1      40.601  -8.009  10.781  1.00  0.00    -0.339 N 
HETATM   13  C   UNL     1      40.877  -7.932  12.130  1.00  0.00     0.024 A 
HETATM   14  H   UNL     1      39.918  -7.446  10.278  1.00  0.00     0.168 HD
HETATM   15  C   UNL     1      40.213  -6.928  12.998  1.00  0.00     0.060 C 
HETATM   16  C   UNL     1      41.819  -8.827  12.557  1.00  0.00     0.011 A 
HETATM   17  C   UNL     1      40.411  -7.279  14.492  1.00  0.00     0.039 C 
HETATM   18  C   UNL     1      41.813  -7.822  14.861  1.00  0.00     0.188 C 
HETATM   19  C   UNL     1      42.259  -9.015  13.975  1.00  0.00     0.081 C 
HETATM   20  S   UNL     1      42.393  -9.762  11.256  1.00  0.00    -0.056 SA
BRANCH  18  21
HETATM   21  N   UNL     1      42.823  -6.717  14.787  1.00  0.00    -0.075 N 
HETATM   22  H   UNL     1      43.154  -6.443  15.726  1.00  0.00     0.274 HD
HETATM   23  H   UNL     1      43.672  -7.027  14.285  1.00  0.00     0.274 HD
HETATM   24  H   UNL     1      42.498  -5.865  14.312  1.00  0.00     0.274 HD
ENDBRANCH  18  21
ENDBRANCH   8  11
ENDBRANCH   1   7
BRANCH   5  25
HETATM   25  C   UNL     1      42.556 -10.837   4.122  1.00  0.00     0.161 C 
BRANCH  25  26
HETATM   26  N   UNL     1      42.716 -12.267   4.006  1.00  0.00    -0.353 N 
HETATM   27  C   UNL     1      42.506 -12.953   2.827  1.00  0.00     0.251 C 
HETATM   28  O   UNL     1      42.122 -12.423   1.787  1.00  0.00    -0.268 OA
HETATM   29  H   UNL     1      43.187 -12.736   4.769  1.00  0.00     0.163 HD
BRANCH  27  30
HETATM   30  C   UNL     1      42.807 -14.413   2.880  1.00  0.00     0.032 A 
HETATM   31  C   UNL     1      43.037 -15.159   1.717  1.00  0.00     0.018 A 
HETATM   32  C   UNL     1      43.279 -16.538   1.796  1.00  0.00     0.015 A 
HETATM   33  C   UNL     1      43.302 -17.192   3.036  1.00  0.00    -0.005 A 
HETATM   34  C   UNL     1      43.100 -16.426   4.196  1.00  0.00     0.015 A 
HETATM   35  C   UNL     1      42.858 -15.048   4.122  1.00  0.00     0.018 A 
BRANCH  33  36
HETATM   36  C   UNL     1      43.534 -18.629   3.155  1.00  0.00     0.091 A 
HETATM   37  C   UNL     1      43.959 -19.277   4.304  1.00  0.00     0.099 A 
HETATM   38  S   UNL     1      44.104 -20.948   3.933  1.00  0.00    -0.008 SA
HETATM   39  N   UNL     1      43.622 -20.732   2.348  1.00  0.00    -0.037 NA
HETATM   40  N   UNL     1      43.354 -19.470   2.059  1.00  0.00    -0.169 NA
ENDBRANCH  33  36
ENDBRANCH  27  30
ENDBRANCH  25  26
ENDBRANCH   5  25
TORSDOF 7
ENDMDL
MODEL 6
REMARK VINA RESULT:      -8.8      5.253      9.893
REMARK  7 active torsions:
REMARK  status: ('A' for Active; 'I' for Inactive)
REMARK    1  A    between atoms: N_1  and  C_5 
REMARK    2  A    between atoms: C_11  and  N_12 
REMARK       I    between atoms: N_12  and  C_13 
REMARK    3  A    between atoms: C_13  and  C_15 
REMARK    4  A    between atoms: C_19  and  C_20 
REMARK    5  A    between atoms: C_20  and  N_21 
REMARK       I    between atoms: N_21  and  C_22 
REMARK    6  A    between atoms: C_22  and  C_24 
REMARK    7  A    between atoms: C_27  and  C_30 
ROOT
HETATM    1  C   UNL     1      40.499 -10.384   4.241  1.00  0.00     0.033 A 
HETATM    2  C   UNL     1      39.880  -9.349   4.954  1.00  0.00     0.017 A 
HETATM    3  C   UNL     1      40.340  -9.007   6.225  1.00  0.00     0.002 A 
HETATM    4  C   UNL     1      41.417  -9.693   6.790  1.00  0.00     0.009 A 
HETATM    5  C   UNL     1      42.060 -10.711   6.079  1.00  0.00    -0.040 A 
HETATM    6  C   UNL     1      41.599 -11.045   4.796  1.00  0.00     0.026 A 
ENDROOT
BRANCH   1   7
HETATM    7  C   UNL     1      39.990 -10.729   2.892  1.00  0.00     0.257 C 
HETATM    8  N   UNL     1      40.220 -12.059   2.426  1.00  0.00    -0.303 N 
HETATM    9  H   UNL     1      40.554 -12.769   3.060  1.00  0.00     0.171 HD
HETATM   10  O   UNL     1      39.398  -9.926   2.196  1.00  0.00    -0.267 OA
BRANCH   8  11
HETATM   11  C   UNL     1      40.005 -12.453   1.176  1.00  0.00     0.152 A 
HETATM   12  N   UNL     1      38.810 -12.254   0.579  1.00  0.00    -0.339 N 
HETATM   13  C   UNL     1      38.740 -12.769  -0.698  1.00  0.00     0.024 A 
HETATM   14  H   UNL     1      38.066 -11.755   1.064  1.00  0.00     0.168 HD
HETATM   15  C   UNL     1      37.490 -12.691  -1.495  1.00  0.00     0.060 C 
HETATM   16  C   UNL     1      39.894 -13.367  -1.121  1.00  0.00     0.011 A 
HETATM   17  C   UNL     1      37.770 -13.000  -2.985  1.00  0.00     0.039 C 
HETATM   18  C   UNL     1      38.787 -14.138  -3.242  1.00  0.00     0.188 C 
HETATM   19  C   UNL     1      40.126 -13.945  -2.482  1.00  0.00     0.081 C 
HETATM   20  S   UNL     1      41.080 -13.314   0.098  1.00  0.00    -0.056 SA
BRANCH  18  21
HETATM   21  N   UNL     1      38.175 -15.459  -2.882  1.00  0.00    -0.075 N 
HETATM   22  H   UNL     1      38.490 -15.782  -1.954  1.00  0.00     0.274 HD
HETATM   23  H   UNL     1      37.147 -15.378  -2.802  1.00  0.00     0.274 HD
HETATM   24  H   UNL     1      38.358 -16.217  -3.553  1.00  0.00     0.274 HD
ENDBRANCH  18  21
ENDBRANCH   8  11
ENDBRANCH   1   7
BRANCH   5  25
HETATM   25  C   UNL     1      43.190 -11.497   6.696  1.00  0.00     0.161 C 
BRANCH  25  26
HETATM   26  N   UNL     1      43.356 -12.776   6.046  1.00  0.00    -0.353 N 
HETATM   27  C   UNL     1      43.435 -13.966   6.739  1.00  0.00     0.251 C 
HETATM   28  O   UNL     1      43.421 -14.045   7.966  1.00  0.00    -0.268 OA
HETATM   29  H   UNL     1      43.208 -12.801   5.046  1.00  0.00     0.163 HD
BRANCH  27  30
HETATM   30  C   UNL     1      43.516 -15.191   5.892  1.00  0.00     0.032 A 
HETATM   31  C   UNL     1      42.927 -15.249   4.623  1.00  0.00     0.018 A 
HETATM   32  C   UNL     1      42.988 -16.428   3.867  1.00  0.00     0.015 A 
HETATM   33  C   UNL     1      43.643 -17.564   4.362  1.00  0.00    -0.005 A 
HETATM   34  C   UNL     1      44.257 -17.483   5.623  1.00  0.00     0.015 A 
HETATM   35  C   UNL     1      44.199 -16.307   6.382  1.00  0.00     0.018 A 
BRANCH  33  36
HETATM   36  C   UNL     1      43.712 -18.815   3.609  1.00  0.00     0.091 A 
HETATM   37  C   UNL     1      43.449 -18.946   2.254  1.00  0.00     0.099 A 
HETATM   38  S   UNL     1      43.642 -20.604   1.848  1.00  0.00    -0.008 SA
HETATM   39  N   UNL     1      44.040 -21.036   3.413  1.00  0.00    -0.037 NA
HETATM   40  N   UNL     1      44.039 -20.010   4.246  1.00  0.00    -0.169 NA
ENDBRANCH  33  36
ENDBRANCH  27  30
ENDBRANCH  25  26
ENDBRANCH   5  25
TORSDOF 7
ENDMDL
MODEL 7
REMARK VINA RESULT:      -8.8      2.750     12.898
REMARK  7 active torsions:
REMARK  status: ('A' for Active; 'I' for Inactive)
REMARK    1  A    between atoms: N_1  and  C_5 
REMARK    2  A    between atoms: C_11  and  N_12 
REMARK       I    between atoms: N_12  and  C_13 
REMARK    3  A    between atoms: C_13  and  C_15 
REMARK    4  A    between atoms: C_19  and  C_20 
REMARK    5  A    between atoms: C_20  and  N_21 
REMARK       I    between atoms: N_21  and  C_22 
REMARK    6  A    between atoms: C_22  and  C_24 
REMARK    7  A    between atoms: C_27  and  C_30 
ROOT
HETATM    1  C   UNL     1      44.215 -10.593   8.250  1.00  0.00     0.033 A 
HETATM    2  C   UNL     1      45.376 -10.484   9.025  1.00  0.00     0.017 A 
HETATM    3  C   UNL     1      45.379  -9.682  10.167  1.00  0.00     0.002 A 
HETATM    4  C   UNL     1      44.227  -8.988  10.540  1.00  0.00     0.009 A 
HETATM    5  C   UNL     1      43.052  -9.109   9.790  1.00  0.00    -0.040 A 
HETATM    6  C   UNL     1      43.052  -9.924   8.647  1.00  0.00     0.026 A 
ENDROOT
BRANCH   1   7
HETATM    7  C   UNL     1      44.238 -11.450   7.042  1.00  0.00     0.257 C 
HETATM    8  N   UNL     1      43.186 -12.407   6.897  1.00  0.00    -0.303 N 
HETATM    9  H   UNL     1      42.379 -12.370   7.501  1.00  0.00     0.171 HD
HETATM   10  O   UNL     1      45.107 -11.358   6.196  1.00  0.00    -0.267 OA
BRANCH   8  11
HETATM   11  C   UNL     1      43.182 -13.369   5.982  1.00  0.00     0.152 A 
HETATM   12  N   UNL     1      43.175 -13.077   4.663  1.00  0.00    -0.339 N 
HETATM   13  C   UNL     1      43.118 -14.191   3.852  1.00  0.00     0.024 A 
HETATM   14  H   UNL     1      43.219 -12.110   4.347  1.00  0.00     0.168 HD
HETATM   15  C   UNL     1      43.053 -14.068   2.374  1.00  0.00     0.060 C 
HETATM   16  C   UNL     1      43.097 -15.375   4.535  1.00  0.00     0.011 A 
HETATM   17  C   UNL     1      43.361 -15.425   1.698  1.00  0.00     0.039 C 
HETATM   18  C   UNL     1      42.761 -16.664   2.404  1.00  0.00     0.188 C 
HETATM   19  C   UNL     1      43.109 -16.737   3.913  1.00  0.00     0.081 C 
HETATM   20  S   UNL     1      43.119 -15.102   6.214  1.00  0.00    -0.056 SA
BRANCH  18  21
HETATM   21  N   UNL     1      41.274 -16.689   2.214  1.00  0.00    -0.075 N 
HETATM   22  H   UNL     1      40.874 -15.737   2.236  1.00  0.00     0.274 HD
HETATM   23  H   UNL     1      41.028 -17.059   1.280  1.00  0.00     0.274 HD
HETATM   24  H   UNL     1      40.760 -17.257   2.899  1.00  0.00     0.274 HD
ENDBRANCH  18  21
ENDBRANCH   8  11
ENDBRANCH   1   7
BRANCH   5  25
HETATM   25  C   UNL     1      41.815  -8.324  10.149  1.00  0.00     0.161 C 
BRANCH  25  26
HETATM   26  N   UNL     1      41.670  -8.201  11.581  1.00  0.00    -0.353 N 
HETATM   27  C   UNL     1      41.060  -7.120  12.182  1.00  0.00     0.251 C 
HETATM   28  O   UNL     1      40.630  -6.147  11.566  1.00  0.00    -0.268 OA
HETATM   29  H   UNL     1      41.849  -9.031  12.129  1.00  0.00     0.163 HD
BRANCH  27  30
HETATM   30  C   UNL     1      40.924  -7.211  13.665  1.00  0.00     0.032 A 
HETATM   31  C   UNL     1      39.985  -6.445  14.367  1.00  0.00     0.018 A 
HETATM   32  C   UNL     1      39.908  -6.524  15.764  1.00  0.00     0.015 A 
HETATM   33  C   UNL     1      40.761  -7.374  16.482  1.00  0.00    -0.005 A 
HETATM   34  C   UNL     1      41.677  -8.160  15.764  1.00  0.00     0.015 A 
HETATM   35  C   UNL     1      41.758  -8.084  14.367  1.00  0.00     0.018 A 
BRANCH  33  36
HETATM   36  C   UNL     1      40.720  -7.469  17.940  1.00  0.00     0.091 A 
HETATM   37  C   UNL     1      41.751  -7.109  18.792  1.00  0.00     0.099 A 
HETATM   38  S   UNL     1      41.229  -7.427  20.398  1.00  0.00    -0.008 SA
HETATM   39  N   UNL     1      39.740  -7.999  19.899  1.00  0.00    -0.037 NA
HETATM   40  N   UNL     1      39.594  -7.975  18.586  1.00  0.00    -0.169 NA
ENDBRANCH  33  36
ENDBRANCH  27  30
ENDBRANCH  25  26
ENDBRANCH   5  25
TORSDOF 7
ENDMDL
MODEL 8
REMARK VINA RESULT:      -8.7      3.310      3.927
REMARK  7 active torsions:
REMARK  status: ('A' for Active; 'I' for Inactive)
REMARK    1  A    between atoms: N_1  and  C_5 
REMARK    2  A    between atoms: C_11  and  N_12 
REMARK       I    between atoms: N_12  and  C_13 
REMARK    3  A    between atoms: C_13  and  C_15 
REMARK    4  A    between atoms: C_19  and  C_20 
REMARK    5  A    between atoms: C_20  and  N_21 
REMARK       I    between atoms: N_21  and  C_22 
REMARK    6  A    between atoms: C_22  and  C_24 
REMARK    7  A    between atoms: C_27  and  C_30 
ROOT
HETATM    1  C   UNL     1      44.258 -10.605   8.111  1.00  0.00     0.033 A 
HETATM    2  C   UNL     1      45.453 -10.298   7.450  1.00  0.00     0.017 A 
HETATM    3  C   UNL     1      45.952 -11.162   6.475  1.00  0.00     0.002 A 
HETATM    4  C   UNL     1      45.262 -12.331   6.154  1.00  0.00     0.009 A 
HETATM    5  C   UNL     1      44.053 -12.638   6.787  1.00  0.00    -0.040 A 
HETATM    6  C   UNL     1      43.551 -11.761   7.761  1.00  0.00     0.026 A 
ENDROOT
BRANCH   1   7
HETATM    7  C   UNL     1      43.749  -9.672   9.144  1.00  0.00     0.257 C 
HETATM    8  N   UNL     1      43.486 -10.212  10.441  1.00  0.00    -0.303 N 
HETATM    9  H   UNL     1      43.801 -11.140  10.679  1.00  0.00     0.171 HD
HETATM   10  O   UNL     1      43.559  -8.492   8.917  1.00  0.00    -0.267 OA
BRANCH   8  11
HETATM   11  C   UNL     1      42.845  -9.553  11.400  1.00  0.00     0.152 A 
HETATM   12  N   UNL     1      43.493  -8.671  12.192  1.00  0.00    -0.339 N 
HETATM   13  C   UNL     1      42.693  -8.116  13.168  1.00  0.00     0.024 A 
HETATM   14  H   UNL     1      44.478  -8.462  12.035  1.00  0.00     0.168 HD
HETATM   15  C   UNL     1      43.240  -7.162  14.165  1.00  0.00     0.060 C 
HETATM   16  C   UNL     1      41.397  -8.551  13.139  1.00  0.00     0.011 A 
HETATM   17  C   UNL     1      42.097  -6.422  14.899  1.00  0.00     0.039 C 
HETATM   18  C   UNL     1      40.867  -7.292  15.249  1.00  0.00     0.188 C 
HETATM   19  C   UNL     1      40.298  -8.064  14.029  1.00  0.00     0.081 C 
HETATM   20  S   UNL     1      41.173  -9.690  11.894  1.00  0.00    -0.056 SA
BRANCH  18  21
HETATM   21  N   UNL     1      41.215  -8.249  16.349  1.00  0.00    -0.075 N 
HETATM   22  H   UNL     1      42.160  -8.645  16.221  1.00  0.00     0.274 HD
HETATM   23  H   UNL     1      41.252  -7.763  17.261  1.00  0.00     0.274 HD
HETATM   24  H   UNL     1      40.562  -9.034  16.463  1.00  0.00     0.274 HD
ENDBRANCH  18  21
ENDBRANCH   8  11
ENDBRANCH   1   7
BRANCH   5  25
HETATM   25  C   UNL     1      43.323 -13.924   6.490  1.00  0.00     0.161 C 
BRANCH  25  26
HETATM   26  N   UNL     1      42.826 -13.943   5.135  1.00  0.00    -0.353 N 
HETATM   27  C   UNL     1      41.926 -14.885   4.679  1.00  0.00     0.251 C 
HETATM   28  O   UNL     1      41.503 -15.814   5.363  1.00  0.00    -0.268 OA
HETATM   29  H   UNL     1      43.000 -13.120   4.574  1.00  0.00     0.163 HD
BRANCH  27  30
HETATM   30  C   UNL     1      41.460 -14.691   3.275  1.00  0.00     0.032 A 
HETATM   31  C   UNL     1      41.973 -13.673   2.463  1.00  0.00     0.018 A 
HETATM   32  C   UNL     1      41.488 -13.493   1.160  1.00  0.00     0.015 A 
HETATM   33  C   UNL     1      40.488 -14.330   0.646  1.00  0.00    -0.005 A 
HETATM   34  C   UNL     1      40.005 -15.368   1.460  1.00  0.00     0.015 A 
HETATM   35  C   UNL     1      40.487 -15.551   2.762  1.00  0.00     0.018 A 
BRANCH  33  36
HETATM   36  C   UNL     1      39.946 -14.161  -0.701  1.00  0.00     0.091 A 
HETATM   37  C   UNL     1      40.046 -13.008  -1.462  1.00  0.00     0.099 A 
HETATM   38  S   UNL     1      39.239 -13.299  -2.950  1.00  0.00    -0.008 SA
HETATM   39  N   UNL     1      38.819 -14.859  -2.523  1.00  0.00    -0.037 NA
HETATM   40  N   UNL     1      39.244 -15.194  -1.317  1.00  0.00    -0.169 NA
ENDBRANCH  33  36
ENDBRANCH  27  30
ENDBRANCH  25  26
ENDBRANCH   5  25
TORSDOF 7
ENDMDL
MODEL 9
REMARK VINA RESULT:      -8.7      4.089     11.332
REMARK  7 active torsions:
REMARK  status: ('A' for Active; 'I' for Inactive)
REMARK    1  A    between atoms: N_1  and  C_5 
REMARK    2  A    between atoms: C_11  and  N_12 
REMARK       I    between atoms: N_12  and  C_13 
REMARK    3  A    between atoms: C_13  and  C_15 
REMARK    4  A    between atoms: C_19  and  C_20 
REMARK    5  A    between atoms: C_20  and  N_21 
REMARK       I    between atoms: N_21  and  C_22 
REMARK    6  A    between atoms: C_22  and  C_24 
REMARK    7  A    between atoms: C_27  and  C_30 
ROOT
HETATM    1  C   UNL     1      40.642 -14.063   0.601  1.00  0.00     0.033 A 
HETATM    2  C   UNL     1      39.721 -14.193  -0.445  1.00  0.00     0.017 A 
HETATM    3  C   UNL     1      39.378 -13.081  -1.213  1.00  0.00     0.002 A 
HETATM    4  C   UNL     1      39.952 -11.837  -0.944  1.00  0.00     0.009 A 
HETATM    5  C   UNL     1      40.893 -11.699   0.082  1.00  0.00    -0.040 A 
HETATM    6  C   UNL     1      41.241 -12.822   0.846  1.00  0.00     0.026 A 
ENDROOT
BRANCH   1   7
HETATM    7  C   UNL     1      40.989 -15.260   1.404  1.00  0.00     0.257 C 
HETATM    8  N   UNL     1      42.292 -15.301   1.989  1.00  0.00    -0.303 N 
HETATM    9  H   UNL     1      42.872 -14.476   1.997  1.00  0.00     0.171 HD
HETATM   10  O   UNL     1      40.209 -16.178   1.571  1.00  0.00    -0.267 OA
BRANCH   8  11
HETATM   11  C   UNL     1      42.813 -16.381   2.559  1.00  0.00     0.152 A 
HETATM   12  N   UNL     1      42.747 -17.588   1.955  1.00  0.00    -0.339 N 
HETATM   13  C   UNL     1      43.288 -18.610   2.706  1.00  0.00     0.024 A 
HETATM   14  H   UNL     1      42.336 -17.681   1.028  1.00  0.00     0.168 HD
HETATM   15  C   UNL     1      43.264 -20.016   2.229  1.00  0.00     0.060 C 
HETATM   16  C   UNL     1      43.802 -18.206   3.907  1.00  0.00     0.011 A 
HETATM   17  C   UNL     1      44.234 -20.892   3.056  1.00  0.00     0.039 C 
HETATM   18  C   UNL     1      44.268 -20.585   4.573  1.00  0.00     0.188 C 
HETATM   19  C   UNL     1      44.512 -19.086   4.888  1.00  0.00     0.081 C 
HETATM   20  S   UNL     1      43.583 -16.532   4.122  1.00  0.00    -0.056 SA
BRANCH  18  21
HETATM   21  N   UNL     1      42.994 -21.047   5.215  1.00  0.00    -0.075 N 
HETATM   22  H   UNL     1      43.173 -21.761   5.939  1.00  0.00     0.274 HD
HETATM   23  H   UNL     1      42.531 -20.270   5.716  1.00  0.00     0.274 HD
HETATM   24  H   UNL     1      42.297 -21.432   4.565  1.00  0.00     0.274 HD
ENDBRANCH  18  21
ENDBRANCH   8  11
ENDBRANCH   1   7
BRANCH   5  25
HETATM   25  C   UNL     1      41.482 -10.352   0.421  1.00  0.00     0.161 C 
BRANCH  25  26
HETATM   26  N   UNL     1      41.927 -10.304   1.794  1.00  0.00    -0.353 N 
HETATM   27  C   UNL     1      41.127  -9.862   2.827  1.00  0.00     0.251 C 
HETATM   28  O   UNL     1      39.988  -9.427   2.672  1.00  0.00    -0.268 OA
HETATM   29  H   UNL     1      42.782 -10.798   2.012  1.00  0.00     0.163 HD
BRANCH  27  30
HETATM   30  C   UNL     1      41.729  -9.969   4.187  1.00  0.00     0.032 A 
HETATM   31  C   UNL     1      41.263  -9.201   5.261  1.00  0.00     0.018 A 
HETATM   32  C   UNL     1      41.875  -9.296   6.519  1.00  0.00     0.015 A 
HETATM   33  C   UNL     1      42.956 -10.164   6.727  1.00  0.00    -0.005 A 
HETATM   34  C   UNL     1      43.393 -10.952   5.649  1.00  0.00     0.015 A 
HETATM   35  C   UNL     1      42.785 -10.860   4.391  1.00  0.00     0.018 A 
BRANCH  33  36
HETATM   36  C   UNL     1      43.628 -10.277   8.019  1.00  0.00     0.091 A 
HETATM   37  C   UNL     1      43.169  -9.733   9.208  1.00  0.00     0.099 A 
HETATM   38  S   UNL     1      44.313 -10.118  10.429  1.00  0.00    -0.008 SA
HETATM   39  N   UNL     1      45.308 -10.941   9.368  1.00  0.00    -0.037 NA
HETATM   40  N   UNL     1      44.842 -10.951   8.130  1.00  0.00    -0.169 NA
ENDBRANCH  33  36
ENDBRANCH  27  30
ENDBRANCH  25  26
ENDBRANCH   5  25
TORSDOF 7
ENDMDL
MODEL 10
REMARK VINA RESULT:      -8.6      4.468     12.969
REMARK  7 active torsions:
REMARK  status: ('A' for Active; 'I' for Inactive)
REMARK    1  A    between atoms: N_1  and  C_5 
REMARK    2  A    between atoms: C_11  and  N_12 
REMARK       I    between atoms: N_12  and  C_13 
REMARK    3  A    between atoms: C_13  and  C_15 
REMARK    4  A    between atoms: C_19  and  C_20 
REMARK    5  A    between atoms: C_20  and  N_21 
REMARK       I    between atoms: N_21  and  C_22 
REMARK    6  A    between atoms: C_22  and  C_24 
REMARK    7  A    between atoms: C_27  and  C_30 
ROOT
HETATM    1  C   UNL     1      42.125 -10.074   4.669  1.00  0.00     0.033 A 
HETATM    2  C   UNL     1      41.387  -8.895   4.833  1.00  0.00     0.017 A 
HETATM    3  C   UNL     1      41.359  -8.258   6.073  1.00  0.00     0.002 A 
HETATM    4  C   UNL     1      42.066  -8.790   7.152  1.00  0.00     0.009 A 
HETATM    5  C   UNL     1      42.828  -9.953   6.996  1.00  0.00    -0.040 A 
HETATM    6  C   UNL     1      42.860 -10.585   5.744  1.00  0.00     0.026 A 
ENDROOT
BRANCH   1   7
HETATM    7  C   UNL     1      42.138 -10.733   3.342  1.00  0.00     0.257 C 
HETATM    8  N   UNL     1      40.904 -10.782   2.623  1.00  0.00    -0.303 N 
HETATM    9  H   UNL     1      40.114 -10.236   2.932  1.00  0.00     0.171 HD
HETATM   10  O   UNL     1      43.148 -11.218   2.867  1.00  0.00    -0.267 OA
BRANCH   8  11
HETATM   11  C   UNL     1      40.715 -11.506   1.526  1.00  0.00     0.152 A 
HETATM   12  N   UNL     1      41.172 -11.087   0.326  1.00  0.00    -0.339 N 
HETATM   13  C   UNL     1      40.845 -11.931  -0.714  1.00  0.00     0.024 A 
HETATM   14  H   UNL     1      41.712 -10.226   0.251  1.00  0.00     0.168 HD
HETATM   15  C   UNL     1      41.219 -11.611  -2.115  1.00  0.00     0.060 C 
HETATM   16  C   UNL     1      40.137 -13.036  -0.332  1.00  0.00     0.011 A 
HETATM   17  C   UNL     1      41.067 -12.857  -3.019  1.00  0.00     0.039 C 
HETATM   18  C   UNL     1      39.829 -13.738  -2.725  1.00  0.00     0.188 C 
HETATM   19  C   UNL     1      39.714 -14.152  -1.235  1.00  0.00     0.081 C 
HETATM   20  S   UNL     1      39.847 -13.014   1.345  1.00  0.00    -0.056 SA
BRANCH  18  21
HETATM   21  N   UNL     1      38.584 -13.029  -3.163  1.00  0.00    -0.075 N 
HETATM   22  H   UNL     1      38.140 -12.523  -2.380  1.00  0.00     0.274 HD
HETATM   23  H   UNL     1      38.802 -12.299  -3.862  1.00  0.00     0.274 HD
HETATM   24  H   UNL     1      37.868 -13.634  -3.586  1.00  0.00     0.274 HD
ENDBRANCH  18  21
ENDBRANCH   8  11
ENDBRANCH   1   7
BRANCH   5  25
HETATM   25  C   UNL     1      43.554 -10.570   8.165  1.00  0.00     0.161 C 
BRANCH  25  26
HETATM   26  N   UNL     1      43.025 -10.093   9.422  1.00  0.00    -0.353 N 
HETATM   27  C   UNL     1      43.707 -10.210  10.615  1.00  0.00     0.251 C 
HETATM   28  O   UNL     1      44.797 -10.767  10.729  1.00  0.00    -0.268 OA
HETATM   29  H   UNL     1      42.220  -9.483   9.375  1.00  0.00     0.163 HD
BRANCH  27  30
HETATM   30  C   UNL     1      43.041  -9.580  11.792  1.00  0.00     0.032 A 
HETATM   31  C   UNL     1      41.937 -10.173  12.417  1.00  0.00     0.018 A 
HETATM   32  C   UNL     1      41.308  -9.537  13.498  1.00  0.00     0.015 A 
HETATM   33  C   UNL     1      41.776  -8.305  13.975  1.00  0.00    -0.005 A 
HETATM   34  C   UNL     1      42.904  -7.737  13.359  1.00  0.00     0.015 A 
HETATM   35  C   UNL     1      43.534  -8.368  12.279  1.00  0.00     0.018 A 
BRANCH  33  36
HETATM   36  C   UNL     1      41.136  -7.606  15.087  1.00  0.00     0.091 A 
HETATM   37  C   UNL     1      41.421  -7.811  16.428  1.00  0.00     0.099 A 
HETATM   38  S   UNL     1      40.397  -6.775  17.338  1.00  0.00    -0.008 SA
HETATM   39  N   UNL     1      39.666  -6.145  15.974  1.00  0.00    -0.037 NA
HETATM   40  N   UNL     1      40.137  -6.664  14.853  1.00  0.00    -0.169 NA
ENDBRANCH  33  36
ENDBRANCH  27  30
ENDBRANCH  25  26
ENDBRANCH   5  25
TORSDOF 7
ENDMDL
