MODEL 1
REMARK VINA RESULT:      -8.8      0.000      0.000
REMARK  8 active torsions:
REMARK  status: ('A' for Active; 'I' for Inactive)
REMARK    1  A    between atoms: C_2  and  O_3 
REMARK    2  A    between atoms: O_3  and  C_4 
REMARK    3  A    between atoms: C_4  and  C_5 
REMARK    4  A    between atoms: C_6  and  C_8 
REMARK    5  A    between atoms: C_6  and  O_7 
REMARK    6  A    between atoms: C_16  and  C_17 
REMARK    7  A    between atoms: C_18  and  C_19 
REMARK    8  A    between atoms: N_26  and  C_27 
ROOT
HETATM    1  C   UNL     1      41.856 -12.965   5.095  1.00  0.00     0.177 C 
HETATM    2  C   UNL     1      42.180 -11.558   5.618  1.00  0.00     0.250 C 
HETATM    3  N   UNL     1      43.607 -11.312   5.494  1.00  0.00    -0.303 N 
HETATM    4  C   UNL     1      44.318 -11.654   4.397  1.00  0.00     0.319 C 
HETATM    5  O   UNL     1      45.409 -11.155   4.163  1.00  0.00    -0.247 OA
HETATM    6  N   UNL     1      43.787 -12.613   3.608  1.00  0.00    -0.333 N 
HETATM    7  C   UNL     1      42.425 -13.106   3.679  1.00  0.00     0.142 C 
HETATM    8  H   UNL     1      43.982 -10.497   5.969  1.00  0.00     0.167 HD
HETATM    9  H   UNL     1      44.340 -12.815   2.783  1.00  0.00     0.165 HD
ENDROOT
BRANCH   7  10
HETATM   10  C   UNL     1      42.468 -14.519   3.166  1.00  0.00     0.015 A 
HETATM   11  C   UNL     1      41.883 -15.046   1.974  1.00  0.00     0.097 A 
HETATM   12  N   UNL     1      42.102 -16.364   1.873  1.00  0.00    -0.167 NA
HETATM   13  N   UNL     1      42.836 -16.705   2.953  1.00  0.00    -0.244 N 
HETATM   14  C   UNL     1      43.088 -15.611   3.747  1.00  0.00     0.130 A 
BRANCH  11  15
HETATM   15  C   UNL     1      41.120 -14.355   0.933  1.00  0.00    -0.005 A 
HETATM   16  C   UNL     1      41.312 -12.992   0.673  1.00  0.00     0.014 A 
HETATM   17  C   UNL     1      40.571 -12.349  -0.322  1.00  0.00     0.001 A 
HETATM   18  C   UNL     1      39.643 -13.065  -1.075  1.00  0.00     0.000 A 
HETATM   19  C   UNL     1      39.459 -14.427  -0.840  1.00  0.00     0.001 A 
HETATM   20  C   UNL     1      40.195 -15.068   0.157  1.00  0.00     0.014 A 
ENDBRANCH  11  15
BRANCH  13  21
HETATM   21  C   UNL     1      43.239 -18.055   3.162  1.00  0.00     0.058 A 
HETATM   22  C   UNL     1      43.039 -18.997   2.140  1.00  0.00     0.031 A 
HETATM   23  C   UNL     1      43.416 -20.329   2.324  1.00  0.00     0.002 A 
HETATM   24  C   UNL     1      43.995 -20.731   3.525  1.00  0.00     0.000 A 
HETATM   25  C   UNL     1      44.197 -19.802   4.545  1.00  0.00     0.002 A 
HETATM   26  C   UNL     1      43.823 -18.466   4.368  1.00  0.00     0.031 A 
ENDBRANCH  13  21
ENDBRANCH   7  10
BRANCH   1  27
HETATM   27  C   UNL     1      40.367 -13.226   5.084  1.00  0.00     0.270 C 
HETATM   28  O   UNL     1      39.640 -13.046   4.120  1.00  0.00    -0.265 OA
BRANCH  27  29
HETATM   29  O   UNL     1      39.961 -13.702   6.290  1.00  0.00    -0.321 OA
BRANCH  29  30
HETATM   30  C   UNL     1      40.582 -14.918   6.739  1.00  0.00     0.174 C 
HETATM   31  C   UNL     1      40.194 -16.102   5.872  1.00  0.00     0.034 C 
ENDBRANCH  29  30
ENDBRANCH  27  29
ENDBRANCH   1  27
BRANCH   2  32
HETATM   32  C   UNL     1      41.328 -10.423   4.934  1.00  0.00     0.439 C 
HETATM   33  F   UNL     1      40.086 -10.328   5.456  1.00  0.00    -0.166 F 
HETATM   34  F   UNL     1      41.925  -9.216   5.099  1.00  0.00    -0.166 F 
HETATM   35  F   UNL     1      41.198 -10.617   3.604  1.00  0.00    -0.166 F 
ENDBRANCH   2  32
BRANCH   2  36
HETATM   36  O   UNL     1      42.005 -11.535   7.039  1.00  0.00    -0.363 OA
HETATM   37  H   UNL     1      41.473 -10.743   7.226  1.00  0.00     0.213 HD
ENDBRANCH   2  36
TORSDOF 8
ENDMDL
MODEL 2
REMARK VINA RESULT:      -8.3      2.573      5.438
REMARK  8 active torsions:
REMARK  status: ('A' for Active; 'I' for Inactive)
REMARK    1  A    between atoms: C_2  and  O_3 
REMARK    2  A    between atoms: O_3  and  C_4 
REMARK    3  A    between atoms: C_4  and  C_5 
REMARK    4  A    between atoms: C_6  and  C_8 
REMARK    5  A    between atoms: C_6  and  O_7 
REMARK    6  A    between atoms: C_16  and  C_17 
REMARK    7  A    between atoms: C_18  and  C_19 
REMARK    8  A    between atoms: N_26  and  C_27 
ROOT
HETATM    1  C   UNL     1      41.075 -11.858   3.964  1.00  0.00     0.177 C 
HETATM    2  C   UNL     1      39.992 -10.776   3.843  1.00  0.00     0.250 C 
HETATM    3  N   UNL     1      38.995 -10.971   4.883  1.00  0.00    -0.303 N 
HETATM    4  C   UNL     1      39.315 -11.270   6.161  1.00  0.00     0.319 C 
HETATM    5  O   UNL     1      38.520 -11.101   7.074  1.00  0.00    -0.247 OA
HETATM    6  N   UNL     1      40.533 -11.815   6.366  1.00  0.00    -0.333 N 
HETATM    7  C   UNL     1      41.613 -11.856   5.398  1.00  0.00     0.142 C 
HETATM    8  H   UNL     1      38.132 -10.442   4.806  1.00  0.00     0.167 HD
HETATM    9  H   UNL     1      40.742 -11.995   7.341  1.00  0.00     0.165 HD
ENDROOT
BRANCH   7  10
HETATM   10  C   UNL     1      42.441 -13.061   5.751  1.00  0.00     0.015 A 
HETATM   11  C   UNL     1      43.657 -13.113   6.500  1.00  0.00     0.097 A 
HETATM   12  N   UNL     1      44.123 -14.366   6.574  1.00  0.00    -0.167 NA
HETATM   13  N   UNL     1      43.231 -15.138   5.917  1.00  0.00    -0.244 N 
HETATM   14  C   UNL     1      42.194 -14.383   5.421  1.00  0.00     0.130 A 
BRANCH  11  15
HETATM   15  C   UNL     1      44.396 -12.023   7.140  1.00  0.00    -0.005 A 
HETATM   16  C   UNL     1      45.611 -11.562   6.617  1.00  0.00     0.014 A 
HETATM   17  C   UNL     1      46.304 -10.524   7.245  1.00  0.00     0.001 A 
HETATM   18  C   UNL     1      45.782  -9.928   8.391  1.00  0.00     0.000 A 
HETATM   19  C   UNL     1      44.563 -10.364   8.908  1.00  0.00     0.001 A 
HETATM   20  C   UNL     1      43.873 -11.405   8.284  1.00  0.00     0.014 A 
ENDBRANCH  11  15
BRANCH  13  21
HETATM   21  C   UNL     1      43.433 -16.542   5.797  1.00  0.00     0.058 A 
HETATM   22  C   UNL     1      43.865 -17.071   4.571  1.00  0.00     0.031 A 
HETATM   23  C   UNL     1      44.062 -18.446   4.425  1.00  0.00     0.002 A 
HETATM   24  C   UNL     1      43.829 -19.302   5.499  1.00  0.00     0.000 A 
HETATM   25  C   UNL     1      43.400 -18.784   6.721  1.00  0.00     0.002 A 
HETATM   26  C   UNL     1      43.203 -17.408   6.874  1.00  0.00     0.031 A 
ENDBRANCH  13  21
ENDBRANCH   7  10
BRANCH   1  27
HETATM   27  C   UNL     1      42.203 -11.628   2.985  1.00  0.00     0.270 C 
HETATM   28  O   UNL     1      43.256 -11.074   3.261  1.00  0.00    -0.265 OA
BRANCH  27  29
HETATM   29  O   UNL     1      41.885 -12.136   1.766  1.00  0.00    -0.321 OA
BRANCH  29  30
HETATM   30  C   UNL     1      41.662 -13.555   1.704  1.00  0.00     0.174 C 
HETATM   31  C   UNL     1      42.952 -14.335   1.877  1.00  0.00     0.034 C 
ENDBRANCH  29  30
ENDBRANCH  27  29
ENDBRANCH   1  27
BRANCH   2  32
HETATM   32  C   UNL     1      40.567  -9.310   3.851  1.00  0.00     0.439 C 
HETATM   33  F   UNL     1      41.048  -8.941   2.645  1.00  0.00    -0.166 F 
HETATM   34  F   UNL     1      39.596  -8.421   4.183  1.00  0.00    -0.166 F 
HETATM   35  F   UNL     1      41.561  -9.159   4.752  1.00  0.00    -0.166 F 
ENDBRANCH   2  32
BRANCH   2  36
HETATM   36  O   UNL     1      39.223 -11.013   2.658  1.00  0.00    -0.363 OA
HETATM   37  H   UNL     1      38.315 -10.741   2.875  1.00  0.00     0.213 HD
ENDBRANCH   2  36
TORSDOF 8
ENDMDL
MODEL 3
REMARK VINA RESULT:      -8.1      2.098      5.729
REMARK  8 active torsions:
REMARK  status: ('A' for Active; 'I' for Inactive)
REMARK    1  A    between atoms: C_2  and  O_3 
REMARK    2  A    between atoms: O_3  and  C_4 
REMARK    3  A    between atoms: C_4  and  C_5 
REMARK    4  A    between atoms: C_6  and  C_8 
REMARK    5  A    between atoms: C_6  and  O_7 
REMARK    6  A    between atoms: C_16  and  C_17 
REMARK    7  A    between atoms: C_18  and  C_19 
REMARK    8  A    between atoms: N_26  and  C_27 
ROOT
HETATM    1  C   UNL     1      41.658 -12.271   4.209  1.00  0.00     0.177 C 
HETATM    2  C   UNL     1      41.771 -11.928   5.701  1.00  0.00     0.250 C 
HETATM    3  N   UNL     1      40.711 -12.600   6.434  1.00  0.00    -0.303 N 
HETATM    4  C   UNL     1      40.359 -13.884   6.204  1.00  0.00     0.319 C 
HETATM    5  O   UNL     1      39.723 -14.529   7.025  1.00  0.00    -0.247 OA
HETATM    6  N   UNL     1      40.695 -14.395   5.001  1.00  0.00    -0.333 N 
HETATM    7  C   UNL     1      41.620 -13.795   4.057  1.00  0.00     0.142 C 
HETATM    8  H   UNL     1      40.557 -12.316   7.397  1.00  0.00     0.167 HD
HETATM    9  H   UNL     1      40.438 -15.369   4.883  1.00  0.00     0.165 HD
ENDROOT
BRANCH   7  10
HETATM   10  C   UNL     1      41.192 -14.272   2.696  1.00  0.00     0.015 A 
HETATM   11  C   UNL     1      41.540 -15.489   2.034  1.00  0.00     0.097 A 
HETATM   12  N   UNL     1      40.995 -15.545   0.812  1.00  0.00    -0.167 NA
HETATM   13  N   UNL     1      40.280 -14.409   0.669  1.00  0.00    -0.244 N 
HETATM   14  C   UNL     1      40.364 -13.625   1.795  1.00  0.00     0.130 A 
BRANCH  11  15
HETATM   15  C   UNL     1      42.373 -16.596   2.509  1.00  0.00    -0.005 A 
HETATM   16  C   UNL     1      42.359 -17.844   1.872  1.00  0.00     0.014 A 
HETATM   17  C   UNL     1      43.158 -18.889   2.344  1.00  0.00     0.001 A 
HETATM   18  C   UNL     1      43.988 -18.691   3.446  1.00  0.00     0.000 A 
HETATM   19  C   UNL     1      44.026 -17.448   4.074  1.00  0.00     0.001 A 
HETATM   20  C   UNL     1      43.225 -16.405   3.607  1.00  0.00     0.014 A 
ENDBRANCH  11  15
BRANCH  13  21
HETATM   21  C   UNL     1      39.572 -14.143  -0.538  1.00  0.00     0.058 A 
HETATM   22  C   UNL     1      39.046 -12.859  -0.757  1.00  0.00     0.031 A 
HETATM   23  C   UNL     1      38.340 -12.577  -1.928  1.00  0.00     0.002 A 
HETATM   24  C   UNL     1      38.153 -13.568  -2.887  1.00  0.00     0.000 A 
HETATM   25  C   UNL     1      38.672 -14.845  -2.678  1.00  0.00     0.002 A 
HETATM   26  C   UNL     1      39.382 -15.136  -1.508  1.00  0.00     0.031 A 
ENDBRANCH  13  21
ENDBRANCH   7  10
BRANCH   1  27
HETATM   27  C   UNL     1      42.811 -11.699   3.418  1.00  0.00     0.270 C 
HETATM   28  O   UNL     1      43.815 -12.323   3.109  1.00  0.00    -0.265 OA
BRANCH  27  29
HETATM   29  O   UNL     1      42.565 -10.404   3.088  1.00  0.00    -0.321 OA
BRANCH  29  30
HETATM   30  C   UNL     1      41.333 -10.146   2.394  1.00  0.00     0.174 C 
HETATM   31  C   UNL     1      41.517 -10.189   0.888  1.00  0.00     0.034 C 
ENDBRANCH  29  30
ENDBRANCH  27  29
ENDBRANCH   1  27
BRANCH   2  32
HETATM   32  C   UNL     1      43.190 -12.236   6.311  1.00  0.00     0.439 C 
HETATM   33  F   UNL     1      44.108 -11.306   5.971  1.00  0.00    -0.166 F 
HETATM   34  F   UNL     1      43.130 -12.263   7.667  1.00  0.00    -0.166 F 
HETATM   35  F   UNL     1      43.661 -13.439   5.916  1.00  0.00    -0.166 F 
ENDBRANCH   2  32
BRANCH   2  36
HETATM   36  O   UNL     1      41.426 -10.551   5.893  1.00  0.00    -0.363 OA
HETATM   37  H   UNL     1      42.201 -10.142   6.314  1.00  0.00     0.213 HD
ENDBRANCH   2  36
TORSDOF 8
ENDMDL
MODEL 4
REMARK VINA RESULT:      -7.8      1.997      3.126
REMARK  8 active torsions:
REMARK  status: ('A' for Active; 'I' for Inactive)
REMARK    1  A    between atoms: C_2  and  O_3 
REMARK    2  A    between atoms: O_3  and  C_4 
REMARK    3  A    between atoms: C_4  and  C_5 
REMARK    4  A    between atoms: C_6  and  C_8 
REMARK    5  A    between atoms: C_6  and  O_7 
REMARK    6  A    between atoms: C_16  and  C_17 
REMARK    7  A    between atoms: C_18  and  C_19 
REMARK    8  A    between atoms: N_26  and  C_27 
ROOT
HETATM    1  C   UNL     1      40.862 -12.103   3.935  1.00  0.00     0.177 C 
HETATM    2  C   UNL     1      39.891 -10.934   4.151  1.00  0.00     0.250 C 
HETATM    3  N   UNL     1      38.957 -10.868   3.039  1.00  0.00    -0.303 N 
HETATM    4  C   UNL     1      38.369 -11.963   2.509  1.00  0.00     0.319 C 
HETATM    5  O   UNL     1      37.359 -11.877   1.825  1.00  0.00    -0.247 OA
HETATM    6  N   UNL     1      38.986 -13.144   2.726  1.00  0.00    -0.333 N 
HETATM    7  C   UNL     1      40.049 -13.377   3.686  1.00  0.00     0.142 C 
HETATM    8  H   UNL     1      38.381 -10.036   2.963  1.00  0.00     0.167 HD
HETATM    9  H   UNL     1      38.494 -13.941   2.336  1.00  0.00     0.165 HD
ENDROOT
BRANCH   7  10
HETATM   10  C   UNL     1      40.851 -14.529   3.144  1.00  0.00     0.015 A 
HETATM   11  C   UNL     1      41.127 -14.852   1.780  1.00  0.00     0.097 A 
HETATM   12  N   UNL     1      41.845 -15.979   1.689  1.00  0.00    -0.167 NA
HETATM   13  N   UNL     1      42.067 -16.386   2.957  1.00  0.00    -0.244 N 
HETATM   14  C   UNL     1      41.493 -15.523   3.861  1.00  0.00     0.130 A 
BRANCH  11  15
HETATM   15  C   UNL     1      40.733 -14.141   0.563  1.00  0.00    -0.005 A 
HETATM   16  C   UNL     1      41.236 -12.867   0.268  1.00  0.00     0.014 A 
HETATM   17  C   UNL     1      40.844 -12.203  -0.898  1.00  0.00     0.001 A 
HETATM   18  C   UNL     1      39.958 -12.812  -1.785  1.00  0.00     0.000 A 
HETATM   19  C   UNL     1      39.468 -14.088  -1.512  1.00  0.00     0.001 A 
HETATM   20  C   UNL     1      39.855 -14.749  -0.346  1.00  0.00     0.014 A 
ENDBRANCH  11  15
BRANCH  13  21
HETATM   21  C   UNL     1      42.802 -17.576   3.220  1.00  0.00     0.058 A 
HETATM   22  C   UNL     1      42.842 -18.589   2.248  1.00  0.00     0.031 A 
HETATM   23  C   UNL     1      43.548 -19.769   2.486  1.00  0.00     0.002 A 
HETATM   24  C   UNL     1      44.219 -19.949   3.694  1.00  0.00     0.000 A 
HETATM   25  C   UNL     1      44.184 -18.950   4.665  1.00  0.00     0.002 A 
HETATM   26  C   UNL     1      43.480 -17.764   4.432  1.00  0.00     0.031 A 
ENDBRANCH  13  21
ENDBRANCH   7  10
BRANCH   1  27
HETATM   27  C   UNL     1      41.777 -12.294   5.122  1.00  0.00     0.270 C 
HETATM   28  O   UNL     1      41.600 -13.119   6.006  1.00  0.00    -0.265 OA
BRANCH  27  29
HETATM   29  O   UNL     1      42.825 -11.433   5.058  1.00  0.00    -0.321 OA
BRANCH  29  30
HETATM   30  C   UNL     1      43.337 -10.955   6.313  1.00  0.00     0.174 C 
HETATM   31  C   UNL     1      44.695 -11.552   6.631  1.00  0.00     0.034 C 
ENDBRANCH  29  30
ENDBRANCH  27  29
ENDBRANCH   1  27
BRANCH   2  32
HETATM   32  C   UNL     1      39.148 -10.984   5.539  1.00  0.00     0.439 C 
HETATM   33  F   UNL     1      39.920 -10.533   6.551  1.00  0.00    -0.166 F 
HETATM   34  F   UNL     1      38.034 -10.210   5.509  1.00  0.00    -0.166 F 
HETATM   35  F   UNL     1      38.748 -12.234   5.855  1.00  0.00    -0.166 F 
ENDBRANCH   2  32
BRANCH   2  36
HETATM   36  O   UNL     1      40.603  -9.700   4.002  1.00  0.00    -0.363 OA
HETATM   37  H   UNL     1      40.905  -9.680   3.078  1.00  0.00     0.213 HD
ENDBRANCH   2  36
TORSDOF 8
ENDMDL
MODEL 5
REMARK VINA RESULT:      -7.8      3.136      6.048
REMARK  8 active torsions:
REMARK  status: ('A' for Active; 'I' for Inactive)
REMARK    1  A    between atoms: C_2  and  O_3 
REMARK    2  A    between atoms: O_3  and  C_4 
REMARK    3  A    between atoms: C_4  and  C_5 
REMARK    4  A    between atoms: C_6  and  C_8 
REMARK    5  A    between atoms: C_6  and  O_7 
REMARK    6  A    between atoms: C_16  and  C_17 
REMARK    7  A    between atoms: C_18  and  C_19 
REMARK    8  A    between atoms: N_26  and  C_27 
ROOT
HETATM    1  C   UNL     1      40.053 -10.630   3.093  1.00  0.00     0.177 C 
HETATM    2  C   UNL     1      39.319 -10.172   1.825  1.00  0.00     0.250 C 
HETATM    3  N   UNL     1      40.259  -9.512   0.933  1.00  0.00    -0.303 N 
HETATM    4  C   UNL     1      41.500  -9.987   0.693  1.00  0.00     0.319 C 
HETATM    5  O   UNL     1      42.141  -9.632  -0.285  1.00  0.00    -0.247 OA
HETATM    6  N   UNL     1      42.014 -10.828   1.616  1.00  0.00    -0.333 N 
HETATM    7  C   UNL     1      41.267 -11.470   2.682  1.00  0.00     0.142 C 
HETATM    8  H   UNL     1      39.873  -9.000   0.146  1.00  0.00     0.167 HD
HETATM    9  H   UNL     1      42.934 -11.183   1.380  1.00  0.00     0.165 HD
ENDROOT
BRANCH   7  10
HETATM   10  C   UNL     1      42.254 -11.717   3.789  1.00  0.00     0.015 A 
HETATM   11  C   UNL     1      42.918 -12.936   4.129  1.00  0.00     0.097 A 
HETATM   12  N   UNL     1      43.697 -12.774   5.206  1.00  0.00    -0.167 NA
HETATM   13  N   UNL     1      43.581 -11.478   5.562  1.00  0.00    -0.244 N 
HETATM   14  C   UNL     1      42.729 -10.806   4.717  1.00  0.00     0.130 A 
BRANCH  11  15
HETATM   15  C   UNL     1      42.836 -14.245   3.480  1.00  0.00    -0.005 A 
HETATM   16  C   UNL     1      43.358 -14.456   2.196  1.00  0.00     0.014 A 
HETATM   17  C   UNL     1      43.267 -15.713   1.592  1.00  0.00     0.001 A 
HETATM   18  C   UNL     1      42.668 -16.773   2.271  1.00  0.00     0.000 A 
HETATM   19  C   UNL     1      42.165 -16.580   3.556  1.00  0.00     0.001 A 
HETATM   20  C   UNL     1      42.251 -15.324   4.158  1.00  0.00     0.014 A 
ENDBRANCH  11  15
BRANCH  13  21
HETATM   21  C   UNL     1      44.283 -10.968   6.692  1.00  0.00     0.058 A 
HETATM   22  C   UNL     1      43.557 -10.417   7.760  1.00  0.00     0.031 A 
HETATM   23  C   UNL     1      44.222  -9.902   8.874  1.00  0.00     0.002 A 
HETATM   24  C   UNL     1      45.613  -9.933   8.932  1.00  0.00     0.000 A 
HETATM   25  C   UNL     1      46.342 -10.480   7.876  1.00  0.00     0.002 A 
HETATM   26  C   UNL     1      45.682 -10.998   6.758  1.00  0.00     0.031 A 
ENDBRANCH  13  21
ENDBRANCH   7  10
BRANCH   1  27
HETATM   27  C   UNL     1      39.149 -11.433   3.999  1.00  0.00     0.270 C 
HETATM   28  O   UNL     1      39.131 -12.654   4.053  1.00  0.00    -0.265 OA
BRANCH  27  29
HETATM   29  O   UNL     1      38.377 -10.607   4.752  1.00  0.00    -0.321 OA
BRANCH  29  30
HETATM   30  C   UNL     1      39.071  -9.736   5.660  1.00  0.00     0.174 C 
HETATM   31  C   UNL     1      39.536 -10.472   6.903  1.00  0.00     0.034 C 
ENDBRANCH  29  30
ENDBRANCH  27  29
ENDBRANCH   1  27
BRANCH   2  32
HETATM   32  C   UNL     1      38.538 -11.331   1.098  1.00  0.00     0.439 C 
HETATM   33  F   UNL     1      37.367 -11.620   1.706  1.00  0.00    -0.166 F 
HETATM   34  F   UNL     1      38.249 -10.980  -0.181  1.00  0.00    -0.166 F 
HETATM   35  F   UNL     1      39.260 -12.470   1.039  1.00  0.00    -0.166 F 
ENDBRANCH   2  32
BRANCH   2  36
HETATM   36  O   UNL     1      38.434  -9.096   2.159  1.00  0.00    -0.363 OA
HETATM   37  H   UNL     1      38.808  -8.686   2.957  1.00  0.00     0.213 HD
ENDBRANCH   2  36
TORSDOF 8
ENDMDL
MODEL 6
REMARK VINA RESULT:      -7.6      3.066      5.891
REMARK  8 active torsions:
REMARK  status: ('A' for Active; 'I' for Inactive)
REMARK    1  A    between atoms: C_2  and  O_3 
REMARK    2  A    between atoms: O_3  and  C_4 
REMARK    3  A    between atoms: C_4  and  C_5 
REMARK    4  A    between atoms: C_6  and  C_8 
REMARK    5  A    between atoms: C_6  and  O_7 
REMARK    6  A    between atoms: C_16  and  C_17 
REMARK    7  A    between atoms: C_18  and  C_19 
REMARK    8  A    between atoms: N_26  and  C_27 
ROOT
HETATM    1  C   UNL     1      42.781 -15.204   4.779  1.00  0.00     0.177 C 
HETATM    2  C   UNL     1      43.536 -15.499   6.082  1.00  0.00     0.250 C 
HETATM    3  N   UNL     1      44.246 -14.305   6.511  1.00  0.00    -0.303 N 
HETATM    4  C   UNL     1      43.695 -13.072   6.477  1.00  0.00     0.319 C 
HETATM    5  O   UNL     1      44.154 -12.150   7.136  1.00  0.00    -0.247 OA
HETATM    6  N   UNL     1      42.652 -12.900   5.638  1.00  0.00    -0.333 N 
HETATM    7  C   UNL     1      41.908 -13.962   4.987  1.00  0.00     0.142 C 
HETATM    8  H   UNL     1      44.930 -14.411   7.254  1.00  0.00     0.167 HD
HETATM    9  H   UNL     1      42.252 -11.969   5.668  1.00  0.00     0.165 HD
ENDROOT
BRANCH   7  10
HETATM   10  C   UNL     1      41.363 -13.368   3.717  1.00  0.00     0.015 A 
HETATM   11  C   UNL     1      40.561 -12.195   3.561  1.00  0.00     0.097 A 
HETATM   12  N   UNL     1      40.234 -12.004   2.276  1.00  0.00    -0.167 NA
HETATM   13  N   UNL     1      40.822 -13.004   1.587  1.00  0.00    -0.244 N 
HETATM   14  C   UNL     1      41.525 -13.837   2.425  1.00  0.00     0.130 A 
BRANCH  11  15
HETATM   15  C   UNL     1      40.088 -11.256   4.579  1.00  0.00    -0.005 A 
HETATM   16  C   UNL     1      40.497  -9.916   4.581  1.00  0.00     0.014 A 
HETATM   17  C   UNL     1      40.038  -9.035   5.564  1.00  0.00     0.001 A 
HETATM   18  C   UNL     1      39.153  -9.482   6.544  1.00  0.00     0.000 A 
HETATM   19  C   UNL     1      38.722 -10.808   6.540  1.00  0.00     0.001 A 
HETATM   20  C   UNL     1      39.185 -11.689   5.561  1.00  0.00     0.014 A 
ENDBRANCH  11  15
BRANCH  13  21
HETATM   21  C   UNL     1      40.665 -13.105   0.175  1.00  0.00     0.058 A 
HETATM   22  C   UNL     1      41.099 -12.048  -0.641  1.00  0.00     0.031 A 
HETATM   23  C   UNL     1      40.947 -12.119  -2.027  1.00  0.00     0.002 A 
HETATM   24  C   UNL     1      40.363 -13.241  -2.609  1.00  0.00     0.000 A 
HETATM   25  C   UNL     1      39.929 -14.295  -1.806  1.00  0.00     0.002 A 
HETATM   26  C   UNL     1      40.080 -14.232  -0.417  1.00  0.00     0.031 A 
ENDBRANCH  13  21
ENDBRANCH   7  10
BRANCH   1  27
HETATM   27  C   UNL     1      41.925 -16.375   4.354  1.00  0.00     0.270 C 
HETATM   28  O   UNL     1      40.704 -16.391   4.398  1.00  0.00    -0.265 OA
BRANCH  27  29
HETATM   29  O   UNL     1      42.703 -17.394   3.904  1.00  0.00    -0.321 OA
BRANCH  29  30
HETATM   30  C   UNL     1      42.618 -17.689   2.500  1.00  0.00     0.174 C 
HETATM   31  C   UNL     1      43.142 -19.078   2.185  1.00  0.00     0.034 C 
ENDBRANCH  29  30
ENDBRANCH  27  29
ENDBRANCH   1  27
BRANCH   2  32
HETATM   32  C   UNL     1      42.617 -16.076   7.223  1.00  0.00     0.439 C 
HETATM   33  F   UNL     1      42.508 -17.421   7.165  1.00  0.00    -0.166 F 
HETATM   34  F   UNL     1      43.124 -15.768   8.444  1.00  0.00    -0.166 F 
HETATM   35  F   UNL     1      41.369 -15.563   7.177  1.00  0.00    -0.166 F 
ENDBRANCH   2  32
BRANCH   2  36
HETATM   36  O   UNL     1      44.619 -16.394   5.803  1.00  0.00    -0.363 OA
HETATM   37  H   UNL     1      44.959 -16.132   4.931  1.00  0.00     0.213 HD
ENDBRANCH   2  36
TORSDOF 8
ENDMDL
MODEL 7
REMARK VINA RESULT:      -7.4     15.520     19.018
REMARK  8 active torsions:
REMARK  status: ('A' for Active; 'I' for Inactive)
REMARK    1  A    between atoms: C_2  and  O_3 
REMARK    2  A    between atoms: O_3  and  C_4 
REMARK    3  A    between atoms: C_4  and  C_5 
REMARK    4  A    between atoms: C_6  and  C_8 
REMARK    5  A    between atoms: C_6  and  O_7 
REMARK    6  A    between atoms: C_16  and  C_17 
REMARK    7  A    between atoms: C_18  and  C_19 
REMARK    8  A    between atoms: N_26  and  C_27 
ROOT
HETATM    1  C   UNL     1      47.245 -30.456  -0.671  1.00  0.00     0.177 C 
HETATM    2  C   UNL     1      46.061 -29.543  -0.326  1.00  0.00     0.250 C 
HETATM    3  N   UNL     1      46.341 -28.833   0.911  1.00  0.00    -0.303 N 
HETATM    4  C   UNL     1      47.543 -28.280   1.184  1.00  0.00     0.319 C 
HETATM    5  O   UNL     1      47.670 -27.420   2.043  1.00  0.00    -0.247 OA
HETATM    6  N   UNL     1      48.601 -28.767   0.500  1.00  0.00    -0.333 N 
HETATM    7  C   UNL     1      48.528 -29.619  -0.672  1.00  0.00     0.142 C 
HETATM    8  H   UNL     1      45.571 -28.337   1.349  1.00  0.00     0.167 HD
HETATM    9  H   UNL     1      49.476 -28.303   0.715  1.00  0.00     0.165 HD
ENDROOT
BRANCH   7  10
HETATM   10  C   UNL     1      49.796 -30.428  -0.675  1.00  0.00     0.015 A 
HETATM   11  C   UNL     1      50.465 -31.031   0.434  1.00  0.00     0.097 A 
HETATM   12  N   UNL     1      51.592 -31.640   0.043  1.00  0.00    -0.167 NA
HETATM   13  N   UNL     1      51.663 -31.474  -1.295  1.00  0.00    -0.244 N 
HETATM   14  C   UNL     1      50.585 -30.760  -1.763  1.00  0.00     0.130 A 
BRANCH  11  15
HETATM   15  C   UNL     1      50.085 -31.046   1.848  1.00  0.00    -0.005 A 
HETATM   16  C   UNL     1      49.008 -31.818   2.304  1.00  0.00     0.014 A 
HETATM   17  C   UNL     1      48.657 -31.815   3.657  1.00  0.00     0.001 A 
HETATM   18  C   UNL     1      49.388 -31.054   4.566  1.00  0.00     0.000 A 
HETATM   19  C   UNL     1      50.474 -30.299   4.127  1.00  0.00     0.001 A 
HETATM   20  C   UNL     1      50.822 -30.297   2.776  1.00  0.00     0.014 A 
ENDBRANCH  11  15
BRANCH  13  21
HETATM   21  C   UNL     1      52.760 -31.998  -2.036  1.00  0.00     0.058 A 
HETATM   22  C   UNL     1      53.842 -32.571  -1.349  1.00  0.00     0.031 A 
HETATM   23  C   UNL     1      54.934 -33.083  -2.052  1.00  0.00     0.002 A 
HETATM   24  C   UNL     1      54.955 -33.029  -3.444  1.00  0.00     0.000 A 
HETATM   25  C   UNL     1      53.884 -32.463  -4.134  1.00  0.00     0.002 A 
HETATM   26  C   UNL     1      52.787 -31.949  -3.437  1.00  0.00     0.031 A 
ENDBRANCH  13  21
ENDBRANCH   7  10
BRANCH   1  27
HETATM   27  C   UNL     1      47.060 -31.124  -2.014  1.00  0.00     0.270 C 
HETATM   28  O   UNL     1      47.529 -30.710  -3.063  1.00  0.00    -0.265 OA
BRANCH  27  29
HETATM   29  O   UNL     1      46.315 -32.253  -1.884  1.00  0.00    -0.321 OA
BRANCH  29  30
HETATM   30  C   UNL     1      45.517 -32.625  -3.021  1.00  0.00     0.174 C 
HETATM   31  C   UNL     1      44.048 -32.314  -2.803  1.00  0.00     0.034 C 
ENDBRANCH  29  30
ENDBRANCH  27  29
ENDBRANCH   1  27
BRANCH   2  32
HETATM   32  C   UNL     1      45.669 -28.557  -1.491  1.00  0.00     0.439 C 
HETATM   33  F   UNL     1      44.951 -29.166  -2.459  1.00  0.00    -0.166 F 
HETATM   34  F   UNL     1      44.913 -27.535  -1.015  1.00  0.00    -0.166 F 
HETATM   35  F   UNL     1      46.754 -28.003  -2.074  1.00  0.00    -0.166 F 
ENDBRANCH   2  32
BRANCH   2  36
HETATM   36  O   UNL     1      44.940 -30.350   0.052  1.00  0.00    -0.363 OA
HETATM   37  H   UNL     1      44.745 -30.907  -0.721  1.00  0.00     0.213 HD
ENDBRANCH   2  36
TORSDOF 8
ENDMDL
MODEL 8
REMARK VINA RESULT:      -7.3      3.850      7.512
REMARK  8 active torsions:
REMARK  status: ('A' for Active; 'I' for Inactive)
REMARK    1  A    between atoms: C_2  and  O_3 
REMARK    2  A    between atoms: O_3  and  C_4 
REMARK    3  A    between atoms: C_4  and  C_5 
REMARK    4  A    between atoms: C_6  and  C_8 
REMARK    5  A    between atoms: C_6  and  O_7 
REMARK    6  A    between atoms: C_16  and  C_17 
REMARK    7  A    between atoms: C_18  and  C_19 
REMARK    8  A    between atoms: N_26  and  C_27 
ROOT
HETATM    1  C   UNL     1      40.917 -11.849  -0.148  1.00  0.00     0.177 C 
HETATM    2  C   UNL     1      40.605 -12.335  -1.570  1.00  0.00     0.250 C 
HETATM    3  N   UNL     1      40.434 -13.778  -1.562  1.00  0.00    -0.303 N 
HETATM    4  C   UNL     1      39.735 -14.429  -0.607  1.00  0.00     0.319 C 
HETATM    5  O   UNL     1      39.319 -15.565  -0.783  1.00  0.00    -0.247 OA
HETATM    6  N   UNL     1      39.572 -13.783   0.567  1.00  0.00    -0.333 N 
HETATM    7  C   UNL     1      39.835 -12.376   0.800  1.00  0.00     0.142 C 
HETATM    8  H   UNL     1      40.406 -14.249  -2.461  1.00  0.00     0.167 HD
HETATM    9  H   UNL     1      39.017 -14.297   1.243  1.00  0.00     0.165 HD
ENDROOT
BRANCH   7  10
HETATM   10  C   UNL     1      40.177 -12.254   2.260  1.00  0.00     0.015 A 
HETATM   11  C   UNL     1      40.964 -13.136   3.062  1.00  0.00     0.097 A 
HETATM   12  N   UNL     1      41.013 -12.715   4.333  1.00  0.00    -0.167 NA
HETATM   13  N   UNL     1      40.302 -11.569   4.376  1.00  0.00    -0.244 N 
HETATM   14  C   UNL     1      39.796 -11.253   3.136  1.00  0.00     0.130 A 
BRANCH  11  15
HETATM   15  C   UNL     1      41.663 -14.363   2.675  1.00  0.00    -0.005 A 
HETATM   16  C   UNL     1      41.148 -15.626   2.995  1.00  0.00     0.014 A 
HETATM   17  C   UNL     1      41.833 -16.786   2.620  1.00  0.00     0.001 A 
HETATM   18  C   UNL     1      43.029 -16.692   1.911  1.00  0.00     0.000 A 
HETATM   19  C   UNL     1      43.539 -15.441   1.569  1.00  0.00     0.001 A 
HETATM   20  C   UNL     1      42.858 -14.283   1.947  1.00  0.00     0.014 A 
ENDBRANCH  11  15
BRANCH  13  21
HETATM   21  C   UNL     1      40.144 -10.857   5.598  1.00  0.00     0.058 A 
HETATM   22  C   UNL     1      40.967  -9.750   5.861  1.00  0.00     0.031 A 
HETATM   23  C   UNL     1      40.837  -9.041   7.057  1.00  0.00     0.002 A 
HETATM   24  C   UNL     1      39.888  -9.430   7.999  1.00  0.00     0.000 A 
HETATM   25  C   UNL     1      39.066 -10.528   7.747  1.00  0.00     0.002 A 
HETATM   26  C   UNL     1      39.189 -11.241   6.550  1.00  0.00     0.031 A 
ENDBRANCH  13  21
ENDBRANCH   7  10
BRANCH   1  27
HETATM   27  C   UNL     1      40.980 -10.341  -0.076  1.00  0.00     0.270 C 
HETATM   28  O   UNL     1      40.081  -9.630   0.347  1.00  0.00    -0.265 OA
BRANCH  27  29
HETATM   29  O   UNL     1      42.180  -9.893  -0.532  1.00  0.00    -0.321 OA
BRANCH  29  30
HETATM   30  C   UNL     1      42.261  -8.494  -0.848  1.00  0.00     0.174 C 
HETATM   31  C   UNL     1      42.199  -8.249  -2.344  1.00  0.00     0.034 C 
ENDBRANCH  29  30
ENDBRANCH  27  29
ENDBRANCH   1  27
BRANCH   2  32
HETATM   32  C   UNL     1      39.374 -11.603  -2.227  1.00  0.00     0.439 C 
HETATM   33  F   UNL     1      38.356 -11.429  -1.358  1.00  0.00    -0.166 F 
HETATM   34  F   UNL     1      39.735 -10.372  -2.672  1.00  0.00    -0.166 F 
HETATM   35  F   UNL     1      38.892 -12.278  -3.292  1.00  0.00    -0.166 F 
ENDBRANCH   2  32
BRANCH   2  36
HETATM   36  O   UNL     1      41.775 -12.187  -2.384  1.00  0.00    -0.363 OA
HETATM   37  H   UNL     1      41.521 -11.581  -3.101  1.00  0.00     0.213 HD
ENDBRANCH   2  36
TORSDOF 8
ENDMDL
MODEL 9
REMARK VINA RESULT:      -7.2     16.155     17.982
REMARK  8 active torsions:
REMARK  status: ('A' for Active; 'I' for Inactive)
REMARK    1  A    between atoms: C_2  and  O_3 
REMARK    2  A    between atoms: O_3  and  C_4 
REMARK    3  A    between atoms: C_4  and  C_5 
REMARK    4  A    between atoms: C_6  and  C_8 
REMARK    5  A    between atoms: C_6  and  O_7 
REMARK    6  A    between atoms: C_16  and  C_17 
REMARK    7  A    between atoms: C_18  and  C_19 
REMARK    8  A    between atoms: N_26  and  C_27 
ROOT
HETATM    1  C   UNL     1      47.947 -31.208   1.186  1.00  0.00     0.177 C 
HETATM    2  C   UNL     1      49.332 -31.616   0.666  1.00  0.00     0.250 C 
HETATM    3  N   UNL     1      49.182 -32.615  -0.379  1.00  0.00    -0.303 N 
HETATM    4  C   UNL     1      48.248 -32.525  -1.352  1.00  0.00     0.319 C 
HETATM    5  O   UNL     1      48.344 -33.165  -2.389  1.00  0.00    -0.247 OA
HETATM    6  N   UNL     1      47.182 -31.739  -1.094  1.00  0.00    -0.333 N 
HETATM    7  C   UNL     1      47.080 -30.786  -0.004  1.00  0.00     0.142 C 
HETATM    8  H   UNL     1      50.019 -33.104  -0.681  1.00  0.00     0.167 HD
HETATM    9  H   UNL     1      46.523 -31.677  -1.862  1.00  0.00     0.165 HD
ENDROOT
BRANCH   7  10
HETATM   10  C   UNL     1      45.613 -30.669   0.308  1.00  0.00     0.015 A 
HETATM   11  C   UNL     1      44.578 -30.105  -0.500  1.00  0.00     0.097 A 
HETATM   12  N   UNL     1      43.398 -30.145   0.134  1.00  0.00    -0.167 NA
HETATM   13  N   UNL     1      43.630 -30.743   1.321  1.00  0.00    -0.244 N 
HETATM   14  C   UNL     1      44.956 -31.087   1.452  1.00  0.00     0.130 A 
BRANCH  11  15
HETATM   15  C   UNL     1      44.663 -29.524  -1.841  1.00  0.00    -0.005 A 
HETATM   16  C   UNL     1      44.129 -30.185  -2.956  1.00  0.00     0.014 A 
HETATM   17  C   UNL     1      44.225 -29.616  -4.229  1.00  0.00     0.001 A 
HETATM   18  C   UNL     1      44.840 -28.377  -4.397  1.00  0.00     0.000 A 
HETATM   19  C   UNL     1      45.356 -27.701  -3.292  1.00  0.00     0.001 A 
HETATM   20  C   UNL     1      45.265 -28.271  -2.021  1.00  0.00     0.014 A 
ENDBRANCH  11  15
BRANCH  13  21
HETATM   21  C   UNL     1      42.575 -30.937   2.256  1.00  0.00     0.058 A 
HETATM   22  C   UNL     1      41.664 -31.987   2.057  1.00  0.00     0.031 A 
HETATM   23  C   UNL     1      40.615 -32.191   2.955  1.00  0.00     0.002 A 
HETATM   24  C   UNL     1      40.465 -31.353   4.056  1.00  0.00     0.000 A 
HETATM   25  C   UNL     1      41.365 -30.308   4.262  1.00  0.00     0.002 A 
HETATM   26  C   UNL     1      42.419 -30.097   3.368  1.00  0.00     0.031 A 
ENDBRANCH  13  21
ENDBRANCH   7  10
BRANCH   1  27
HETATM   27  C   UNL     1      48.038 -30.080   2.187  1.00  0.00     0.270 C 
HETATM   28  O   UNL     1      47.774 -28.913   1.941  1.00  0.00    -0.265 OA
BRANCH  27  29
HETATM   29  O   UNL     1      48.439 -30.551   3.397  1.00  0.00    -0.321 OA
BRANCH  29  30
HETATM   30  C   UNL     1      49.373 -29.734   4.123  1.00  0.00     0.174 C 
HETATM   31  C   UNL     1      50.602 -30.521   4.539  1.00  0.00     0.034 C 
ENDBRANCH  29  30
ENDBRANCH  27  29
ENDBRANCH   1  27
BRANCH   2  32
HETATM   32  C   UNL     1      50.208 -30.396   0.189  1.00  0.00     0.439 C 
HETATM   33  F   UNL     1      50.856 -29.799   1.211  1.00  0.00    -0.166 F 
HETATM   34  F   UNL     1      51.150 -30.805  -0.699  1.00  0.00    -0.166 F 
HETATM   35  F   UNL     1      49.468 -29.453  -0.433  1.00  0.00    -0.166 F 
ENDBRANCH   2  32
BRANCH   2  36
HETATM   36  O   UNL     1      50.013 -32.362   1.681  1.00  0.00    -0.363 OA
HETATM   37  H   UNL     1      50.618 -32.959   1.208  1.00  0.00     0.213 HD
ENDBRANCH   2  36
TORSDOF 8
ENDMDL
MODEL 10
REMARK VINA RESULT:      -7.1      3.405      6.188
REMARK  8 active torsions:
REMARK  status: ('A' for Active; 'I' for Inactive)
REMARK    1  A    between atoms: C_2  and  O_3 
REMARK    2  A    between atoms: O_3  and  C_4 
REMARK    3  A    between atoms: C_4  and  C_5 
REMARK    4  A    between atoms: C_6  and  C_8 
REMARK    5  A    between atoms: C_6  and  O_7 
REMARK    6  A    between atoms: C_16  and  C_17 
REMARK    7  A    between atoms: C_18  and  C_19 
REMARK    8  A    between atoms: N_26  and  C_27 
ROOT
HETATM    1  C   UNL     1      41.969 -13.829   4.965  1.00  0.00     0.177 C 
HETATM    2  C   UNL     1      42.355 -14.649   6.203  1.00  0.00     0.250 C 
HETATM    3  N   UNL     1      41.188 -15.363   6.694  1.00  0.00    -0.303 N 
HETATM    4  C   UNL     1      40.320 -16.000   5.878  1.00  0.00     0.319 C 
HETATM    5  O   UNL     1      39.557 -16.857   6.301  1.00  0.00    -0.247 OA
HETATM    6  N   UNL     1      40.300 -15.600   4.589  1.00  0.00    -0.333 N 
HETATM    7  C   UNL     1      41.295 -14.758   3.950  1.00  0.00     0.142 C 
HETATM    8  H   UNL     1      41.257 -15.796   7.610  1.00  0.00     0.167 HD
HETATM    9  H   UNL     1      39.656 -16.124   4.007  1.00  0.00     0.165 HD
ENDROOT
BRANCH   7  10
HETATM   10  C   UNL     1      40.580 -14.045   2.836  1.00  0.00     0.015 A 
HETATM   11  C   UNL     1      39.880 -12.800   2.886  1.00  0.00     0.097 A 
HETATM   12  N   UNL     1      39.338 -12.505   1.697  1.00  0.00    -0.167 NA
HETATM   13  N   UNL     1      39.687 -13.510   0.866  1.00  0.00    -0.244 N 
HETATM   14  C   UNL     1      40.452 -14.449   1.518  1.00  0.00     0.130 A 
BRANCH  11  15
HETATM   15  C   UNL     1      39.699 -11.885   4.014  1.00  0.00    -0.005 A 
HETATM   16  C   UNL     1      39.153 -12.324   5.228  1.00  0.00     0.014 A 
HETATM   17  C   UNL     1      38.984 -11.434   6.292  1.00  0.00     0.001 A 
HETATM   18  C   UNL     1      39.372 -10.103   6.157  1.00  0.00     0.000 A 
HETATM   19  C   UNL     1      39.935  -9.659   4.962  1.00  0.00     0.001 A 
HETATM   20  C   UNL     1      40.100 -10.547   3.897  1.00  0.00     0.014 A 
ENDBRANCH  11  15
BRANCH  13  21
HETATM   21  C   UNL     1      39.259 -13.513  -0.492  1.00  0.00     0.058 A 
HETATM   22  C   UNL     1      39.473 -14.657  -1.277  1.00  0.00     0.031 A 
HETATM   23  C   UNL     1      39.071 -14.681  -2.614  1.00  0.00     0.002 A 
HETATM   24  C   UNL     1      38.454 -13.566  -3.177  1.00  0.00     0.000 A 
HETATM   25  C   UNL     1      38.237 -12.426  -2.405  1.00  0.00     0.002 A 
HETATM   26  C   UNL     1      38.636 -12.395  -1.065  1.00  0.00     0.031 A 
ENDBRANCH  13  21
ENDBRANCH   7  10
BRANCH   1  27
HETATM   27  C   UNL     1      43.174 -13.165   4.339  1.00  0.00     0.270 C 
HETATM   28  O   UNL     1      43.518 -13.310   3.176  1.00  0.00    -0.265 OA
BRANCH  27  29
HETATM   29  O   UNL     1      43.806 -12.376   5.247  1.00  0.00    -0.321 OA
BRANCH  29  30
HETATM   30  C   UNL     1      43.459 -10.982   5.232  1.00  0.00     0.174 C 
HETATM   31  C   UNL     1      43.107 -10.475   6.619  1.00  0.00     0.034 C 
ENDBRANCH  29  30
ENDBRANCH  27  29
ENDBRANCH   1  27
BRANCH   2  32
HETATM   32  C   UNL     1      43.574 -15.617   5.960  1.00  0.00     0.439 C 
HETATM   33  F   UNL     1      43.425 -16.800   6.592  1.00  0.00    -0.166 F 
HETATM   34  F   UNL     1      43.712 -15.885   4.636  1.00  0.00    -0.166 F 
HETATM   35  F   UNL     1      44.741 -15.077   6.373  1.00  0.00    -0.166 F 
ENDBRANCH   2  32
BRANCH   2  36
HETATM   36  O   UNL     1      42.626 -13.757   7.291  1.00  0.00    -0.363 OA
HETATM   37  H   UNL     1      42.042 -12.992   7.155  1.00  0.00     0.213 HD
ENDBRANCH   2  36
TORSDOF 8
ENDMDL
