MODEL 1
REMARK VINA RESULT:      -9.6      0.000      0.000
REMARK  6 active torsions:
REMARK  status: ('A' for Active; 'I' for Inactive)
REMARK    1  A    between atoms: C_4  and  C_5 
REMARK    2  A    between atoms: C_5  and  O_6 
REMARK    3  A    between atoms: O_6  and  C_7 
REMARK    4  A    between atoms: C_10  and  C_11 
REMARK    5  A    between atoms: C_17  and  C_18 
REMARK    6  A    between atoms: C_27  and  N_28 
ROOT
HETATM    1  C   UNL     1      40.236 -14.250   0.104  1.00  0.00     0.072 A 
HETATM    2  N   UNL     1      39.353 -14.913  -0.725  1.00  0.00    -0.274 N 
HETATM    3  H   UNL     1      38.989 -15.854  -0.612  1.00  0.00     0.189 HD
HETATM    4  N   UNL     1      38.979 -14.213  -1.814  1.00  0.00    -0.148 NA
HETATM    5  C   UNL     1      39.651 -13.081  -1.665  1.00  0.00     0.199 A 
HETATM    6  C   UNL     1      40.421 -13.015  -0.500  1.00  0.00     0.040 A 
HETATM    7  C   UNL     1      41.210 -11.792  -0.190  1.00  0.00     0.107 A 
HETATM    8  C   UNL     1      41.152 -10.796  -1.342  1.00  0.00     0.081 A 
HETATM    9  C   UNL     1      42.004  -9.655  -1.241  1.00  0.00     0.100 C 
HETATM   10  N   UNL     1      42.700  -8.733  -1.145  1.00  0.00    -0.191 NA
HETATM   11  C   UNL     1      40.375 -10.982  -2.440  1.00  0.00     0.140 A 
HETATM   12  O   UNL     1      39.564 -12.114  -2.596  1.00  0.00    -0.277 OA
ENDROOT
BRANCH   7  13
HETATM   13  C   UNL     1      40.646 -11.230   1.101  1.00  0.00    -0.027 A 
HETATM   14  C   UNL     1      39.377 -10.653   1.185  1.00  0.00     0.124 A 
HETATM   15  N   UNL     1      38.863 -10.095   2.304  1.00  0.00    -0.273 NA
HETATM   16  C   UNL     1      39.646 -10.104   3.403  1.00  0.00     0.116 A 
HETATM   17  C   UNL     1      40.918 -10.647   3.434  1.00  0.00     0.020 A 
HETATM   18  C   UNL     1      41.423 -11.214   2.268  1.00  0.00     0.011 A 
ENDBRANCH   7  13
BRANCH  11  19
HETATM   19  N   UNL     1      40.286 -10.115  -3.508  1.00  0.00    -0.282 NA
HETATM   20  H   UNL     1      41.129 -10.011  -4.067  1.00  0.00     0.126 HD
HETATM   21  H   UNL     1      39.869  -9.225  -3.245  1.00  0.00     0.126 HD
ENDBRANCH  11  19
BRANCH   1  22
HETATM   22  C   UNL     1      40.782 -14.852   1.317  1.00  0.00    -0.007 A 
HETATM   23  C   UNL     1      42.162 -14.882   1.541  1.00  0.00     0.016 A 
HETATM   24  C   UNL     1      42.679 -15.457   2.705  1.00  0.00     0.037 A 
HETATM   25  C   UNL     1      41.832 -16.019   3.661  1.00  0.00     0.069 A 
HETATM   26  C   UNL     1      40.457 -16.009   3.438  1.00  0.00     0.037 A 
HETATM   27  C   UNL     1      39.936 -15.424   2.276  1.00  0.00     0.016 A 
BRANCH  25  28
HETATM   28  O   UNL     1      42.470 -16.532   4.755  1.00  0.00    -0.347 OA
BRANCH  28  29
HETATM   29  C   UNL     1      43.826 -16.954   4.586  1.00  0.00     0.214 C 
BRANCH  29  30
HETATM   30  C   UNL     1      43.864 -18.431   4.275  1.00  0.00    -0.034 A 
HETATM   31  C   UNL     1      43.985 -19.367   5.314  1.00  0.00     0.009 A 
HETATM   32  C   UNL     1      44.000 -20.736   5.041  1.00  0.00     0.001 A 
HETATM   33  C   UNL     1      43.886 -21.186   3.728  1.00  0.00     0.000 A 
HETATM   34  C   UNL     1      43.749 -20.270   2.688  1.00  0.00     0.001 A 
HETATM   35  C   UNL     1      43.732 -18.901   2.960  1.00  0.00     0.009 A 
ENDBRANCH  29  30
ENDBRANCH  28  29
ENDBRANCH  25  28
ENDBRANCH   1  22
TORSDOF 6
ENDMDL
MODEL 2
REMARK VINA RESULT:      -8.9      1.276      1.749
REMARK  6 active torsions:
REMARK  status: ('A' for Active; 'I' for Inactive)
REMARK    1  A    between atoms: C_4  and  C_5 
REMARK    2  A    between atoms: C_5  and  O_6 
REMARK    3  A    between atoms: O_6  and  C_7 
REMARK    4  A    between atoms: C_10  and  C_11 
REMARK    5  A    between atoms: C_17  and  C_18 
REMARK    6  A    between atoms: C_27  and  N_28 
ROOT
HETATM    1  C   UNL     1      39.552 -12.883   0.012  1.00  0.00     0.072 A 
HETATM    2  N   UNL     1      38.337 -13.109  -0.604  1.00  0.00    -0.274 N 
HETATM    3  H   UNL     1      37.728 -13.913  -0.490  1.00  0.00     0.189 HD
HETATM    4  N   UNL     1      37.965 -12.146  -1.471  1.00  0.00    -0.148 NA
HETATM    5  C   UNL     1      38.978 -11.296  -1.400  1.00  0.00     0.199 A 
HETATM    6  C   UNL     1      39.977 -11.662  -0.493  1.00  0.00     0.040 A 
HETATM    7  C   UNL     1      41.164 -10.788  -0.291  1.00  0.00     0.107 A 
HETATM    8  C   UNL     1      41.162  -9.625  -1.275  1.00  0.00     0.081 A 
HETATM    9  C   UNL     1      42.333  -8.809  -1.299  1.00  0.00     0.100 C 
HETATM   10  N   UNL     1      43.289  -8.153  -1.307  1.00  0.00    -0.191 NA
HETATM   11  C   UNL     1      40.134  -9.383  -2.129  1.00  0.00     0.140 A 
HETATM   12  O   UNL     1      38.991 -10.192  -2.169  1.00  0.00    -0.277 OA
ENDROOT
BRANCH   7  13
HETATM   13  C   UNL     1      41.125 -10.333   1.156  1.00  0.00    -0.027 A 
HETATM   14  C   UNL     1      40.236  -9.361   1.620  1.00  0.00     0.124 A 
HETATM   15  N   UNL     1      40.208  -8.893   2.888  1.00  0.00    -0.273 NA
HETATM   16  C   UNL     1      41.110  -9.411   3.747  1.00  0.00     0.116 A 
HETATM   17  C   UNL     1      42.036 -10.377   3.398  1.00  0.00     0.020 A 
HETATM   18  C   UNL     1      42.044 -10.840   2.085  1.00  0.00     0.011 A 
ENDBRANCH   7  13
BRANCH  11  19
HETATM   19  N   UNL     1      40.082  -8.348  -3.038  1.00  0.00    -0.282 NA
HETATM   20  H   UNL     1      40.961  -7.868  -3.216  1.00  0.00     0.126 HD
HETATM   21  H   UNL     1      39.310  -7.711  -2.850  1.00  0.00     0.126 HD
ENDBRANCH  11  19
BRANCH   1  22
HETATM   22  C   UNL     1      40.143 -13.823   0.960  1.00  0.00    -0.007 A 
HETATM   23  C   UNL     1      39.839 -13.748   2.323  1.00  0.00     0.016 A 
HETATM   24  C   UNL     1      40.405 -14.652   3.226  1.00  0.00     0.037 A 
HETATM   25  C   UNL     1      41.288 -15.640   2.789  1.00  0.00     0.069 A 
HETATM   26  C   UNL     1      41.610 -15.711   1.435  1.00  0.00     0.037 A 
HETATM   27  C   UNL     1      41.035 -14.812   0.527  1.00  0.00     0.016 A 
BRANCH  25  28
HETATM   28  O   UNL     1      41.754 -16.463   3.775  1.00  0.00    -0.347 OA
BRANCH  28  29
HETATM   29  C   UNL     1      43.162 -16.709   3.813  1.00  0.00     0.214 C 
BRANCH  29  30
HETATM   30  C   UNL     1      43.425 -18.189   3.668  1.00  0.00    -0.034 A 
HETATM   31  C   UNL     1      43.208 -18.825   2.435  1.00  0.00     0.009 A 
HETATM   32  C   UNL     1      43.468 -20.188   2.282  1.00  0.00     0.001 A 
HETATM   33  C   UNL     1      43.955 -20.930   3.355  1.00  0.00     0.000 A 
HETATM   34  C   UNL     1      44.190 -20.309   4.581  1.00  0.00     0.001 A 
HETATM   35  C   UNL     1      43.932 -18.946   4.734  1.00  0.00     0.009 A 
ENDBRANCH  29  30
ENDBRANCH  28  29
ENDBRANCH  25  28
ENDBRANCH   1  22
TORSDOF 6
ENDMDL
MODEL 3
REMARK VINA RESULT:      -8.7      4.686      7.285
REMARK  6 active torsions:
REMARK  status: ('A' for Active; 'I' for Inactive)
REMARK    1  A    between atoms: C_4  and  C_5 
REMARK    2  A    between atoms: C_5  and  O_6 
REMARK    3  A    between atoms: O_6  and  C_7 
REMARK    4  A    between atoms: C_10  and  C_11 
REMARK    5  A    between atoms: C_17  and  C_18 
REMARK    6  A    between atoms: C_27  and  N_28 
ROOT
HETATM    1  C   UNL     1      44.251 -11.490   6.796  1.00  0.00     0.072 A 
HETATM    2  N   UNL     1      45.588 -11.151   6.848  1.00  0.00    -0.274 N 
HETATM    3  H   UNL     1      46.369 -11.661   6.446  1.00  0.00     0.189 HD
HETATM    4  N   UNL     1      45.852 -10.029   7.546  1.00  0.00    -0.148 NA
HETATM    5  C   UNL     1      44.646  -9.657   7.947  1.00  0.00     0.199 A 
HETATM    6  C   UNL     1      43.610 -10.484   7.505  1.00  0.00     0.040 A 
HETATM    7  C   UNL     1      42.198 -10.173   7.859  1.00  0.00     0.107 A 
HETATM    8  C   UNL     1      42.122  -8.998   8.827  1.00  0.00     0.081 A 
HETATM    9  C   UNL     1      40.837  -8.708   9.377  1.00  0.00     0.100 C 
HETATM   10  N   UNL     1      39.787  -8.482   9.814  1.00  0.00    -0.191 NA
HETATM   11  C   UNL     1      43.212  -8.279   9.201  1.00  0.00     0.140 A 
HETATM   12  O   UNL     1      44.496  -8.567   8.721  1.00  0.00    -0.277 OA
ENDROOT
BRANCH   7  13
HETATM   13  C   UNL     1      41.474  -9.905   6.553  1.00  0.00    -0.027 A 
HETATM   14  C   UNL     1      41.744  -8.793   5.751  1.00  0.00     0.124 A 
HETATM   15  N   UNL     1      41.084  -8.494   4.611  1.00  0.00    -0.273 NA
HETATM   16  C   UNL     1      40.098  -9.337   4.240  1.00  0.00     0.116 A 
HETATM   17  C   UNL     1      39.745 -10.466   4.956  1.00  0.00     0.020 A 
HETATM   18  C   UNL     1      40.440 -10.751   6.127  1.00  0.00     0.011 A 
ENDBRANCH   7  13
BRANCH  11  19
HETATM   19  N   UNL     1      43.199  -7.211  10.072  1.00  0.00    -0.282 NA
HETATM   20  H   UNL     1      44.093  -6.750  10.224  1.00  0.00     0.126 HD
HETATM   21  H   UNL     1      42.709  -7.429  10.938  1.00  0.00     0.126 HD
ENDBRANCH  11  19
BRANCH   1  22
HETATM   22  C   UNL     1      43.766 -12.686   6.115  1.00  0.00    -0.007 A 
HETATM   23  C   UNL     1      43.270 -12.613   4.809  1.00  0.00     0.016 A 
HETATM   24  C   UNL     1      42.809 -13.762   4.160  1.00  0.00     0.037 A 
HETATM   25  C   UNL     1      42.827 -15.000   4.802  1.00  0.00     0.069 A 
HETATM   26  C   UNL     1      43.303 -15.079   6.109  1.00  0.00     0.037 A 
HETATM   27  C   UNL     1      43.775 -13.930   6.758  1.00  0.00     0.016 A 
BRANCH  25  28
HETATM   28  O   UNL     1      42.362 -16.039   4.047  1.00  0.00    -0.347 OA
BRANCH  28  29
HETATM   29  C   UNL     1      43.209 -16.521   3.000  1.00  0.00     0.214 C 
BRANCH  29  30
HETATM   30  C   UNL     1      43.462 -17.997   3.188  1.00  0.00    -0.034 A 
HETATM   31  C   UNL     1      43.941 -18.479   4.416  1.00  0.00     0.009 A 
HETATM   32  C   UNL     1      44.158 -19.845   4.609  1.00  0.00     0.001 A 
HETATM   33  C   UNL     1      43.891 -20.745   3.582  1.00  0.00     0.000 A 
HETATM   34  C   UNL     1      43.400 -20.283   2.362  1.00  0.00     0.001 A 
HETATM   35  C   UNL     1      43.180 -18.919   2.169  1.00  0.00     0.009 A 
ENDBRANCH  29  30
ENDBRANCH  28  29
ENDBRANCH  25  28
ENDBRANCH   1  22
TORSDOF 6
ENDMDL
MODEL 4
REMARK VINA RESULT:      -8.6      1.894      3.131
REMARK  6 active torsions:
REMARK  status: ('A' for Active; 'I' for Inactive)
REMARK    1  A    between atoms: C_4  and  C_5 
REMARK    2  A    between atoms: C_5  and  O_6 
REMARK    3  A    between atoms: O_6  and  C_7 
REMARK    4  A    between atoms: C_10  and  C_11 
REMARK    5  A    between atoms: C_17  and  C_18 
REMARK    6  A    between atoms: C_27  and  N_28 
ROOT
HETATM    1  C   UNL     1      40.122 -14.448  -0.003  1.00  0.00     0.072 A 
HETATM    2  N   UNL     1      39.239 -15.090  -0.848  1.00  0.00    -0.274 N 
HETATM    3  H   UNL     1      38.870 -16.032  -0.755  1.00  0.00     0.189 HD
HETATM    4  N   UNL     1      38.871 -14.367  -1.924  1.00  0.00    -0.148 NA
HETATM    5  C   UNL     1      39.547 -13.241  -1.751  1.00  0.00     0.199 A 
HETATM    6  C   UNL     1      40.314 -13.202  -0.582  1.00  0.00     0.040 A 
HETATM    7  C   UNL     1      41.107 -11.989  -0.246  1.00  0.00     0.107 A 
HETATM    8  C   UNL     1      41.057 -10.970  -1.377  1.00  0.00     0.081 A 
HETATM    9  C   UNL     1      41.914  -9.835  -1.251  1.00  0.00     0.100 C 
HETATM   10  N   UNL     1      42.613  -8.918  -1.134  1.00  0.00    -0.191 NA
HETATM   11  C   UNL     1      40.283 -11.130  -2.481  1.00  0.00     0.140 A 
HETATM   12  O   UNL     1      39.467 -12.255  -2.662  1.00  0.00    -0.277 OA
ENDROOT
BRANCH   7  13
HETATM   13  C   UNL     1      40.542 -11.451   1.055  1.00  0.00    -0.027 A 
HETATM   14  C   UNL     1      39.242 -10.953   1.167  1.00  0.00     0.124 A 
HETATM   15  N   UNL     1      38.722 -10.417   2.294  1.00  0.00    -0.273 NA
HETATM   16  C   UNL     1      39.532 -10.366   3.373  1.00  0.00     0.116 A 
HETATM   17  C   UNL     1      40.835 -10.829   3.376  1.00  0.00     0.020 A 
HETATM   18  C   UNL     1      41.346 -11.375   2.201  1.00  0.00     0.011 A 
ENDBRANCH   7  13
BRANCH  11  19
HETATM   19  N   UNL     1      40.201 -10.242  -3.532  1.00  0.00    -0.282 NA
HETATM   20  H   UNL     1      40.868 -10.382  -4.286  1.00  0.00     0.126 HD
HETATM   21  H   UNL     1      40.154  -9.275  -3.213  1.00  0.00     0.126 HD
ENDBRANCH  11  19
BRANCH   1  22
HETATM   22  C   UNL     1      40.661 -15.076   1.199  1.00  0.00    -0.007 A 
HETATM   23  C   UNL     1      42.040 -15.251   1.356  1.00  0.00     0.016 A 
HETATM   24  C   UNL     1      42.551 -15.851   2.510  1.00  0.00     0.037 A 
HETATM   25  C   UNL     1      41.699 -16.294   3.522  1.00  0.00     0.069 A 
HETATM   26  C   UNL     1      40.324 -16.140   3.366  1.00  0.00     0.037 A 
HETATM   27  C   UNL     1      39.810 -15.529   2.215  1.00  0.00     0.016 A 
BRANCH  25  28
HETATM   28  O   UNL     1      42.334 -16.848   4.598  1.00  0.00    -0.347 OA
BRANCH  28  29
HETATM   29  C   UNL     1      41.943 -16.392   5.896  1.00  0.00     0.214 C 
BRANCH  29  30
HETATM   30  C   UNL     1      42.402 -14.968   6.096  1.00  0.00    -0.034 A 
HETATM   31  C   UNL     1      41.481 -13.912   6.010  1.00  0.00     0.009 A 
HETATM   32  C   UNL     1      41.890 -12.593   6.214  1.00  0.00     0.001 A 
HETATM   33  C   UNL     1      43.220 -12.313   6.515  1.00  0.00     0.000 A 
HETATM   34  C   UNL     1      44.143 -13.352   6.619  1.00  0.00     0.001 A 
HETATM   35  C   UNL     1      43.735 -14.672   6.417  1.00  0.00     0.009 A 
ENDBRANCH  29  30
ENDBRANCH  28  29
ENDBRANCH  25  28
ENDBRANCH   1  22
TORSDOF 6
ENDMDL
MODEL 5
REMARK VINA RESULT:      -8.4      5.761      8.584
REMARK  6 active torsions:
REMARK  status: ('A' for Active; 'I' for Inactive)
REMARK    1  A    between atoms: C_4  and  C_5 
REMARK    2  A    between atoms: C_5  and  O_6 
REMARK    3  A    between atoms: O_6  and  C_7 
REMARK    4  A    between atoms: C_10  and  C_11 
REMARK    5  A    between atoms: C_17  and  C_18 
REMARK    6  A    between atoms: C_27  and  N_28 
ROOT
HETATM    1  C   UNL     1      44.318 -10.826   8.109  1.00  0.00     0.072 A 
HETATM    2  N   UNL     1      45.624 -10.735   8.548  1.00  0.00    -0.274 N 
HETATM    3  H   UNL     1      46.437 -11.210   8.168  1.00  0.00     0.189 HD
HETATM    4  N   UNL     1      45.796  -9.942   9.624  1.00  0.00    -0.148 NA
HETATM    5  C   UNL     1      44.562  -9.528   9.869  1.00  0.00     0.199 A 
HETATM    6  C   UNL     1      43.604 -10.003   8.967  1.00  0.00     0.040 A 
HETATM    7  C   UNL     1      42.179  -9.599   9.105  1.00  0.00     0.107 A 
HETATM    8  C   UNL     1      41.960  -8.787  10.377  1.00  0.00     0.081 A 
HETATM    9  C   UNL     1      40.606  -8.484  10.713  1.00  0.00     0.100 C 
HETATM   10  N   UNL     1      39.502  -8.243  10.973  1.00  0.00    -0.191 NA
HETATM   11  C   UNL     1      42.976  -8.401  11.190  1.00  0.00     0.140 A 
HETATM   12  O   UNL     1      44.313  -8.724  10.917  1.00  0.00    -0.277 OA
ENDROOT
BRANCH   7  13
HETATM   13  C   UNL     1      41.824  -8.828   7.848  1.00  0.00    -0.027 A 
HETATM   14  C   UNL     1      42.403  -7.598   7.526  1.00  0.00     0.124 A 
HETATM   15  N   UNL     1      42.073  -6.858   6.443  1.00  0.00    -0.273 NA
HETATM   16  C   UNL     1      41.117  -7.357   5.634  1.00  0.00     0.116 A 
HETATM   17  C   UNL     1      40.476  -8.563   5.855  1.00  0.00     0.020 A 
HETATM   18  C   UNL     1      40.834  -9.304   6.978  1.00  0.00     0.011 A 
ENDBRANCH   7  13
BRANCH  11  19
HETATM   19  N   UNL     1      42.834  -7.669  12.349  1.00  0.00    -0.282 NA
HETATM   20  H   UNL     1      41.900  -7.312  12.537  1.00  0.00     0.126 HD
HETATM   21  H   UNL     1      43.560  -6.961  12.446  1.00  0.00     0.126 HD
ENDBRANCH  11  19
BRANCH   1  22
HETATM   22  C   UNL     1      43.923 -11.659   6.977  1.00  0.00    -0.007 A 
HETATM   23  C   UNL     1      43.699 -13.029   7.143  1.00  0.00     0.016 A 
HETATM   24  C   UNL     1      43.319 -13.822   6.057  1.00  0.00     0.037 A 
HETATM   25  C   UNL     1      43.163 -13.266   4.787  1.00  0.00     0.069 A 
HETATM   26  C   UNL     1      43.401 -11.905   4.609  1.00  0.00     0.037 A 
HETATM   27  C   UNL     1      43.773 -11.106   5.698  1.00  0.00     0.016 A 
BRANCH  25  28
HETATM   28  O   UNL     1      42.774 -14.152   3.821  1.00  0.00    -0.347 OA
BRANCH  28  29
HETATM   29  C   UNL     1      42.014 -15.288   4.241  1.00  0.00     0.214 C 
BRANCH  29  30
HETATM   30  C   UNL     1      42.713 -16.555   3.809  1.00  0.00    -0.034 A 
HETATM   31  C   UNL     1      43.667 -17.153   4.647  1.00  0.00     0.009 A 
HETATM   32  C   UNL     1      44.304 -18.337   4.268  1.00  0.00     0.001 A 
HETATM   33  C   UNL     1      43.988 -18.941   3.054  1.00  0.00     0.000 A 
HETATM   34  C   UNL     1      43.031 -18.368   2.220  1.00  0.00     0.001 A 
HETATM   35  C   UNL     1      42.392 -17.185   2.598  1.00  0.00     0.009 A 
ENDBRANCH  29  30
ENDBRANCH  28  29
ENDBRANCH  25  28
ENDBRANCH   1  22
TORSDOF 6
ENDMDL
MODEL 6
REMARK VINA RESULT:      -8.3      4.494      6.261
REMARK  6 active torsions:
REMARK  status: ('A' for Active; 'I' for Inactive)
REMARK    1  A    between atoms: C_4  and  C_5 
REMARK    2  A    between atoms: C_5  and  O_6 
REMARK    3  A    between atoms: O_6  and  C_7 
REMARK    4  A    between atoms: C_10  and  C_11 
REMARK    5  A    between atoms: C_17  and  C_18 
REMARK    6  A    between atoms: C_27  and  N_28 
ROOT
HETATM    1  C   UNL     1      40.119 -11.953   5.929  1.00  0.00     0.072 A 
HETATM    2  N   UNL     1      38.865 -12.309   6.385  1.00  0.00    -0.274 N 
HETATM    3  H   UNL     1      38.422 -13.220   6.322  1.00  0.00     0.189 HD
HETATM    4  N   UNL     1      38.168 -11.300   6.944  1.00  0.00    -0.148 NA
HETATM    5  C   UNL     1      39.007 -10.281   6.828  1.00  0.00     0.199 A 
HETATM    6  C   UNL     1      40.235 -10.607   6.244  1.00  0.00     0.040 A 
HETATM    7  C   UNL     1      41.284  -9.566   6.074  1.00  0.00     0.107 A 
HETATM    8  C   UNL     1      40.761  -8.190   6.468  1.00  0.00     0.081 A 
HETATM    9  C   UNL     1      41.615  -7.081   6.192  1.00  0.00     0.100 C 
HETATM   10  N   UNL     1      42.320  -6.189   5.963  1.00  0.00    -0.191 NA
HETATM   11  C   UNL     1      39.532  -7.996   7.013  1.00  0.00     0.140 A 
HETATM   12  O   UNL     1      38.648  -9.056   7.253  1.00  0.00    -0.277 OA
ENDROOT
BRANCH   7  13
HETATM   13  C   UNL     1      42.469 -10.007   6.912  1.00  0.00    -0.027 A 
HETATM   14  C   UNL     1      42.568  -9.744   8.281  1.00  0.00     0.124 A 
HETATM   15  N   UNL     1      43.631 -10.073   9.048  1.00  0.00    -0.273 NA
HETATM   16  C   UNL     1      44.657 -10.695   8.432  1.00  0.00     0.116 A 
HETATM   17  C   UNL     1      44.668 -11.005   7.083  1.00  0.00     0.020 A 
HETATM   18  C   UNL     1      43.561 -10.653   6.316  1.00  0.00     0.011 A 
ENDBRANCH   7  13
BRANCH  11  19
HETATM   19  N   UNL     1      39.011  -6.776   7.387  1.00  0.00    -0.282 NA
HETATM   20  H   UNL     1      38.000  -6.687   7.324  1.00  0.00     0.126 HD
HETATM   21  H   UNL     1      39.509  -5.999   6.955  1.00  0.00     0.126 HD
ENDBRANCH  11  19
BRANCH   1  22
HETATM   22  C   UNL     1      41.014 -12.896   5.266  1.00  0.00    -0.007 A 
HETATM   23  C   UNL     1      41.147 -12.896   3.874  1.00  0.00     0.016 A 
HETATM   24  C   UNL     1      42.008 -13.800   3.245  1.00  0.00     0.037 A 
HETATM   25  C   UNL     1      42.742 -14.724   3.989  1.00  0.00     0.069 A 
HETATM   26  C   UNL     1      42.602 -14.742   5.375  1.00  0.00     0.037 A 
HETATM   27  C   UNL     1      41.748 -13.830   6.008  1.00  0.00     0.016 A 
BRANCH  25  28
HETATM   28  O   UNL     1      43.553 -15.536   3.247  1.00  0.00    -0.347 OA
BRANCH  28  29
HETATM   29  C   UNL     1      42.922 -16.529   2.435  1.00  0.00     0.214 C 
BRANCH  29  30
HETATM   30  C   UNL     1      43.286 -17.906   2.938  1.00  0.00    -0.034 A 
HETATM   31  C   UNL     1      43.099 -19.028   2.115  1.00  0.00     0.009 A 
HETATM   32  C   UNL     1      43.453 -20.303   2.561  1.00  0.00     0.001 A 
HETATM   33  C   UNL     1      44.004 -20.471   3.828  1.00  0.00     0.000 A 
HETATM   34  C   UNL     1      44.210 -19.364   4.650  1.00  0.00     0.001 A 
HETATM   35  C   UNL     1      43.859 -18.089   4.205  1.00  0.00     0.009 A 
ENDBRANCH  29  30
ENDBRANCH  28  29
ENDBRANCH  25  28
ENDBRANCH   1  22
TORSDOF 6
ENDMDL
MODEL 7
REMARK VINA RESULT:      -8.3      3.425      5.363
REMARK  6 active torsions:
REMARK  status: ('A' for Active; 'I' for Inactive)
REMARK    1  A    between atoms: C_4  and  C_5 
REMARK    2  A    between atoms: C_5  and  O_6 
REMARK    3  A    between atoms: O_6  and  C_7 
REMARK    4  A    between atoms: C_10  and  C_11 
REMARK    5  A    between atoms: C_17  and  C_18 
REMARK    6  A    between atoms: C_27  and  N_28 
ROOT
HETATM    1  C   UNL     1      40.701 -14.537   2.182  1.00  0.00     0.072 A 
HETATM    2  N   UNL     1      40.196 -15.810   2.007  1.00  0.00    -0.274 N 
HETATM    3  H   UNL     1      40.169 -16.562   2.690  1.00  0.00     0.189 HD
HETATM    4  N   UNL     1      39.722 -16.057   0.770  1.00  0.00    -0.148 NA
HETATM    5  C   UNL     1      39.942 -14.907   0.151  1.00  0.00     0.199 A 
HETATM    6  C   UNL     1      40.512 -13.916   0.956  1.00  0.00     0.040 A 
HETATM    7  C   UNL     1      40.791 -12.565   0.399  1.00  0.00     0.107 A 
HETATM    8  C   UNL     1      40.517 -12.522  -1.099  1.00  0.00     0.081 A 
HETATM    9  C   UNL     1      40.906 -11.332  -1.784  1.00  0.00     0.100 C 
HETATM   10  N   UNL     1      41.225 -10.359  -2.328  1.00  0.00    -0.191 NA
HETATM   11  C   UNL     1      39.975 -13.565  -1.780  1.00  0.00     0.140 A 
HETATM   12  O   UNL     1      39.627 -14.767  -1.150  1.00  0.00    -0.277 OA
ENDROOT
BRANCH   7  13
HETATM   13  C   UNL     1      39.932 -11.589   1.181  1.00  0.00    -0.027 A 
HETATM   14  C   UNL     1      38.546 -11.510   1.029  1.00  0.00     0.124 A 
HETATM   15  N   UNL     1      37.756 -10.618   1.668  1.00  0.00    -0.273 NA
HETATM   16  C   UNL     1      38.367  -9.754   2.504  1.00  0.00     0.116 A 
HETATM   17  C   UNL     1      39.731  -9.741   2.731  1.00  0.00     0.020 A 
HETATM   18  C   UNL     1      40.522 -10.669   2.059  1.00  0.00     0.011 A 
ENDBRANCH   7  13
BRANCH  11  19
HETATM   19  N   UNL     1      39.707 -13.579  -3.132  1.00  0.00    -0.282 NA
HETATM   20  H   UNL     1      38.797 -13.221  -3.409  1.00  0.00     0.126 HD
HETATM   21  H   UNL     1      39.930 -14.478  -3.557  1.00  0.00     0.126 HD
ENDBRANCH  11  19
BRANCH   1  22
HETATM   22  C   UNL     1      41.287 -14.087   3.441  1.00  0.00    -0.007 A 
HETATM   23  C   UNL     1      42.645 -13.763   3.521  1.00  0.00     0.016 A 
HETATM   24  C   UNL     1      43.200 -13.331   4.729  1.00  0.00     0.037 A 
HETATM   25  C   UNL     1      42.416 -13.221   5.877  1.00  0.00     0.069 A 
HETATM   26  C   UNL     1      41.066 -13.558   5.811  1.00  0.00     0.037 A 
HETATM   27  C   UNL     1      40.504 -13.982   4.599  1.00  0.00     0.016 A 
BRANCH  25  28
HETATM   28  O   UNL     1      43.084 -12.773   6.982  1.00  0.00    -0.347 OA
BRANCH  28  29
HETATM   29  C   UNL     1      44.474 -12.476   6.833  1.00  0.00     0.214 C 
BRANCH  29  30
HETATM   30  C   UNL     1      44.778 -11.133   7.454  1.00  0.00    -0.034 A 
HETATM   31  C   UNL     1      46.087 -10.628   7.434  1.00  0.00     0.009 A 
HETATM   32  C   UNL     1      46.376  -9.379   7.986  1.00  0.00     0.001 A 
HETATM   33  C   UNL     1      45.360  -8.616   8.556  1.00  0.00     0.000 A 
HETATM   34  C   UNL     1      44.053  -9.098   8.568  1.00  0.00     0.001 A 
HETATM   35  C   UNL     1      43.762 -10.346   8.015  1.00  0.00     0.009 A 
ENDBRANCH  29  30
ENDBRANCH  28  29
ENDBRANCH  25  28
ENDBRANCH   1  22
TORSDOF 6
ENDMDL
MODEL 8
REMARK VINA RESULT:      -8.2      1.605      2.394
REMARK  6 active torsions:
REMARK  status: ('A' for Active; 'I' for Inactive)
REMARK    1  A    between atoms: C_4  and  C_5 
REMARK    2  A    between atoms: C_5  and  O_6 
REMARK    3  A    between atoms: O_6  and  C_7 
REMARK    4  A    between atoms: C_10  and  C_11 
REMARK    5  A    between atoms: C_17  and  C_18 
REMARK    6  A    between atoms: C_27  and  N_28 
ROOT
HETATM    1  C   UNL     1      40.745 -13.131  -1.150  1.00  0.00     0.072 A 
HETATM    2  N   UNL     1      40.792 -13.814  -2.349  1.00  0.00    -0.274 N 
HETATM    3  H   UNL     1      40.821 -14.820  -2.486  1.00  0.00     0.189 HD
HETATM    4  N   UNL     1      40.834 -13.022  -3.439  1.00  0.00    -0.148 NA
HETATM    5  C   UNL     1      40.819 -11.810  -2.907  1.00  0.00     0.199 A 
HETATM    6  C   UNL     1      40.735 -11.792  -1.512  1.00  0.00     0.040 A 
HETATM    7  C   UNL     1      40.684 -10.498  -0.779  1.00  0.00     0.107 A 
HETATM    8  C   UNL     1      40.882  -9.322  -1.729  1.00  0.00     0.081 A 
HETATM    9  C   UNL     1      41.024  -8.035  -1.128  1.00  0.00     0.100 C 
HETATM   10  N   UNL     1      41.135  -6.996  -0.627  1.00  0.00    -0.191 NA
HETATM   11  C   UNL     1      40.970  -9.469  -3.076  1.00  0.00     0.140 A 
HETATM   12  O   UNL     1      40.886 -10.723  -3.697  1.00  0.00    -0.277 OA
ENDROOT
BRANCH   7  13
HETATM   13  C   UNL     1      39.346 -10.457  -0.066  1.00  0.00    -0.027 A 
HETATM   14  C   UNL     1      39.230 -10.445   1.326  1.00  0.00     0.124 A 
HETATM   15  N   UNL     1      38.056 -10.463   1.996  1.00  0.00    -0.273 NA
HETATM   16  C   UNL     1      36.932 -10.497   1.252  1.00  0.00     0.116 A 
HETATM   17  C   UNL     1      36.927 -10.513  -0.132  1.00  0.00     0.020 A 
HETATM   18  C   UNL     1      38.150 -10.496  -0.796  1.00  0.00     0.011 A 
ENDBRANCH   7  13
BRANCH  11  19
HETATM   19  N   UNL     1      41.150  -8.442  -3.978  1.00  0.00    -0.282 NA
HETATM   20  H   UNL     1      40.553  -8.464  -4.801  1.00  0.00     0.126 HD
HETATM   21  H   UNL     1      42.133  -8.296  -4.201  1.00  0.00     0.126 HD
ENDBRANCH  11  19
BRANCH   1  22
HETATM   22  C   UNL     1      40.726 -13.809   0.143  1.00  0.00    -0.007 A 
HETATM   23  C   UNL     1      39.941 -14.950   0.339  1.00  0.00     0.016 A 
HETATM   24  C   UNL     1      39.928 -15.597   1.578  1.00  0.00     0.037 A 
HETATM   25  C   UNL     1      40.689 -15.114   2.643  1.00  0.00     0.069 A 
HETATM   26  C   UNL     1      41.459 -13.968   2.462  1.00  0.00     0.037 A 
HETATM   27  C   UNL     1      41.482 -13.324   1.218  1.00  0.00     0.016 A 
BRANCH  25  28
HETATM   28  O   UNL     1      40.593 -15.851   3.790  1.00  0.00    -0.347 OA
BRANCH  28  29
HETATM   29  C   UNL     1      41.773 -15.980   4.588  1.00  0.00     0.214 C 
BRANCH  29  30
HETATM   30  C   UNL     1      42.644 -17.082   4.035  1.00  0.00    -0.034 A 
HETATM   31  C   UNL     1      43.686 -17.612   4.811  1.00  0.00     0.009 A 
HETATM   32  C   UNL     1      44.484 -18.647   4.319  1.00  0.00     0.001 A 
HETATM   33  C   UNL     1      44.246 -19.169   3.051  1.00  0.00     0.000 A 
HETATM   34  C   UNL     1      43.205 -18.663   2.275  1.00  0.00     0.001 A 
HETATM   35  C   UNL     1      42.405 -17.630   2.766  1.00  0.00     0.009 A 
ENDBRANCH  29  30
ENDBRANCH  28  29
ENDBRANCH  25  28
ENDBRANCH   1  22
TORSDOF 6
ENDMDL
MODEL 9
REMARK VINA RESULT:      -8.2      1.609      2.748
REMARK  6 active torsions:
REMARK  status: ('A' for Active; 'I' for Inactive)
REMARK    1  A    between atoms: C_4  and  C_5 
REMARK    2  A    between atoms: C_5  and  O_6 
REMARK    3  A    between atoms: O_6  and  C_7 
REMARK    4  A    between atoms: C_10  and  C_11 
REMARK    5  A    between atoms: C_17  and  C_18 
REMARK    6  A    between atoms: C_27  and  N_28 
ROOT
HETATM    1  C   UNL     1      39.942 -13.934  -0.341  1.00  0.00     0.072 A 
HETATM    2  N   UNL     1      38.855 -14.347  -1.087  1.00  0.00    -0.274 N 
HETATM    3  H   UNL     1      38.398 -15.253  -1.061  1.00  0.00     0.189 HD
HETATM    4  N   UNL     1      38.396 -13.427  -1.958  1.00  0.00    -0.148 NA
HETATM    5  C   UNL     1      39.223 -12.412  -1.757  1.00  0.00     0.199 A 
HETATM    6  C   UNL     1      40.179 -12.634  -0.761  1.00  0.00     0.040 A 
HETATM    7  C   UNL     1      41.158 -11.570  -0.410  1.00  0.00     0.107 A 
HETATM    8  C   UNL     1      41.036 -10.379  -1.354  1.00  0.00     0.081 A 
HETATM    9  C   UNL     1      42.031  -9.364  -1.231  1.00  0.00     0.100 C 
HETATM   10  N   UNL     1      42.845  -8.546  -1.119  1.00  0.00    -0.191 NA
HETATM   11  C   UNL     1      40.068 -10.286  -2.303  1.00  0.00     0.140 A 
HETATM   12  O   UNL     1      39.105 -11.287  -2.486  1.00  0.00    -0.277 OA
ENDROOT
BRANCH   7  13
HETATM   13  C   UNL     1      40.895 -11.201   1.037  1.00  0.00    -0.027 A 
HETATM   14  C   UNL     1      41.883 -11.254   2.024  1.00  0.00     0.124 A 
HETATM   15  N   UNL     1      41.673 -10.984   3.332  1.00  0.00    -0.273 NA
HETATM   16  C   UNL     1      40.417 -10.645   3.689  1.00  0.00     0.116 A 
HETATM   17  C   UNL     1      39.363 -10.561   2.798  1.00  0.00     0.020 A 
HETATM   18  C   UNL     1      39.606 -10.845   1.457  1.00  0.00     0.011 A 
ENDBRANCH   7  13
BRANCH  11  19
HETATM   19  N   UNL     1      39.913  -9.235  -3.180  1.00  0.00    -0.282 NA
HETATM   20  H   UNL     1      40.770  -8.775  -3.479  1.00  0.00     0.126 HD
HETATM   21  H   UNL     1      39.195  -8.582  -2.873  1.00  0.00     0.126 HD
ENDBRANCH  11  19
BRANCH   1  22
HETATM   22  C   UNL     1      40.602 -14.797   0.635  1.00  0.00    -0.007 A 
HETATM   23  C   UNL     1      39.855 -15.638   1.465  1.00  0.00     0.016 A 
HETATM   24  C   UNL     1      40.491 -16.464   2.395  1.00  0.00     0.037 A 
HETATM   25  C   UNL     1      41.881 -16.459   2.521  1.00  0.00     0.069 A 
HETATM   26  C   UNL     1      42.632 -15.612   1.710  1.00  0.00     0.037 A 
HETATM   27  C   UNL     1      41.996 -14.791   0.769  1.00  0.00     0.016 A 
BRANCH  25  28
HETATM   28  O   UNL     1      42.370 -17.325   3.458  1.00  0.00    -0.347 OA
BRANCH  28  29
HETATM   29  C   UNL     1      43.658 -17.037   4.009  1.00  0.00     0.214 C 
BRANCH  29  30
HETATM   30  C   UNL     1      43.499 -16.379   5.359  1.00  0.00    -0.034 A 
HETATM   31  C   UNL     1      43.216 -15.007   5.445  1.00  0.00     0.009 A 
HETATM   32  C   UNL     1      43.045 -14.393   6.687  1.00  0.00     0.001 A 
HETATM   33  C   UNL     1      43.147 -15.143   7.856  1.00  0.00     0.000 A 
HETATM   34  C   UNL     1      43.411 -16.509   7.785  1.00  0.00     0.001 A 
HETATM   35  C   UNL     1      43.580 -17.125   6.544  1.00  0.00     0.009 A 
ENDBRANCH  29  30
ENDBRANCH  28  29
ENDBRANCH  25  28
ENDBRANCH   1  22
TORSDOF 6
ENDMDL
MODEL 10
REMARK VINA RESULT:      -8.2      5.609      8.499
REMARK  6 active torsions:
REMARK  status: ('A' for Active; 'I' for Inactive)
REMARK    1  A    between atoms: C_4  and  C_5 
REMARK    2  A    between atoms: C_5  and  O_6 
REMARK    3  A    between atoms: O_6  and  C_7 
REMARK    4  A    between atoms: C_10  and  C_11 
REMARK    5  A    between atoms: C_17  and  C_18 
REMARK    6  A    between atoms: C_27  and  N_28 
ROOT
HETATM    1  C   UNL     1      43.749  -9.814   7.752  1.00  0.00     0.072 A 
HETATM    2  N   UNL     1      44.958  -9.153   7.664  1.00  0.00    -0.274 N 
HETATM    3  H   UNL     1      45.764  -9.414   7.104  1.00  0.00     0.189 HD
HETATM    4  N   UNL     1      45.053  -8.059   8.445  1.00  0.00    -0.148 NA
HETATM    5  C   UNL     1      43.873  -8.038   9.045  1.00  0.00     0.199 A 
HETATM    6  C   UNL     1      43.007  -9.063   8.652  1.00  0.00     0.040 A 
HETATM    7  C   UNL     1      41.636  -9.149   9.225  1.00  0.00     0.107 A 
HETATM    8  C   UNL     1      41.436  -8.112  10.325  1.00  0.00     0.081 A 
HETATM    9  C   UNL     1      40.223  -8.202  11.071  1.00  0.00     0.100 C 
HETATM   10  N   UNL     1      39.232  -8.285  11.668  1.00  0.00    -0.191 NA
HETATM   11  C   UNL     1      42.367  -7.172  10.631  1.00  0.00     0.140 A 
HETATM   12  O   UNL     1      43.591  -7.086   9.953  1.00  0.00    -0.277 OA
ENDROOT
BRANCH   7  13
HETATM   13  C   UNL     1      40.672  -8.971   8.068  1.00  0.00    -0.027 A 
HETATM   14  C   UNL     1      39.648  -9.880   7.789  1.00  0.00     0.124 A 
HETATM   15  N   UNL     1      38.805  -9.782   6.737  1.00  0.00    -0.273 NA
HETATM   16  C   UNL     1      38.981  -8.730   5.912  1.00  0.00     0.116 A 
HETATM   17  C   UNL     1      39.960  -7.769   6.091  1.00  0.00     0.020 A 
HETATM   18  C   UNL     1      40.816  -7.895   7.181  1.00  0.00     0.011 A 
ENDBRANCH   7  13
BRANCH  11  19
HETATM   19  N   UNL     1      42.238  -6.215  11.614  1.00  0.00    -0.282 NA
HETATM   20  H   UNL     1      41.534  -5.500  11.448  1.00  0.00     0.126 HD
HETATM   21  H   UNL     1      43.138  -5.832  11.896  1.00  0.00     0.126 HD
ENDBRANCH  11  19
BRANCH   1  22
HETATM   22  C   UNL     1      43.462 -11.036   7.008  1.00  0.00    -0.007 A 
HETATM   23  C   UNL     1      42.621 -11.011   5.891  1.00  0.00     0.016 A 
HETATM   24  C   UNL     1      42.352 -12.184   5.180  1.00  0.00     0.037 A 
HETATM   25  C   UNL     1      42.909 -13.401   5.573  1.00  0.00     0.069 A 
HETATM   26  C   UNL     1      43.734 -13.438   6.694  1.00  0.00     0.037 A 
HETATM   27  C   UNL     1      44.014 -12.262   7.403  1.00  0.00     0.016 A 
BRANCH  25  28
HETATM   28  O   UNL     1      42.574 -14.463   4.781  1.00  0.00    -0.347 OA
BRANCH  28  29
HETATM   29  C   UNL     1      42.398 -15.730   5.420  1.00  0.00     0.214 C 
BRANCH  29  30
HETATM   30  C   UNL     1      42.955 -16.825   4.543  1.00  0.00    -0.034 A 
HETATM   31  C   UNL     1      42.516 -16.957   3.217  1.00  0.00     0.009 A 
HETATM   32  C   UNL     1      43.041 -17.952   2.390  1.00  0.00     0.001 A 
HETATM   33  C   UNL     1      44.015 -18.821   2.875  1.00  0.00     0.000 A 
HETATM   34  C   UNL     1      44.471 -18.692   4.185  1.00  0.00     0.001 A 
HETATM   35  C   UNL     1      43.950 -17.696   5.012  1.00  0.00     0.009 A 
ENDBRANCH  29  30
ENDBRANCH  28  29
ENDBRANCH  25  28
ENDBRANCH   1  22
TORSDOF 6
ENDMDL
