MODEL 1
REMARK VINA RESULT:      -8.8      0.000      0.000
REMARK  8 active torsions:
REMARK  status: ('A' for Active; 'I' for Inactive)
REMARK    1  A    between atoms: C_2  and  C_3 
REMARK    2  A    between atoms: C_3  and  N_4 
REMARK       I    between atoms: N_4  and  C_5 
REMARK    3  A    between atoms: C_5  and  C_6 
REMARK    4  A    between atoms: C_7  and  N_8 
REMARK    5  A    between atoms: N_11  and  C_12 
REMARK    6  A    between atoms: C_13  and  O_14 
REMARK    7  A    between atoms: C_24  and  N_25 
REMARK       I    between atoms: N_25  and  C_26 
REMARK       I    between atoms: C_26  and  N_27 
REMARK    8  A    between atoms: N_27  and  C_28 
ROOT
HETATM    1  C   UNL     1      41.880 -12.592   5.053  1.00  0.00     0.060 A 
HETATM    2  C   UNL     1      41.542 -11.577   4.132  1.00  0.00     0.046 A 
HETATM    3  C   UNL     1      41.788 -10.257   4.551  1.00  0.00     0.032 A 
HETATM    4  C   UNL     1      42.282  -9.950   5.828  1.00  0.00     0.032 A 
HETATM    5  C   UNL     1      42.537 -10.961   6.745  1.00  0.00     0.037 A 
HETATM    6  C   UNL     1      42.350 -12.283   6.347  1.00  0.00     0.049 A 
ENDROOT
BRANCH   2   7
HETATM    7  N   UNL     1      40.942 -11.834   2.905  1.00  0.00    -0.378 N 
HETATM    8  C   UNL     1      41.612 -11.381   1.668  1.00  0.00     0.138 C 
HETATM    9  C   UNL     1      41.179 -12.276   0.480  1.00  0.00     0.115 C 
HETATM   10  N   UNL     1      39.702 -12.280   0.329  1.00  0.00    -0.278 NA
HETATM   11  C   UNL     1      39.027 -12.712   1.584  1.00  0.00     0.115 C 
HETATM   12  C   UNL     1      39.469 -11.837   2.782  1.00  0.00     0.138 C 
BRANCH  10  13
HETATM   13  C   UNL     1      39.157 -12.940  -0.800  1.00  0.00     0.044 A 
HETATM   14  C   UNL     1      38.084 -12.354  -1.529  1.00  0.00     0.089 A 
HETATM   15  C   UNL     1      37.526 -13.028  -2.627  1.00  0.00     0.038 A 
HETATM   16  C   UNL     1      38.015 -14.273  -3.020  1.00  0.00     0.003 A 
HETATM   17  C   UNL     1      39.067 -14.853  -2.325  1.00  0.00     0.002 A 
HETATM   18  C   UNL     1      39.632 -14.192  -1.231  1.00  0.00     0.026 A 
BRANCH  14  19
HETATM   19  O   UNL     1      37.667 -11.111  -1.108  1.00  0.00    -0.354 OA
HETATM   20  C   UNL     1      37.187 -10.208  -2.093  1.00  0.00     0.210 C 
ENDBRANCH  14  19
ENDBRANCH  10  13
ENDBRANCH   2   7
BRANCH   1  21
HETATM   21  C   UNL     1      41.675 -14.042   4.788  1.00  0.00     0.254 C 
HETATM   22  N   UNL     1      42.842 -14.711   4.465  1.00  0.00    -0.353 N 
HETATM   23  H   UNL     1      43.665 -14.147   4.293  1.00  0.00     0.163 HD
HETATM   24  O   UNL     1      40.579 -14.567   4.915  1.00  0.00    -0.268 OA
BRANCH  22  25
HETATM   25  C   UNL     1      42.984 -16.152   4.282  1.00  0.00     0.080 C 
HETATM   26  C   UNL     1      42.976 -16.576   2.814  1.00  0.00     0.032 C 
BRANCH  25  27
HETATM   27  C   UNL     1      44.122 -16.770   5.110  1.00  0.00     0.020 C 
HETATM   28  C   UNL     1      44.345 -16.185   6.494  1.00  0.00     0.007 C 
ENDBRANCH  25  27
ENDBRANCH  22  25
ENDBRANCH   1  21
BRANCH   5  29
HETATM   29  N   UNL     1      42.895 -10.731   8.086  1.00  0.00    -0.309 N 
HETATM   30  C   UNL     1      42.474  -9.696   8.905  1.00  0.00     0.325 C 
HETATM   31  N   UNL     1      42.731 -10.016  10.227  1.00  0.00    -0.307 N 
HETATM   32  O   UNL     1      41.946  -8.664   8.515  1.00  0.00    -0.247 OA
HETATM   33  H   UNL     1      42.780 -11.006  10.430  1.00  0.00     0.170 HD
HETATM   34  H   UNL     1      43.622 -11.315   8.472  1.00  0.00     0.170 HD
BRANCH  31  35
HETATM   35  C   UNL     1      42.572  -9.184  11.358  1.00  0.00     0.053 A 
HETATM   36  C   UNL     1      41.286  -9.022  11.907  1.00  0.00     0.037 A 
HETATM   37 BR   UNL     1      39.765  -9.866  11.134  1.00  0.00    -0.049 Br
HETATM   38  C   UNL     1      41.083  -8.221  13.034  1.00  0.00     0.021 A 
HETATM   39  C   UNL     1      42.165  -7.582  13.634  1.00  0.00     0.002 A 
HETATM   40  C   UNL     1      43.444  -7.746  13.108  1.00  0.00     0.002 A 
HETATM   41  C   UNL     1      43.648  -8.542  11.976  1.00  0.00     0.031 A 
ENDBRANCH  31  35
ENDBRANCH   5  29
TORSDOF 8
ENDMDL
MODEL 2
REMARK VINA RESULT:      -8.5      3.316      5.731
REMARK  8 active torsions:
REMARK  status: ('A' for Active; 'I' for Inactive)
REMARK    1  A    between atoms: C_2  and  C_3 
REMARK    2  A    between atoms: C_3  and  N_4 
REMARK       I    between atoms: N_4  and  C_5 
REMARK    3  A    between atoms: C_5  and  C_6 
REMARK    4  A    between atoms: C_7  and  N_8 
REMARK    5  A    between atoms: N_11  and  C_12 
REMARK    6  A    between atoms: C_13  and  O_14 
REMARK    7  A    between atoms: C_24  and  N_25 
REMARK       I    between atoms: N_25  and  C_26 
REMARK       I    between atoms: C_26  and  N_27 
REMARK    8  A    between atoms: N_27  and  C_28 
ROOT
HETATM    1  C   UNL     1      41.914 -10.255   7.141  1.00  0.00     0.060 A 
HETATM    2  C   UNL     1      41.055 -10.896   6.223  1.00  0.00     0.046 A 
HETATM    3  C   UNL     1      39.796 -10.297   6.034  1.00  0.00     0.032 A 
HETATM    4  C   UNL     1      39.383  -9.165   6.754  1.00  0.00     0.032 A 
HETATM    5  C   UNL     1      40.217  -8.596   7.707  1.00  0.00     0.037 A 
HETATM    6  C   UNL     1      41.489  -9.135   7.886  1.00  0.00     0.049 A 
ENDROOT
BRANCH   2   7
HETATM    7  N   UNL     1      41.382 -12.083   5.578  1.00  0.00    -0.378 N 
HETATM    8  C   UNL     1      41.975 -12.027   4.226  1.00  0.00     0.138 C 
HETATM    9  C   UNL     1      42.826 -13.297   3.974  1.00  0.00     0.115 C 
HETATM   10  N   UNL     1      42.014 -14.526   4.162  1.00  0.00    -0.278 NA
HETATM   11  C   UNL     1      41.395 -14.569   5.516  1.00  0.00     0.115 C 
HETATM   12  C   UNL     1      40.560 -13.295   5.786  1.00  0.00     0.138 C 
BRANCH  10  13
HETATM   13  C   UNL     1      42.612 -15.767   3.831  1.00  0.00     0.044 A 
HETATM   14  C   UNL     1      42.387 -16.358   2.556  1.00  0.00     0.089 A 
HETATM   15  C   UNL     1      42.954 -17.604   2.245  1.00  0.00     0.038 A 
HETATM   16  C   UNL     1      43.745 -18.276   3.177  1.00  0.00     0.003 A 
HETATM   17  C   UNL     1      43.981 -17.710   4.421  1.00  0.00     0.002 A 
HETATM   18  C   UNL     1      43.424 -16.469   4.741  1.00  0.00     0.026 A 
BRANCH  14  19
HETATM   19  O   UNL     1      41.621 -15.631   1.672  1.00  0.00    -0.354 OA
HETATM   20  C   UNL     1      40.239 -15.942   1.585  1.00  0.00     0.210 C 
ENDBRANCH  14  19
ENDBRANCH  10  13
ENDBRANCH   2   7
BRANCH   1  21
HETATM   21  C   UNL     1      43.275 -10.755   7.479  1.00  0.00     0.254 C 
HETATM   22  N   UNL     1      44.060  -9.817   8.124  1.00  0.00    -0.353 N 
HETATM   23  H   UNL     1      43.705  -8.869   8.166  1.00  0.00     0.163 HD
HETATM   24  O   UNL     1      43.609 -11.907   7.247  1.00  0.00    -0.268 OA
BRANCH  22  25
HETATM   25  C   UNL     1      45.383 -10.047   8.694  1.00  0.00     0.080 C 
HETATM   26  C   UNL     1      46.505  -9.384   7.898  1.00  0.00     0.032 C 
BRANCH  25  27
HETATM   27  C   UNL     1      45.454  -9.802  10.210  1.00  0.00     0.020 C 
HETATM   28  C   UNL     1      44.183  -9.301  10.873  1.00  0.00     0.007 C 
ENDBRANCH  25  27
ENDBRANCH  22  25
ENDBRANCH   1  21
BRANCH   5  29
HETATM   29  N   UNL     1      39.826  -7.555   8.569  1.00  0.00    -0.309 N 
HETATM   30  C   UNL     1      39.457  -7.656   9.901  1.00  0.00     0.325 C 
HETATM   31  N   UNL     1      39.511  -6.407  10.494  1.00  0.00    -0.307 N 
HETATM   32  O   UNL     1      39.143  -8.696  10.463  1.00  0.00    -0.247 OA
HETATM   33  H   UNL     1      40.146  -5.750  10.060  1.00  0.00     0.170 HD
HETATM   34  H   UNL     1      39.691  -6.644   8.155  1.00  0.00     0.170 HD
BRANCH  31  35
HETATM   35  C   UNL     1      39.091  -6.057  11.797  1.00  0.00     0.053 A 
HETATM   36  C   UNL     1      40.056  -5.952  12.817  1.00  0.00     0.037 A 
HETATM   37 BR   UNL     1      41.895  -6.309  12.480  1.00  0.00    -0.049 Br
HETATM   38  C   UNL     1      39.690  -5.594  14.117  1.00  0.00     0.021 A 
HETATM   39  C   UNL     1      38.356  -5.324  14.412  1.00  0.00     0.002 A 
HETATM   40  C   UNL     1      37.394  -5.412  13.408  1.00  0.00     0.002 A 
HETATM   41  C   UNL     1      37.759  -5.776  12.108  1.00  0.00     0.031 A 
ENDBRANCH  31  35
ENDBRANCH   5  29
TORSDOF 8
ENDMDL
MODEL 3
REMARK VINA RESULT:      -8.4      5.363      8.401
REMARK  8 active torsions:
REMARK  status: ('A' for Active; 'I' for Inactive)
REMARK    1  A    between atoms: C_2  and  C_3 
REMARK    2  A    between atoms: C_3  and  N_4 
REMARK       I    between atoms: N_4  and  C_5 
REMARK    3  A    between atoms: C_5  and  C_6 
REMARK    4  A    between atoms: C_7  and  N_8 
REMARK    5  A    between atoms: N_11  and  C_12 
REMARK    6  A    between atoms: C_13  and  O_14 
REMARK    7  A    between atoms: C_24  and  N_25 
REMARK       I    between atoms: N_25  and  C_26 
REMARK       I    between atoms: C_26  and  N_27 
REMARK    8  A    between atoms: N_27  and  C_28 
ROOT
HETATM    1  C   UNL     1      40.655 -12.751   0.730  1.00  0.00     0.060 A 
HETATM    2  C   UNL     1      40.008 -11.857   1.609  1.00  0.00     0.046 A 
HETATM    3  C   UNL     1      40.426 -11.899   2.952  1.00  0.00     0.032 A 
HETATM    4  C   UNL     1      41.384 -12.815   3.415  1.00  0.00     0.032 A 
HETATM    5  C   UNL     1      41.953 -13.737   2.546  1.00  0.00     0.037 A 
HETATM    6  C   UNL     1      41.596 -13.691   1.201  1.00  0.00     0.049 A 
ENDROOT
BRANCH   2   7
HETATM    7  N   UNL     1      38.974 -11.017   1.212  1.00  0.00    -0.378 N 
HETATM    8  C   UNL     1      39.279  -9.614   0.865  1.00  0.00     0.138 C 
HETATM    9  C   UNL     1      38.211  -9.074  -0.119  1.00  0.00     0.115 C 
HETATM   10  N   UNL     1      36.847  -9.209   0.451  1.00  0.00    -0.278 NA
HETATM   11  C   UNL     1      36.550 -10.620   0.824  1.00  0.00     0.115 C 
HETATM   12  C   UNL     1      37.622 -11.176   1.792  1.00  0.00     0.138 C 
BRANCH  10  13
HETATM   13  C   UNL     1      35.772  -8.631  -0.269  1.00  0.00     0.044 A 
HETATM   14  C   UNL     1      35.357  -7.298   0.002  1.00  0.00     0.089 A 
HETATM   15  C   UNL     1      34.270  -6.742  -0.690  1.00  0.00     0.038 A 
HETATM   16  C   UNL     1      33.586  -7.484  -1.653  1.00  0.00     0.003 A 
HETATM   17  C   UNL     1      33.985  -8.782  -1.936  1.00  0.00     0.002 A 
HETATM   18  C   UNL     1      35.067  -9.347  -1.254  1.00  0.00     0.026 A 
BRANCH  14  19
HETATM   19  O   UNL     1      36.091  -6.609   0.943  1.00  0.00    -0.354 OA
HETATM   20  C   UNL     1      35.406  -5.668   1.754  1.00  0.00     0.210 C 
ENDBRANCH  14  19
ENDBRANCH  10  13
ENDBRANCH   2   7
BRANCH   1  21
HETATM   21  C   UNL     1      40.332 -12.857  -0.719  1.00  0.00     0.254 C 
HETATM   22  N   UNL     1      39.286 -13.722  -0.986  1.00  0.00    -0.353 N 
HETATM   23  H   UNL     1      38.955 -14.296  -0.221  1.00  0.00     0.163 HD
HETATM   24  O   UNL     1      40.915 -12.183  -1.555  1.00  0.00    -0.268 OA
BRANCH  22  25
HETATM   25  C   UNL     1      38.657 -13.935  -2.285  1.00  0.00     0.080 C 
HETATM   26  C   UNL     1      38.607 -15.406  -2.696  1.00  0.00     0.032 C 
BRANCH  25  27
HETATM   27  C   UNL     1      37.326 -13.186  -2.457  1.00  0.00     0.020 C 
HETATM   28  C   UNL     1      37.418 -11.686  -2.673  1.00  0.00     0.007 C 
ENDBRANCH  25  27
ENDBRANCH  22  25
ENDBRANCH   1  21
BRANCH   5  29
HETATM   29  N   UNL     1      42.808 -14.776   2.957  1.00  0.00    -0.309 N 
HETATM   30  C   UNL     1      42.472 -16.098   3.198  1.00  0.00     0.325 C 
HETATM   31  N   UNL     1      43.619 -16.874   3.210  1.00  0.00    -0.307 N 
HETATM   32  O   UNL     1      41.333 -16.513   3.364  1.00  0.00    -0.247 OA
HETATM   33  H   UNL     1      44.396 -16.503   2.679  1.00  0.00     0.170 HD
HETATM   34  H   UNL     1      43.750 -14.520   3.212  1.00  0.00     0.170 HD
BRANCH  31  35
HETATM   35  C   UNL     1      43.726 -18.242   3.546  1.00  0.00     0.053 A 
HETATM   36  C   UNL     1      43.900 -18.599   4.897  1.00  0.00     0.037 A 
HETATM   37 BR   UNL     1      44.034 -17.279   6.261  1.00  0.00    -0.049 Br
HETATM   38  C   UNL     1      43.995 -19.940   5.278  1.00  0.00     0.021 A 
HETATM   39  C   UNL     1      43.904 -20.942   4.315  1.00  0.00     0.002 A 
HETATM   40  C   UNL     1      43.717 -20.602   2.977  1.00  0.00     0.002 A 
HETATM   41  C   UNL     1      43.628 -19.260   2.594  1.00  0.00     0.031 A 
ENDBRANCH  31  35
ENDBRANCH   5  29
TORSDOF 8
ENDMDL
MODEL 4
REMARK VINA RESULT:      -8.1      4.006     11.163
REMARK  8 active torsions:
REMARK  status: ('A' for Active; 'I' for Inactive)
REMARK    1  A    between atoms: C_2  and  C_3 
REMARK    2  A    between atoms: C_3  and  N_4 
REMARK       I    between atoms: N_4  and  C_5 
REMARK    3  A    between atoms: C_5  and  C_6 
REMARK    4  A    between atoms: C_7  and  N_8 
REMARK    5  A    between atoms: N_11  and  C_12 
REMARK    6  A    between atoms: C_13  and  O_14 
REMARK    7  A    between atoms: C_24  and  N_25 
REMARK       I    between atoms: N_25  and  C_26 
REMARK       I    between atoms: C_26  and  N_27 
REMARK    8  A    between atoms: N_27  and  C_28 
ROOT
HETATM    1  C   UNL     1      41.648  -9.500   7.722  1.00  0.00     0.060 A 
HETATM    2  C   UNL     1      40.406  -9.258   8.347  1.00  0.00     0.046 A 
HETATM    3  C   UNL     1      39.321 -10.025   7.883  1.00  0.00     0.032 A 
HETATM    4  C   UNL     1      39.440 -10.935   6.821  1.00  0.00     0.032 A 
HETATM    5  C   UNL     1      40.656 -11.101   6.171  1.00  0.00     0.037 A 
HETATM    6  C   UNL     1      41.761 -10.393   6.636  1.00  0.00     0.049 A 
ENDROOT
BRANCH   2   7
HETATM    7  N   UNL     1      40.222  -8.284   9.321  1.00  0.00    -0.378 N 
HETATM    8  C   UNL     1      39.704  -8.681  10.647  1.00  0.00     0.138 C 
HETATM    9  C   UNL     1      40.172  -7.664  11.718  1.00  0.00     0.115 C 
HETATM   10  N   UNL     1      39.755  -6.285  11.360  1.00  0.00    -0.278 NA
HETATM   11  C   UNL     1      40.256  -5.896  10.013  1.00  0.00     0.115 C 
HETATM   12  C   UNL     1      39.810  -6.916   8.938  1.00  0.00     0.138 C 
BRANCH  10  13
HETATM   13  C   UNL     1      39.986  -5.259  12.310  1.00  0.00     0.044 A 
HETATM   14  C   UNL     1      38.901  -4.692  13.036  1.00  0.00     0.089 A 
HETATM   15  C   UNL     1      39.131  -3.653  13.952  1.00  0.00     0.038 A 
HETATM   16  C   UNL     1      40.421  -3.166  14.164  1.00  0.00     0.003 A 
HETATM   17  C   UNL     1      41.490  -3.716  13.472  1.00  0.00     0.002 A 
HETATM   18  C   UNL     1      41.274  -4.752  12.559  1.00  0.00     0.026 A 
BRANCH  14  19
HETATM   19  O   UNL     1      37.658  -5.236  12.801  1.00  0.00    -0.354 OA
HETATM   20  C   UNL     1      36.719  -4.449  12.084  1.00  0.00     0.210 C 
ENDBRANCH  14  19
ENDBRANCH  10  13
ENDBRANCH   2   7
BRANCH   1  21
HETATM   21  C   UNL     1      42.898  -8.772   8.072  1.00  0.00     0.254 C 
HETATM   22  N   UNL     1      43.810  -9.549   8.764  1.00  0.00    -0.353 N 
HETATM   23  H   UNL     1      43.491 -10.453   9.091  1.00  0.00     0.163 HD
HETATM   24  O   UNL     1      43.090  -7.621   7.711  1.00  0.00    -0.268 OA
BRANCH  22  25
HETATM   25  C   UNL     1      45.168  -9.161   9.128  1.00  0.00     0.080 C 
HETATM   26  C   UNL     1      45.583  -9.651  10.515  1.00  0.00     0.032 C 
BRANCH  25  27
HETATM   27  C   UNL     1      46.204  -9.435   8.026  1.00  0.00     0.020 C 
HETATM   28  C   UNL     1      46.029 -10.721   7.238  1.00  0.00     0.007 C 
ENDBRANCH  25  27
ENDBRANCH  22  25
ENDBRANCH   1  21
BRANCH   5  29
HETATM   29  N   UNL     1      40.825 -11.881   5.012  1.00  0.00    -0.309 N 
HETATM   30  C   UNL     1      41.683 -12.955   4.837  1.00  0.00     0.325 C 
HETATM   31  N   UNL     1      41.296 -13.680   3.723  1.00  0.00    -0.307 N 
HETATM   32  O   UNL     1      42.628 -13.223   5.565  1.00  0.00    -0.247 OA
HETATM   33  H   UNL     1      40.319 -13.601   3.474  1.00  0.00     0.170 HD
HETATM   34  H   UNL     1      40.356 -11.566   4.176  1.00  0.00     0.170 HD
BRANCH  31  35
HETATM   35  C   UNL     1      41.976 -14.768   3.129  1.00  0.00     0.053 A 
HETATM   36  C   UNL     1      41.768 -16.062   3.641  1.00  0.00     0.037 A 
HETATM   37 BR   UNL     1      40.627 -16.364   5.135  1.00  0.00    -0.049 Br
HETATM   38  C   UNL     1      42.407 -17.169   3.077  1.00  0.00     0.021 A 
HETATM   39  C   UNL     1      43.252 -16.998   1.984  1.00  0.00     0.002 A 
HETATM   40  C   UNL     1      43.455 -15.724   1.459  1.00  0.00     0.002 A 
HETATM   41  C   UNL     1      42.821 -14.614   2.027  1.00  0.00     0.031 A 
ENDBRANCH  31  35
ENDBRANCH   5  29
TORSDOF 8
ENDMDL
MODEL 5
REMARK VINA RESULT:      -8.1      1.751      2.283
REMARK  8 active torsions:
REMARK  status: ('A' for Active; 'I' for Inactive)
REMARK    1  A    between atoms: C_2  and  C_3 
REMARK    2  A    between atoms: C_3  and  N_4 
REMARK       I    between atoms: N_4  and  C_5 
REMARK    3  A    between atoms: C_5  and  C_6 
REMARK    4  A    between atoms: C_7  and  N_8 
REMARK    5  A    between atoms: N_11  and  C_12 
REMARK    6  A    between atoms: C_13  and  O_14 
REMARK    7  A    between atoms: C_24  and  N_25 
REMARK       I    between atoms: N_25  and  C_26 
REMARK       I    between atoms: C_26  and  N_27 
REMARK    8  A    between atoms: N_27  and  C_28 
ROOT
HETATM    1  C   UNL     1      41.797 -10.243   4.668  1.00  0.00     0.060 A 
HETATM    2  C   UNL     1      40.641  -9.854   3.958  1.00  0.00     0.046 A 
HETATM    3  C   UNL     1      39.898  -8.798   4.518  1.00  0.00     0.032 A 
HETATM    4  C   UNL     1      40.242  -8.200   5.741  1.00  0.00     0.032 A 
HETATM    5  C   UNL     1      41.341  -8.650   6.459  1.00  0.00     0.037 A 
HETATM    6  C   UNL     1      42.125  -9.662   5.911  1.00  0.00     0.049 A 
ENDROOT
BRANCH   2   7
HETATM    7  N   UNL     1      40.203 -10.498   2.807  1.00  0.00    -0.378 N 
HETATM    8  C   UNL     1      40.594  -9.958   1.488  1.00  0.00     0.138 C 
HETATM    9  C   UNL     1      40.586 -11.094   0.434  1.00  0.00     0.115 C 
HETATM   10  N   UNL     1      39.260 -11.759   0.380  1.00  0.00    -0.278 NA
HETATM   11  C   UNL     1      38.856 -12.280   1.715  1.00  0.00     0.115 C 
HETATM   12  C   UNL     1      38.880 -11.157   2.780  1.00  0.00     0.138 C 
BRANCH  10  13
HETATM   13  C   UNL     1      39.050 -12.726  -0.634  1.00  0.00     0.044 A 
HETATM   14  C   UNL     1      38.131 -12.475  -1.691  1.00  0.00     0.089 A 
HETATM   15  C   UNL     1      37.901 -13.450  -2.674  1.00  0.00     0.038 A 
HETATM   16  C   UNL     1      38.570 -14.673  -2.632  1.00  0.00     0.003 A 
HETATM   17  C   UNL     1      39.477 -14.930  -1.614  1.00  0.00     0.002 A 
HETATM   18  C   UNL     1      39.715 -13.966  -0.629  1.00  0.00     0.026 A 
BRANCH  14  19
HETATM   19  O   UNL     1      37.525 -11.238  -1.692  1.00  0.00    -0.354 OA
HETATM   20  C   UNL     1      37.872 -10.333  -2.729  1.00  0.00     0.210 C 
ENDBRANCH  14  19
ENDBRANCH  10  13
ENDBRANCH   2   7
BRANCH   1  21
HETATM   21  C   UNL     1      42.692 -11.350   4.235  1.00  0.00     0.254 C 
HETATM   22  N   UNL     1      42.246 -12.601   4.621  1.00  0.00    -0.353 N 
HETATM   23  H   UNL     1      41.468 -12.633   5.269  1.00  0.00     0.163 HD
HETATM   24  O   UNL     1      43.684 -11.140   3.552  1.00  0.00    -0.268 OA
BRANCH  22  25
HETATM   25  C   UNL     1      42.833 -13.880   4.237  1.00  0.00     0.080 C 
HETATM   26  C   UNL     1      42.892 -14.885   5.387  1.00  0.00     0.032 C 
BRANCH  25  27
HETATM   27  C   UNL     1      42.265 -14.452   2.928  1.00  0.00     0.020 C 
HETATM   28  C   UNL     1      43.272 -14.767   1.836  1.00  0.00     0.007 C 
ENDBRANCH  25  27
ENDBRANCH  22  25
ENDBRANCH   1  21
BRANCH   5  29
HETATM   29  N   UNL     1      41.668  -8.205   7.754  1.00  0.00    -0.309 N 
HETATM   30  C   UNL     1      41.182  -8.686   8.958  1.00  0.00     0.325 C 
HETATM   31  N   UNL     1      42.002  -8.266   9.991  1.00  0.00    -0.307 N 
HETATM   32  O   UNL     1      40.185  -9.384   9.083  1.00  0.00    -0.247 OA
HETATM   33  H   UNL     1      42.958  -8.064   9.728  1.00  0.00     0.170 HD
HETATM   34  H   UNL     1      42.234  -7.372   7.822  1.00  0.00     0.170 HD
BRANCH  31  35
HETATM   35  C   UNL     1      41.789  -8.433  11.378  1.00  0.00     0.053 A 
HETATM   36  C   UNL     1      42.538  -9.404  12.070  1.00  0.00     0.037 A 
HETATM   37 BR   UNL     1      43.792 -10.515  11.167  1.00  0.00    -0.049 Br
HETATM   38  C   UNL     1      42.372  -9.593  13.444  1.00  0.00     0.021 A 
HETATM   39  C   UNL     1      41.464  -8.805  14.147  1.00  0.00     0.002 A 
HETATM   40  C   UNL     1      40.728  -7.832  13.477  1.00  0.00     0.002 A 
HETATM   41  C   UNL     1      40.888  -7.645  12.100  1.00  0.00     0.031 A 
ENDBRANCH  31  35
ENDBRANCH   5  29
TORSDOF 8
ENDMDL
MODEL 6
REMARK VINA RESULT:      -8.0      3.287     11.391
REMARK  8 active torsions:
REMARK  status: ('A' for Active; 'I' for Inactive)
REMARK    1  A    between atoms: C_2  and  C_3 
REMARK    2  A    between atoms: C_3  and  N_4 
REMARK       I    between atoms: N_4  and  C_5 
REMARK    3  A    between atoms: C_5  and  C_6 
REMARK    4  A    between atoms: C_7  and  N_8 
REMARK    5  A    between atoms: N_11  and  C_12 
REMARK    6  A    between atoms: C_13  and  O_14 
REMARK    7  A    between atoms: C_24  and  N_25 
REMARK       I    between atoms: N_25  and  C_26 
REMARK       I    between atoms: C_26  and  N_27 
REMARK    8  A    between atoms: N_27  and  C_28 
ROOT
HETATM    1  C   UNL     1      41.447  -9.949   6.998  1.00  0.00     0.060 A 
HETATM    2  C   UNL     1      40.235  -9.789   7.704  1.00  0.00     0.046 A 
HETATM    3  C   UNL     1      39.059 -10.072   6.985  1.00  0.00     0.032 A 
HETATM    4  C   UNL     1      39.073 -10.433   5.628  1.00  0.00     0.032 A 
HETATM    5  C   UNL     1      40.273 -10.512   4.934  1.00  0.00     0.037 A 
HETATM    6  C   UNL     1      41.459 -10.284   5.628  1.00  0.00     0.049 A 
ENDROOT
BRANCH   2   7
HETATM    7  N   UNL     1      40.174  -9.320   9.011  1.00  0.00    -0.378 N 
HETATM    8  C   UNL     1      39.233  -9.953   9.958  1.00  0.00     0.138 C 
HETATM    9  C   UNL     1      39.748  -9.773  11.408  1.00  0.00     0.115 C 
HETATM   10  N   UNL     1      39.955  -8.337  11.723  1.00  0.00    -0.278 NA
HETATM   11  C   UNL     1      40.884  -7.694  10.753  1.00  0.00     0.115 C 
HETATM   12  C   UNL     1      40.388  -7.886   9.299  1.00  0.00     0.138 C 
BRANCH  10  13
HETATM   13  C   UNL     1      40.291  -7.997  13.057  1.00  0.00     0.044 A 
HETATM   14  C   UNL     1      39.790  -6.802  13.645  1.00  0.00     0.089 A 
HETATM   15  C   UNL     1      40.153  -6.453  14.955  1.00  0.00     0.038 A 
HETATM   16  C   UNL     1      41.003  -7.271  15.698  1.00  0.00     0.003 A 
HETATM   17  C   UNL     1      41.492  -8.445  15.144  1.00  0.00     0.002 A 
HETATM   18  C   UNL     1      41.137  -8.804  13.840  1.00  0.00     0.026 A 
BRANCH  14  19
HETATM   19  O   UNL     1      38.933  -6.053  12.869  1.00  0.00    -0.354 OA
HETATM   20  C   UNL     1      37.551  -6.087  13.192  1.00  0.00     0.210 C 
ENDBRANCH  14  19
ENDBRANCH  10  13
ENDBRANCH   2   7
BRANCH   1  21
HETATM   21  C   UNL     1      42.785  -9.681   7.592  1.00  0.00     0.254 C 
HETATM   22  N   UNL     1      43.368 -10.799   8.160  1.00  0.00    -0.353 N 
HETATM   23  H   UNL     1      42.789 -11.624   8.253  1.00  0.00     0.163 HD
HETATM   24  O   UNL     1      43.311  -8.581   7.511  1.00  0.00    -0.268 OA
BRANCH  22  25
HETATM   25  C   UNL     1      44.720 -10.883   8.700  1.00  0.00     0.080 C 
HETATM   26  C   UNL     1      45.805 -10.682   7.643  1.00  0.00     0.032 C 
BRANCH  25  27
HETATM   27  C   UNL     1      44.927 -10.057   9.980  1.00  0.00     0.020 C 
HETATM   28  C   UNL     1      43.872 -10.213  11.062  1.00  0.00     0.007 C 
ENDBRANCH  25  27
ENDBRANCH  22  25
ENDBRANCH   1  21
BRANCH   5  29
HETATM   29  N   UNL     1      40.363 -10.725   3.546  1.00  0.00    -0.309 N 
HETATM   30  C   UNL     1      39.825 -11.775   2.819  1.00  0.00     0.325 C 
HETATM   31  N   UNL     1      39.800 -11.443   1.475  1.00  0.00    -0.307 N 
HETATM   32  O   UNL     1      39.426 -12.827   3.297  1.00  0.00    -0.247 OA
HETATM   33  H   UNL     1      39.770 -10.452   1.276  1.00  0.00     0.170 HD
HETATM   34  H   UNL     1      40.976 -10.114   3.028  1.00  0.00     0.170 HD
BRANCH  31  35
HETATM   35  C   UNL     1      39.448 -12.279   0.391  1.00  0.00     0.053 A 
HETATM   36  C   UNL     1      38.321 -11.948  -0.385  1.00  0.00     0.037 A 
HETATM   37 BR   UNL     1      37.249 -10.429   0.023  1.00  0.00    -0.049 Br
HETATM   38  C   UNL     1      37.944 -12.737  -1.475  1.00  0.00     0.021 A 
HETATM   39  C   UNL     1      38.697 -13.860  -1.811  1.00  0.00     0.002 A 
HETATM   40  C   UNL     1      39.822 -14.189  -1.059  1.00  0.00     0.002 A 
HETATM   41  C   UNL     1      40.197 -13.404   0.036  1.00  0.00     0.031 A 
ENDBRANCH  31  35
ENDBRANCH   5  29
TORSDOF 8
ENDMDL
MODEL 7
REMARK VINA RESULT:      -7.9     19.342     21.562
REMARK  8 active torsions:
REMARK  status: ('A' for Active; 'I' for Inactive)
REMARK    1  A    between atoms: C_2  and  C_3 
REMARK    2  A    between atoms: C_3  and  N_4 
REMARK       I    between atoms: N_4  and  C_5 
REMARK    3  A    between atoms: C_5  and  C_6 
REMARK    4  A    between atoms: C_7  and  N_8 
REMARK    5  A    between atoms: N_11  and  C_12 
REMARK    6  A    between atoms: C_13  and  O_14 
REMARK    7  A    between atoms: C_24  and  N_25 
REMARK       I    between atoms: N_25  and  C_26 
REMARK       I    between atoms: C_26  and  N_27 
REMARK    8  A    between atoms: N_27  and  C_28 
ROOT
HETATM    1  C   UNL     1      50.099 -31.080   2.772  1.00  0.00     0.060 A 
HETATM    2  C   UNL     1      48.699 -31.006   2.928  1.00  0.00     0.046 A 
HETATM    3  C   UNL     1      48.202 -31.336   4.202  1.00  0.00     0.032 A 
HETATM    4  C   UNL     1      49.032 -31.774   5.246  1.00  0.00     0.032 A 
HETATM    5  C   UNL     1      50.400 -31.911   5.046  1.00  0.00     0.037 A 
HETATM    6  C   UNL     1      50.931 -31.547   3.811  1.00  0.00     0.049 A 
ENDROOT
BRANCH   2   7
HETATM    7  N   UNL     1      47.833 -30.690   1.887  1.00  0.00    -0.378 N 
HETATM    8  C   UNL     1      46.736 -29.731   2.130  1.00  0.00     0.138 C 
HETATM    9  C   UNL     1      46.335 -29.046   0.800  1.00  0.00     0.115 C 
HETATM   10  N   UNL     1      45.961 -30.054  -0.225  1.00  0.00    -0.278 NA
HETATM   11  C   UNL     1      47.058 -31.036  -0.450  1.00  0.00     0.115 C 
HETATM   12  C   UNL     1      47.480 -31.711   0.877  1.00  0.00     0.138 C 
BRANCH  10  13
HETATM   13  C   UNL     1      45.435 -29.581  -1.452  1.00  0.00     0.044 A 
HETATM   14  C   UNL     1      44.403 -30.299  -2.119  1.00  0.00     0.089 A 
HETATM   15  C   UNL     1      43.909 -29.844  -3.351  1.00  0.00     0.038 A 
HETATM   16  C   UNL     1      44.418 -28.685  -3.937  1.00  0.00     0.003 A 
HETATM   17  C   UNL     1      45.418 -27.968  -3.295  1.00  0.00     0.002 A 
HETATM   18  C   UNL     1      45.917 -28.410  -2.066  1.00  0.00     0.026 A 
BRANCH  14  19
HETATM   19  O   UNL     1      43.924 -31.418  -1.475  1.00  0.00    -0.354 OA
HETATM   20  C   UNL     1      43.981 -32.654  -2.170  1.00  0.00     0.210 C 
ENDBRANCH  14  19
ENDBRANCH  10  13
ENDBRANCH   2   7
BRANCH   1  21
HETATM   21  C   UNL     1      50.799 -30.782   1.492  1.00  0.00     0.254 C 
HETATM   22  N   UNL     1      51.238 -31.915   0.830  1.00  0.00    -0.353 N 
HETATM   23  H   UNL     1      51.183 -32.793   1.332  1.00  0.00     0.163 HD
HETATM   24  O   UNL     1      50.902 -29.640   1.070  1.00  0.00    -0.268 OA
BRANCH  22  25
HETATM   25  C   UNL     1      51.837 -31.956  -0.499  1.00  0.00     0.080 C 
HETATM   26  C   UNL     1      52.925 -33.020  -0.637  1.00  0.00     0.032 C 
BRANCH  25  27
HETATM   27  C   UNL     1      50.807 -31.956  -1.641  1.00  0.00     0.020 C 
HETATM   28  C   UNL     1      50.444 -30.601  -2.222  1.00  0.00     0.007 C 
ENDBRANCH  25  27
ENDBRANCH  22  25
ENDBRANCH   1  21
BRANCH   5  29
HETATM   29  N   UNL     1      51.277 -32.476   5.989  1.00  0.00    -0.309 N 
HETATM   30  C   UNL     1      52.246 -31.825   6.736  1.00  0.00     0.325 C 
HETATM   31  N   UNL     1      52.629 -32.626   7.798  1.00  0.00    -0.307 N 
HETATM   32  O   UNL     1      52.683 -30.708   6.495  1.00  0.00    -0.247 OA
HETATM   33  H   UNL     1      51.938 -33.298   8.103  1.00  0.00     0.170 HD
HETATM   34  H   UNL     1      51.287 -33.483   6.059  1.00  0.00     0.170 HD
BRANCH  31  35
HETATM   35  C   UNL     1      53.676 -32.388   8.717  1.00  0.00     0.053 A 
HETATM   36  C   UNL     1      53.372 -32.317  10.090  1.00  0.00     0.037 A 
HETATM   37 BR   UNL     1      51.584 -32.493  10.719  1.00  0.00    -0.049 Br
HETATM   38  C   UNL     1      54.376 -32.098  11.037  1.00  0.00     0.021 A 
HETATM   39  C   UNL     1      55.699 -31.961  10.624  1.00  0.00     0.002 A 
HETATM   40  C   UNL     1      56.014 -32.044   9.270  1.00  0.00     0.002 A 
HETATM   41  C   UNL     1      55.009 -32.256   8.321  1.00  0.00     0.031 A 
ENDBRANCH  31  35
ENDBRANCH   5  29
TORSDOF 8
ENDMDL
MODEL 8
REMARK VINA RESULT:      -7.9      4.359      7.205
REMARK  8 active torsions:
REMARK  status: ('A' for Active; 'I' for Inactive)
REMARK    1  A    between atoms: C_2  and  C_3 
REMARK    2  A    between atoms: C_3  and  N_4 
REMARK       I    between atoms: N_4  and  C_5 
REMARK    3  A    between atoms: C_5  and  C_6 
REMARK    4  A    between atoms: C_7  and  N_8 
REMARK    5  A    between atoms: N_11  and  C_12 
REMARK    6  A    between atoms: C_13  and  O_14 
REMARK    7  A    between atoms: C_24  and  N_25 
REMARK       I    between atoms: N_25  and  C_26 
REMARK       I    between atoms: C_26  and  N_27 
REMARK    8  A    between atoms: N_27  and  C_28 
ROOT
HETATM    1  C   UNL     1      39.801 -11.100   3.888  1.00  0.00     0.060 A 
HETATM    2  C   UNL     1      40.665 -11.647   4.861  1.00  0.00     0.046 A 
HETATM    3  C   UNL     1      40.917 -10.840   5.986  1.00  0.00     0.032 A 
HETATM    4  C   UNL     1      40.395  -9.543   6.117  1.00  0.00     0.032 A 
HETATM    5  C   UNL     1      39.608  -8.997   5.111  1.00  0.00     0.037 A 
HETATM    6  C   UNL     1      39.301  -9.786   4.005  1.00  0.00     0.049 A 
ENDROOT
BRANCH   2   7
HETATM    7  N   UNL     1      41.293 -12.878   4.714  1.00  0.00    -0.378 N 
HETATM    8  C   UNL     1      41.013 -13.949   5.691  1.00  0.00     0.138 C 
HETATM    9  C   UNL     1      41.250 -15.332   5.034  1.00  0.00     0.115 C 
HETATM   10  N   UNL     1      42.629 -15.434   4.494  1.00  0.00    -0.278 NA
HETATM   11  C   UNL     1      42.919 -14.339   3.529  1.00  0.00     0.115 C 
HETATM   12  C   UNL     1      42.666 -12.953   4.169  1.00  0.00     0.138 C 
BRANCH  10  13
HETATM   13  C   UNL     1      43.046 -16.690   3.986  1.00  0.00     0.044 A 
HETATM   14  C   UNL     1      43.958 -17.498   4.722  1.00  0.00     0.089 A 
HETATM   15  C   UNL     1      44.394 -18.726   4.199  1.00  0.00     0.038 A 
HETATM   16  C   UNL     1      43.940 -19.170   2.958  1.00  0.00     0.003 A 
HETATM   17  C   UNL     1      43.043 -18.399   2.233  1.00  0.00     0.002 A 
HETATM   18  C   UNL     1      42.600 -17.176   2.743  1.00  0.00     0.026 A 
BRANCH  14  19
HETATM   19  O   UNL     1      44.346 -17.015   5.952  1.00  0.00    -0.354 OA
HETATM   20  C   UNL     1      43.610 -17.440   7.089  1.00  0.00     0.210 C 
ENDBRANCH  14  19
ENDBRANCH  10  13
ENDBRANCH   2   7
BRANCH   1  21
HETATM   21  C   UNL     1      39.435 -11.802   2.628  1.00  0.00     0.254 C 
HETATM   22  N   UNL     1      40.396 -11.692   1.639  1.00  0.00    -0.353 N 
HETATM   23  H   UNL     1      41.155 -11.043   1.804  1.00  0.00     0.163 HD
HETATM   24  O   UNL     1      38.405 -12.453   2.534  1.00  0.00    -0.268 OA
BRANCH  22  25
HETATM   25  C   UNL     1      40.386 -12.375   0.350  1.00  0.00     0.080 C 
HETATM   26  C   UNL     1      40.867 -11.494  -0.802  1.00  0.00     0.032 C 
BRANCH  25  27
HETATM   27  C   UNL     1      41.025 -13.772   0.385  1.00  0.00     0.020 C 
HETATM   28  C   UNL     1      40.071 -14.951   0.458  1.00  0.00     0.007 C 
ENDBRANCH  25  27
ENDBRANCH  22  25
ENDBRANCH   1  21
BRANCH   5  29
HETATM   29  N   UNL     1      39.169  -7.661   5.098  1.00  0.00    -0.309 N 
HETATM   30  C   UNL     1      37.956  -7.169   5.553  1.00  0.00     0.325 C 
HETATM   31  N   UNL     1      38.045  -5.797   5.720  1.00  0.00    -0.307 N 
HETATM   32  O   UNL     1      36.965  -7.848   5.782  1.00  0.00    -0.247 OA
HETATM   33  H   UNL     1      38.977  -5.443   5.888  1.00  0.00     0.170 HD
HETATM   34  H   UNL     1      39.745  -6.994   4.607  1.00  0.00     0.170 HD
BRANCH  31  35
HETATM   35  C   UNL     1      37.000  -4.903   6.044  1.00  0.00     0.053 A 
HETATM   36  C   UNL     1      36.933  -4.380   7.349  1.00  0.00     0.037 A 
HETATM   37 BR   UNL     1      38.192  -4.885   8.684  1.00  0.00    -0.049 Br
HETATM   38  C   UNL     1      35.926  -3.480   7.711  1.00  0.00     0.021 A 
HETATM   39  C   UNL     1      34.981  -3.083   6.768  1.00  0.00     0.002 A 
HETATM   40  C   UNL     1      35.046  -3.582   5.470  1.00  0.00     0.002 A 
HETATM   41  C   UNL     1      36.049  -4.487   5.109  1.00  0.00     0.031 A 
ENDBRANCH  31  35
ENDBRANCH   5  29
TORSDOF 8
ENDMDL
MODEL 9
REMARK VINA RESULT:      -7.9      4.004      5.890
REMARK  8 active torsions:
REMARK  status: ('A' for Active; 'I' for Inactive)
REMARK    1  A    between atoms: C_2  and  C_3 
REMARK    2  A    between atoms: C_3  and  N_4 
REMARK       I    between atoms: N_4  and  C_5 
REMARK    3  A    between atoms: C_5  and  C_6 
REMARK    4  A    between atoms: C_7  and  N_8 
REMARK    5  A    between atoms: N_11  and  C_12 
REMARK    6  A    between atoms: C_13  and  O_14 
REMARK    7  A    between atoms: C_24  and  N_25 
REMARK       I    between atoms: N_25  and  C_26 
REMARK       I    between atoms: C_26  and  N_27 
REMARK    8  A    between atoms: N_27  and  C_28 
ROOT
HETATM    1  C   UNL     1      41.400 -10.674   6.532  1.00  0.00     0.060 A 
HETATM    2  C   UNL     1      40.529 -11.678   6.059  1.00  0.00     0.046 A 
HETATM    3  C   UNL     1      39.159 -11.475   6.310  1.00  0.00     0.032 A 
HETATM    4  C   UNL     1      38.680 -10.375   7.039  1.00  0.00     0.032 A 
HETATM    5  C   UNL     1      39.564  -9.438   7.559  1.00  0.00     0.037 A 
HETATM    6  C   UNL     1      40.922  -9.584   7.289  1.00  0.00     0.049 A 
ENDROOT
BRANCH   2   7
HETATM    7  N   UNL     1      40.973 -12.839   5.436  1.00  0.00    -0.378 N 
HETATM    8  C   UNL     1      41.542 -12.752   4.076  1.00  0.00     0.138 C 
HETATM    9  C   UNL     1      42.520 -13.930   3.841  1.00  0.00     0.115 C 
HETATM   10  N   UNL     1      41.846 -15.233   4.068  1.00  0.00    -0.278 NA
HETATM   11  C   UNL     1      41.250 -15.310   5.430  1.00  0.00     0.115 C 
HETATM   12  C   UNL     1      40.286 -14.125   5.682  1.00  0.00     0.138 C 
BRANCH  10  13
HETATM   13  C   UNL     1      42.568 -16.412   3.757  1.00  0.00     0.044 A 
HETATM   14  C   UNL     1      43.656 -16.828   4.575  1.00  0.00     0.089 A 
HETATM   15  C   UNL     1      44.389 -17.978   4.243  1.00  0.00     0.038 A 
HETATM   16  C   UNL     1      44.063 -18.727   3.113  1.00  0.00     0.003 A 
HETATM   17  C   UNL     1      43.000 -18.340   2.310  1.00  0.00     0.002 A 
HETATM   18  C   UNL     1      42.260 -17.198   2.631  1.00  0.00     0.026 A 
BRANCH  14  19
HETATM   19  O   UNL     1      43.909 -16.061   5.691  1.00  0.00    -0.354 OA
HETATM   20  C   UNL     1      44.204 -16.738   6.903  1.00  0.00     0.210 C 
ENDBRANCH  14  19
ENDBRANCH  10  13
ENDBRANCH   2   7
BRANCH   1  21
HETATM   21  C   UNL     1      42.879 -10.728   6.371  1.00  0.00     0.254 C 
HETATM   22  N   UNL     1      43.538 -11.171   7.504  1.00  0.00    -0.353 N 
HETATM   23  H   UNL     1      42.989 -11.264   8.350  1.00  0.00     0.163 HD
HETATM   24  O   UNL     1      43.417 -10.459   5.308  1.00  0.00    -0.268 OA
BRANCH  22  25
HETATM   25  C   UNL     1      44.965 -11.454   7.614  1.00  0.00     0.080 C 
HETATM   26  C   UNL     1      45.559 -12.053   6.340  1.00  0.00     0.032 C 
BRANCH  25  27
HETATM   27  C   UNL     1      45.781 -10.294   8.206  1.00  0.00     0.020 C 
HETATM   28  C   UNL     1      45.347  -9.791   9.571  1.00  0.00     0.007 C 
ENDBRANCH  25  27
ENDBRANCH  22  25
ENDBRANCH   1  21
BRANCH   5  29
HETATM   29  N   UNL     1      39.181  -8.391   8.418  1.00  0.00    -0.309 N 
HETATM   30  C   UNL     1      39.225  -8.378   9.802  1.00  0.00     0.325 C 
HETATM   31  N   UNL     1      39.131  -7.074  10.257  1.00  0.00    -0.307 N 
HETATM   32  O   UNL     1      39.341  -9.369  10.510  1.00  0.00    -0.247 OA
HETATM   33  H   UNL     1      39.443  -6.366   9.605  1.00  0.00     0.170 HD
HETATM   34  H   UNL     1      38.718  -7.600   7.996  1.00  0.00     0.170 HD
BRANCH  31  35
HETATM   35  C   UNL     1      39.011  -6.638  11.596  1.00  0.00     0.053 A 
HETATM   36  C   UNL     1      40.166  -6.210  12.278  1.00  0.00     0.037 A 
HETATM   37 BR   UNL     1      41.878  -6.246  11.446  1.00  0.00    -0.049 Br
HETATM   38  C   UNL     1      40.094  -5.757  13.598  1.00  0.00     0.021 A 
HETATM   39  C   UNL     1      38.863  -5.714  14.249  1.00  0.00     0.002 A 
HETATM   40  C   UNL     1      37.712  -6.122  13.580  1.00  0.00     0.002 A 
HETATM   41  C   UNL     1      37.784  -6.582  12.261  1.00  0.00     0.031 A 
ENDBRANCH  31  35
ENDBRANCH   5  29
TORSDOF 8
ENDMDL
MODEL 10
REMARK VINA RESULT:      -7.9      5.256     11.180
REMARK  8 active torsions:
REMARK  status: ('A' for Active; 'I' for Inactive)
REMARK    1  A    between atoms: C_2  and  C_3 
REMARK    2  A    between atoms: C_3  and  N_4 
REMARK       I    between atoms: N_4  and  C_5 
REMARK    3  A    between atoms: C_5  and  C_6 
REMARK    4  A    between atoms: C_7  and  N_8 
REMARK    5  A    between atoms: N_11  and  C_12 
REMARK    6  A    between atoms: C_13  and  O_14 
REMARK    7  A    between atoms: C_24  and  N_25 
REMARK       I    between atoms: N_25  and  C_26 
REMARK       I    between atoms: C_26  and  N_27 
REMARK    8  A    between atoms: N_27  and  C_28 
ROOT
HETATM    1  C   UNL     1      40.046 -12.225   0.614  1.00  0.00     0.060 A 
HETATM    2  C   UNL     1      40.322 -13.582   0.344  1.00  0.00     0.046 A 
HETATM    3  C   UNL     1      39.910 -14.057  -0.916  1.00  0.00     0.032 A 
HETATM    4  C   UNL     1      39.211 -13.255  -1.832  1.00  0.00     0.032 A 
HETATM    5  C   UNL     1      38.884 -11.944  -1.512  1.00  0.00     0.037 A 
HETATM    6  C   UNL     1      39.318 -11.428  -0.293  1.00  0.00     0.049 A 
ENDROOT
BRANCH   2   7
HETATM    7  N   UNL     1      40.908 -14.438   1.269  1.00  0.00    -0.378 N 
HETATM    8  C   UNL     1      42.370 -14.643   1.234  1.00  0.00     0.138 C 
HETATM    9  C   UNL     1      42.876 -15.054   2.640  1.00  0.00     0.115 C 
HETATM   10  N   UNL     1      42.167 -16.264   3.126  1.00  0.00    -0.278 NA
HETATM   11  C   UNL     1      40.692 -16.066   3.136  1.00  0.00     0.115 C 
HETATM   12  C   UNL     1      40.179 -15.635   1.741  1.00  0.00     0.138 C 
BRANCH  10  13
HETATM   13  C   UNL     1      42.615 -16.848   4.337  1.00  0.00     0.044 A 
HETATM   14  C   UNL     1      43.526 -17.941   4.317  1.00  0.00     0.089 A 
HETATM   15  C   UNL     1      43.941 -18.537   5.519  1.00  0.00     0.038 A 
HETATM   16  C   UNL     1      43.470 -18.066   6.744  1.00  0.00     0.003 A 
HETATM   17  C   UNL     1      42.590 -16.995   6.781  1.00  0.00     0.002 A 
HETATM   18  C   UNL     1      42.171 -16.392   5.592  1.00  0.00     0.026 A 
BRANCH  14  19
HETATM   19  O   UNL     1      43.974 -18.340   3.077  1.00  0.00    -0.354 OA
HETATM   20  C   UNL     1      43.597 -19.630   2.623  1.00  0.00     0.210 C 
ENDBRANCH  14  19
ENDBRANCH  10  13
ENDBRANCH   2   7
BRANCH   1  21
HETATM   21  C   UNL     1      40.395 -11.557   1.898  1.00  0.00     0.254 C 
HETATM   22  N   UNL     1      39.364 -11.570   2.821  1.00  0.00    -0.353 N 
HETATM   23  H   UNL     1      38.457 -11.881   2.495  1.00  0.00     0.163 HD
HETATM   24  O   UNL     1      41.512 -11.108   2.103  1.00  0.00    -0.268 OA
BRANCH  22  25
HETATM   25  C   UNL     1      39.443 -11.114   4.204  1.00  0.00     0.080 C 
HETATM   26  C   UNL     1      38.522  -9.932   4.502  1.00  0.00     0.032 C 
BRANCH  25  27
HETATM   27  C   UNL     1      39.363 -12.251   5.235  1.00  0.00     0.020 C 
HETATM   28  C   UNL     1      40.654 -13.000   5.516  1.00  0.00     0.007 C 
ENDBRANCH  25  27
ENDBRANCH  22  25
ENDBRANCH   1  21
BRANCH   5  29
HETATM   29  N   UNL     1      38.065 -11.124  -2.310  1.00  0.00    -0.309 N 
HETATM   30  C   UNL     1      36.811 -11.423  -2.816  1.00  0.00     0.325 C 
HETATM   31  N   UNL     1      36.182 -10.257  -3.218  1.00  0.00    -0.307 N 
HETATM   32  O   UNL     1      36.333 -12.547  -2.886  1.00  0.00    -0.247 OA
HETATM   33  H   UNL     1      36.493  -9.416  -2.750  1.00  0.00     0.170 HD
HETATM   34  H   UNL     1      38.470 -10.263  -2.648  1.00  0.00     0.170 HD
BRANCH  31  35
HETATM   35  C   UNL     1      34.950 -10.138  -3.901  1.00  0.00     0.053 A 
HETATM   36  C   UNL     1      34.936  -9.552  -5.181  1.00  0.00     0.037 A 
HETATM   37 BR   UNL     1      36.529  -8.886  -5.982  1.00  0.00    -0.049 Br
HETATM   38  C   UNL     1      33.745  -9.427  -5.900  1.00  0.00     0.021 A 
HETATM   39  C   UNL     1      32.553  -9.898  -5.354  1.00  0.00     0.002 A 
HETATM   40  C   UNL     1      32.557 -10.493  -4.094  1.00  0.00     0.002 A 
HETATM   41  C   UNL     1      33.748 -10.613  -3.371  1.00  0.00     0.031 A 
ENDBRANCH  31  35
ENDBRANCH   5  29
TORSDOF 8
ENDMDL
