MODEL 1
REMARK VINA RESULT:      -8.8      0.000      0.000
REMARK  6 active torsions:
REMARK  status: ('A' for Active; 'I' for Inactive)
REMARK    1  A    between atoms: C_2  and  C_3 
REMARK    2  A    between atoms: C_3  and  N_4 
REMARK       I    between atoms: N_4  and  C_5 
REMARK    3  A    between atoms: C_5  and  C_6 
REMARK    4  A    between atoms: C_8  and  C_9 
REMARK    5  A    between atoms: C_9  and  N_10 
REMARK       I    between atoms: N_10  and  C_11 
REMARK    6  A    between atoms: C_11  and  C_12 
ROOT
HETATM    1  C   UNL     1      44.346 -11.458   6.349  1.00  0.00     0.161 C 
ENDROOT
BRANCH   1   2
HETATM    2  C   UNL     1      44.694 -10.703   7.602  1.00  0.00    -0.040 A 
HETATM    3  C   UNL     1      43.962 -10.915   8.777  1.00  0.00     0.026 A 
HETATM    4  C   UNL     1      44.352 -10.298   9.970  1.00  0.00     0.032 A 
HETATM    5  C   UNL     1      45.448  -9.432   9.996  1.00  0.00     0.017 A 
HETATM    6  C   UNL     1      46.159  -9.189   8.821  1.00  0.00     0.002 A 
HETATM    7  C   UNL     1      45.788  -9.824   7.633  1.00  0.00     0.009 A 
BRANCH   4   8
HETATM    8  C   UNL     1      43.600 -10.626  11.202  1.00  0.00     0.252 C 
HETATM    9  N   UNL     1      42.543  -9.784  11.471  1.00  0.00    -0.353 N 
HETATM   10  H   UNL     1      42.422  -8.976  10.874  1.00  0.00     0.163 HD
HETATM   11  O   UNL     1      43.985 -11.535  11.924  1.00  0.00    -0.268 OA
BRANCH   9  12
HETATM   12  C   UNL     1      41.794  -9.798  12.723  1.00  0.00     0.080 C 
HETATM   13  C   UNL     1      42.376  -8.816  13.739  1.00  0.00     0.032 C 
BRANCH  12  14
HETATM   14  C   UNL     1      40.284  -9.569  12.531  1.00  0.00     0.020 C 
HETATM   15  C   UNL     1      39.440 -10.760  12.966  1.00  0.00     0.007 C 
ENDBRANCH  12  14
ENDBRANCH   9  12
ENDBRANCH   4   8
ENDBRANCH   1   2
BRANCH   1  16
HETATM   16  N   UNL     1      44.365 -12.882   6.529  1.00  0.00    -0.351 N 
HETATM   17  C   UNL     1      43.196 -13.600   6.376  1.00  0.00     0.273 C 
HETATM   18  O   UNL     1      42.095 -13.064   6.294  1.00  0.00    -0.266 OA
HETATM   19  H   UNL     1      45.225 -13.413   6.422  1.00  0.00     0.163 HD
BRANCH  17  20
HETATM   20  C   UNL     1      43.392 -15.055   6.279  1.00  0.00     0.157 A 
HETATM   21  N   UNL     1      43.649 -15.815   7.366  1.00  0.00    -0.168 NA
HETATM   22  N   UNL     1      43.774 -17.058   6.863  1.00  0.00    -0.277 N 
HETATM   23  H   UNL     1      43.967 -17.819   7.505  1.00  0.00     0.189 HD
HETATM   24  C   UNL     1      43.634 -17.137   5.505  1.00  0.00     0.063 A 
HETATM   25  C   UNL     1      43.378 -15.839   5.088  1.00  0.00     0.029 A 
HETATM   26  C   UNL     1      43.716 -18.218   4.622  1.00  0.00     0.032 A 
HETATM   27  C   UNL     1      43.191 -15.589   3.714  1.00  0.00     0.023 A 
HETATM   28  C   UNL     1      43.268 -16.653   2.798  1.00  0.00    -0.061 A 
HETATM   29  C   UNL     1      43.532 -17.947   3.259  1.00  0.00     0.009 A 
HETATM   30  C   UNL     1      43.101 -16.373   1.333  1.00  0.00     0.048 C 
ENDBRANCH  17  20
ENDBRANCH   1  16
TORSDOF 6
ENDMDL
MODEL 2
REMARK VINA RESULT:      -8.7      2.000      2.403
REMARK  6 active torsions:
REMARK  status: ('A' for Active; 'I' for Inactive)
REMARK    1  A    between atoms: C_2  and  C_3 
REMARK    2  A    between atoms: C_3  and  N_4 
REMARK       I    between atoms: N_4  and  C_5 
REMARK    3  A    between atoms: C_5  and  C_6 
REMARK    4  A    between atoms: C_8  and  C_9 
REMARK    5  A    between atoms: C_9  and  N_10 
REMARK       I    between atoms: N_10  and  C_11 
REMARK    6  A    between atoms: C_11  and  C_12 
ROOT
HETATM    1  C   UNL     1      42.964 -12.210   6.416  1.00  0.00     0.161 C 
ENDROOT
BRANCH   1   2
HETATM    2  C   UNL     1      44.019 -11.283   6.952  1.00  0.00    -0.040 A 
HETATM    3  C   UNL     1      43.654 -10.177   7.731  1.00  0.00     0.026 A 
HETATM    4  C   UNL     1      44.636  -9.376   8.322  1.00  0.00     0.032 A 
HETATM    5  C   UNL     1      45.991  -9.643   8.111  1.00  0.00     0.017 A 
HETATM    6  C   UNL     1      46.361 -10.721   7.306  1.00  0.00     0.002 A 
HETATM    7  C   UNL     1      45.382 -11.538   6.736  1.00  0.00     0.009 A 
BRANCH   4   8
HETATM    8  C   UNL     1      44.197  -8.276   9.209  1.00  0.00     0.252 C 
HETATM    9  N   UNL     1      43.705  -8.685  10.431  1.00  0.00    -0.353 N 
HETATM   10  H   UNL     1      43.599  -9.680  10.585  1.00  0.00     0.163 HD
HETATM   11  O   UNL     1      44.219  -7.123   8.804  1.00  0.00    -0.268 OA
BRANCH   9  12
HETATM   12  C   UNL     1      43.039  -7.795  11.375  1.00  0.00     0.080 C 
HETATM   13  C   UNL     1      41.576  -7.565  10.996  1.00  0.00     0.032 C 
BRANCH  12  14
HETATM   14  C   UNL     1      43.167  -8.255  12.838  1.00  0.00     0.020 C 
HETATM   15  C   UNL     1      43.186  -7.098  13.827  1.00  0.00     0.007 C 
ENDBRANCH  12  14
ENDBRANCH   9  12
ENDBRANCH   4   8
ENDBRANCH   1   2
BRANCH   1  16
HETATM   16  N   UNL     1      43.508 -13.420   5.868  1.00  0.00    -0.351 N 
HETATM   17  C   UNL     1      43.295 -14.617   6.524  1.00  0.00     0.273 C 
HETATM   18  O   UNL     1      42.838 -14.676   7.662  1.00  0.00    -0.266 OA
HETATM   19  H   UNL     1      43.733 -13.495   4.879  1.00  0.00     0.163 HD
BRANCH  17  20
HETATM   20  C   UNL     1      43.626 -15.807   5.725  1.00  0.00     0.157 A 
HETATM   21  N   UNL     1      44.645 -16.629   6.056  1.00  0.00    -0.168 NA
HETATM   22  N   UNL     1      44.624 -17.567   5.090  1.00  0.00    -0.277 N 
HETATM   23  H   UNL     1      45.310 -18.313   5.129  1.00  0.00     0.189 HD
HETATM   24  C   UNL     1      43.659 -17.380   4.138  1.00  0.00     0.063 A 
HETATM   25  C   UNL     1      42.980 -16.234   4.527  1.00  0.00     0.029 A 
HETATM   26  C   UNL     1      43.335 -18.104   2.987  1.00  0.00     0.032 A 
HETATM   27  C   UNL     1      41.915 -15.771   3.731  1.00  0.00     0.023 A 
HETATM   28  C   UNL     1      41.563 -16.474   2.565  1.00  0.00    -0.061 A 
HETATM   29  C   UNL     1      42.275 -17.623   2.206  1.00  0.00     0.009 A 
HETATM   30  C   UNL     1      40.447 -15.955   1.704  1.00  0.00     0.048 C 
ENDBRANCH  17  20
ENDBRANCH   1  16
TORSDOF 6
ENDMDL
MODEL 3
REMARK VINA RESULT:      -8.6      2.250      3.633
REMARK  6 active torsions:
REMARK  status: ('A' for Active; 'I' for Inactive)
REMARK    1  A    between atoms: C_2  and  C_3 
REMARK    2  A    between atoms: C_3  and  N_4 
REMARK       I    between atoms: N_4  and  C_5 
REMARK    3  A    between atoms: C_5  and  C_6 
REMARK    4  A    between atoms: C_8  and  C_9 
REMARK    5  A    between atoms: C_9  and  N_10 
REMARK       I    between atoms: N_10  and  C_11 
REMARK    6  A    between atoms: C_11  and  C_12 
ROOT
HETATM    1  C   UNL     1      41.795 -13.038   3.647  1.00  0.00     0.161 C 
ENDROOT
BRANCH   1   2
HETATM    2  C   UNL     1      41.915 -11.920   4.645  1.00  0.00    -0.040 A 
HETATM    3  C   UNL     1      42.679 -12.094   5.807  1.00  0.00     0.026 A 
HETATM    4  C   UNL     1      42.883 -11.023   6.682  1.00  0.00     0.032 A 
HETATM    5  C   UNL     1      42.296  -9.779   6.432  1.00  0.00     0.017 A 
HETATM    6  C   UNL     1      41.504  -9.611   5.296  1.00  0.00     0.002 A 
HETATM    7  C   UNL     1      41.319 -10.672   4.406  1.00  0.00     0.009 A 
BRANCH   4   8
HETATM    8  C   UNL     1      43.773 -11.233   7.845  1.00  0.00     0.252 C 
HETATM    9  N   UNL     1      43.382 -10.578   8.993  1.00  0.00    -0.353 N 
HETATM   10  H   UNL     1      42.593  -9.948   8.929  1.00  0.00     0.163 HD
HETATM   11  O   UNL     1      44.801 -11.883   7.714  1.00  0.00    -0.268 OA
BRANCH   9  12
HETATM   12  C   UNL     1      44.207 -10.483  10.193  1.00  0.00     0.080 C 
HETATM   13  C   UNL     1      45.363  -9.500  10.006  1.00  0.00     0.032 C 
BRANCH  12  14
HETATM   14  C   UNL     1      43.399 -10.155  11.461  1.00  0.00     0.020 C 
HETATM   15  C   UNL     1      43.562  -8.710  11.915  1.00  0.00     0.007 C 
ENDBRANCH  12  14
ENDBRANCH   9  12
ENDBRANCH   4   8
ENDBRANCH   1   2
BRANCH   1  16
HETATM   16  N   UNL     1      42.047 -14.330   4.218  1.00  0.00    -0.351 N 
HETATM   17  C   UNL     1      42.984 -15.158   3.632  1.00  0.00     0.273 C 
HETATM   18  O   UNL     1      43.469 -14.933   2.527  1.00  0.00    -0.266 OA
HETATM   19  H   UNL     1      41.838 -14.523   5.194  1.00  0.00     0.163 HD
BRANCH  17  20
HETATM   20  C   UNL     1      43.376 -16.306   4.464  1.00  0.00     0.157 A 
HETATM   21  N   UNL     1      43.691 -16.167   5.771  1.00  0.00    -0.168 NA
HETATM   22  N   UNL     1      43.998 -17.419   6.159  1.00  0.00    -0.277 N 
HETATM   23  H   UNL     1      44.267 -17.571   7.125  1.00  0.00     0.189 HD
HETATM   24  C   UNL     1      43.921 -18.357   5.166  1.00  0.00     0.063 A 
HETATM   25  C   UNL     1      43.510 -17.661   4.038  1.00  0.00     0.029 A 
HETATM   26  C   UNL     1      44.179 -19.730   5.161  1.00  0.00     0.032 A 
HETATM   27  C   UNL     1      43.343 -18.362   2.828  1.00  0.00     0.023 A 
HETATM   28  C   UNL     1      43.595 -19.745   2.787  1.00  0.00    -0.061 A 
HETATM   29  C   UNL     1      44.012 -20.409   3.946  1.00  0.00     0.009 A 
HETATM   30  C   UNL     1      43.446 -20.479   1.486  1.00  0.00     0.048 C 
ENDBRANCH  17  20
ENDBRANCH   1  16
TORSDOF 6
ENDMDL
MODEL 4
REMARK VINA RESULT:      -8.6      1.982      2.949
REMARK  6 active torsions:
REMARK  status: ('A' for Active; 'I' for Inactive)
REMARK    1  A    between atoms: C_2  and  C_3 
REMARK    2  A    between atoms: C_3  and  N_4 
REMARK       I    between atoms: N_4  and  C_5 
REMARK    3  A    between atoms: C_5  and  C_6 
REMARK    4  A    between atoms: C_8  and  C_9 
REMARK    5  A    between atoms: C_9  and  N_10 
REMARK       I    between atoms: N_10  and  C_11 
REMARK    6  A    between atoms: C_11  and  C_12 
ROOT
HETATM    1  C   UNL     1      42.499 -12.262   5.463  1.00  0.00     0.161 C 
ENDROOT
BRANCH   1   2
HETATM    2  C   UNL     1      43.650 -11.688   6.240  1.00  0.00    -0.040 A 
HETATM    3  C   UNL     1      43.467 -11.276   7.567  1.00  0.00     0.026 A 
HETATM    4  C   UNL     1      44.559 -10.844   8.327  1.00  0.00     0.032 A 
HETATM    5  C   UNL     1      45.836 -10.781   7.764  1.00  0.00     0.017 A 
HETATM    6  C   UNL     1      46.018 -11.156   6.432  1.00  0.00     0.002 A 
HETATM    7  C   UNL     1      44.934 -11.612   5.678  1.00  0.00     0.009 A 
BRANCH   4   8
HETATM    8  C   UNL     1      44.327 -10.507   9.749  1.00  0.00     0.252 C 
HETATM    9  N   UNL     1      43.027 -10.165  10.054  1.00  0.00    -0.353 N 
HETATM   10  H   UNL     1      42.371 -10.085   9.288  1.00  0.00     0.163 HD
HETATM   11  O   UNL     1      45.270 -10.474  10.527  1.00  0.00    -0.268 OA
BRANCH   9  12
HETATM   12  C   UNL     1      42.614  -9.610  11.338  1.00  0.00     0.080 C 
HETATM   13  C   UNL     1      42.844 -10.598  12.480  1.00  0.00     0.032 C 
BRANCH  12  14
HETATM   14  C   UNL     1      43.259  -8.246  11.645  1.00  0.00     0.020 C 
HETATM   15  C   UNL     1      43.276  -7.917  13.132  1.00  0.00     0.007 C 
ENDBRANCH  12  14
ENDBRANCH   9  12
ENDBRANCH   4   8
ENDBRANCH   1   2
BRANCH   1  16
HETATM   16  N   UNL     1      42.908 -13.241   4.496  1.00  0.00    -0.351 N 
HETATM   17  C   UNL     1      42.864 -14.581   4.828  1.00  0.00     0.273 C 
HETATM   18  O   UNL     1      42.687 -14.973   5.978  1.00  0.00    -0.266 OA
HETATM   19  H   UNL     1      42.896 -13.034   3.501  1.00  0.00     0.163 HD
BRANCH  17  20
HETATM   20  C   UNL     1      43.007 -15.490   3.680  1.00  0.00     0.157 A 
HETATM   21  N   UNL     1      42.819 -15.071   2.410  1.00  0.00    -0.168 NA
HETATM   22  N   UNL     1      43.025 -16.181   1.675  1.00  0.00    -0.277 N 
HETATM   23  H   UNL     1      42.943 -16.112   0.667  1.00  0.00     0.189 HD
HETATM   24  C   UNL     1      43.312 -17.300   2.406  1.00  0.00     0.063 A 
HETATM   25  C   UNL     1      43.313 -16.882   3.729  1.00  0.00     0.029 A 
HETATM   26  C   UNL     1      43.561 -18.622   2.026  1.00  0.00     0.032 A 
HETATM   27  C   UNL     1      43.574 -17.826   4.742  1.00  0.00     0.023 A 
HETATM   28  C   UNL     1      43.827 -19.165   4.394  1.00  0.00    -0.061 A 
HETATM   29  C   UNL     1      43.813 -19.546   3.048  1.00  0.00     0.009 A 
HETATM   30  C   UNL     1      44.072 -20.171   5.481  1.00  0.00     0.048 C 
ENDBRANCH  17  20
ENDBRANCH   1  16
TORSDOF 6
ENDMDL
MODEL 5
REMARK VINA RESULT:      -8.3      1.922      2.558
REMARK  6 active torsions:
REMARK  status: ('A' for Active; 'I' for Inactive)
REMARK    1  A    between atoms: C_2  and  C_3 
REMARK    2  A    between atoms: C_3  and  N_4 
REMARK       I    between atoms: N_4  and  C_5 
REMARK    3  A    between atoms: C_5  and  C_6 
REMARK    4  A    between atoms: C_8  and  C_9 
REMARK    5  A    between atoms: C_9  and  N_10 
REMARK       I    between atoms: N_10  and  C_11 
REMARK    6  A    between atoms: C_11  and  C_12 
ROOT
HETATM    1  C   UNL     1      45.124 -12.073   6.500  1.00  0.00     0.161 C 
ENDROOT
BRANCH   1   2
HETATM    2  C   UNL     1      45.119 -11.053   7.604  1.00  0.00    -0.040 A 
HETATM    3  C   UNL     1      44.314 -11.244   8.735  1.00  0.00     0.026 A 
HETATM    4  C   UNL     1      44.389 -10.354   9.811  1.00  0.00     0.032 A 
HETATM    5  C   UNL     1      45.236  -9.244   9.757  1.00  0.00     0.017 A 
HETATM    6  C   UNL     1      46.013  -9.029   8.618  1.00  0.00     0.002 A 
HETATM    7  C   UNL     1      45.960  -9.930   7.552  1.00  0.00     0.009 A 
BRANCH   4   8
HETATM    8  C   UNL     1      43.586 -10.651  11.018  1.00  0.00     0.252 C 
HETATM    9  N   UNL     1      42.461  -9.869  11.166  1.00  0.00    -0.353 N 
HETATM   10  H   UNL     1      42.326  -9.112  10.508  1.00  0.00     0.163 HD
HETATM   11  O   UNL     1      43.983 -11.482  11.823  1.00  0.00    -0.268 OA
BRANCH   9  12
HETATM   12  C   UNL     1      41.639  -9.851  12.371  1.00  0.00     0.080 C 
HETATM   13  C   UNL     1      42.207  -8.904  13.427  1.00  0.00     0.032 C 
BRANCH  12  14
HETATM   14  C   UNL     1      40.157  -9.546  12.091  1.00  0.00     0.020 C 
HETATM   15  C   UNL     1      39.603  -8.429  12.965  1.00  0.00     0.007 C 
ENDBRANCH  12  14
ENDBRANCH   9  12
ENDBRANCH   4   8
ENDBRANCH   1   2
BRANCH   1  16
HETATM   16  N   UNL     1      43.812 -12.355   5.991  1.00  0.00    -0.351 N 
HETATM   17  C   UNL     1      43.515 -12.048   4.678  1.00  0.00     0.273 C 
HETATM   18  O   UNL     1      44.250 -11.360   3.975  1.00  0.00    -0.266 OA
HETATM   19  H   UNL     1      43.221 -13.060   6.423  1.00  0.00     0.163 HD
BRANCH  17  20
HETATM   20  C   UNL     1      42.267 -12.653   4.187  1.00  0.00     0.157 A 
HETATM   21  N   UNL     1      41.078 -12.017   4.286  1.00  0.00    -0.168 NA
HETATM   22  N   UNL     1      40.206 -12.890   3.748  1.00  0.00    -0.277 N 
HETATM   23  H   UNL     1      39.227 -12.627   3.704  1.00  0.00     0.189 HD
HETATM   24  C   UNL     1      40.764 -14.066   3.327  1.00  0.00     0.063 A 
HETATM   25  C   UNL     1      42.120 -13.943   3.597  1.00  0.00     0.029 A 
HETATM   26  C   UNL     1      40.203 -15.208   2.750  1.00  0.00     0.032 A 
HETATM   27  C   UNL     1      42.977 -15.014   3.278  1.00  0.00     0.023 A 
HETATM   28  C   UNL     1      42.447 -16.179   2.697  1.00  0.00    -0.061 A 
HETATM   29  C   UNL     1      41.073 -16.265   2.445  1.00  0.00     0.009 A 
HETATM   30  C   UNL     1      43.362 -17.328   2.390  1.00  0.00     0.048 C 
ENDBRANCH  17  20
ENDBRANCH   1  16
TORSDOF 6
ENDMDL
MODEL 6
REMARK VINA RESULT:      -8.3      2.343      9.554
REMARK  6 active torsions:
REMARK  status: ('A' for Active; 'I' for Inactive)
REMARK    1  A    between atoms: C_2  and  C_3 
REMARK    2  A    between atoms: C_3  and  N_4 
REMARK       I    between atoms: N_4  and  C_5 
REMARK    3  A    between atoms: C_5  and  C_6 
REMARK    4  A    between atoms: C_8  and  C_9 
REMARK    5  A    between atoms: C_9  and  N_10 
REMARK       I    between atoms: N_10  and  C_11 
REMARK    6  A    between atoms: C_11  and  C_12 
ROOT
HETATM    1  C   UNL     1      43.628 -11.623   6.415  1.00  0.00     0.161 C 
ENDROOT
BRANCH   1   2
HETATM    2  C   UNL     1      42.712 -12.630   5.777  1.00  0.00    -0.040 A 
HETATM    3  C   UNL     1      43.216 -13.551   4.849  1.00  0.00     0.026 A 
HETATM    4  C   UNL     1      42.392 -14.557   4.337  1.00  0.00     0.032 A 
HETATM    5  C   UNL     1      41.047 -14.633   4.710  1.00  0.00     0.017 A 
HETATM    6  C   UNL     1      40.530 -13.696   5.605  1.00  0.00     0.002 A 
HETATM    7  C   UNL     1      41.358 -12.705   6.139  1.00  0.00     0.009 A 
BRANCH   4   8
HETATM    8  C   UNL     1      42.997 -15.560   3.432  1.00  0.00     0.252 C 
HETATM    9  N   UNL     1      43.044 -16.840   3.941  1.00  0.00    -0.353 N 
HETATM   10  H   UNL     1      42.755 -16.973   4.902  1.00  0.00     0.163 HD
HETATM   11  O   UNL     1      43.471 -15.205   2.362  1.00  0.00    -0.268 OA
BRANCH   9  12
HETATM   12  C   UNL     1      43.769 -17.937   3.311  1.00  0.00     0.080 C 
HETATM   13  C   UNL     1      44.359 -18.892   4.348  1.00  0.00     0.032 C 
BRANCH  12  14
HETATM   14  C   UNL     1      42.934 -18.698   2.266  1.00  0.00     0.020 C 
HETATM   15  C   UNL     1      43.323 -20.165   2.145  1.00  0.00     0.007 C 
ENDBRANCH  12  14
ENDBRANCH   9  12
ENDBRANCH   4   8
ENDBRANCH   1   2
BRANCH   1  16
HETATM   16  N   UNL     1      43.432 -11.506   7.833  1.00  0.00    -0.351 N 
HETATM   17  C   UNL     1      44.371 -10.837   8.593  1.00  0.00     0.273 C 
HETATM   18  O   UNL     1      45.469 -10.509   8.153  1.00  0.00    -0.266 OA
HETATM   19  H   UNL     1      42.506 -11.582   8.243  1.00  0.00     0.163 HD
BRANCH  17  20
HETATM   20  C   UNL     1      43.921 -10.517   9.957  1.00  0.00     0.157 A 
HETATM   21  N   UNL     1      43.849 -11.457  10.924  1.00  0.00    -0.168 NA
HETATM   22  N   UNL     1      43.392 -10.778  11.993  1.00  0.00    -0.277 N 
HETATM   23  H   UNL     1      43.259 -11.284  12.862  1.00  0.00     0.189 HD
HETATM   24  C   UNL     1      43.143  -9.453  11.762  1.00  0.00     0.063 A 
HETATM   25  C   UNL     1      43.485  -9.245  10.433  1.00  0.00     0.029 A 
HETATM   26  C   UNL     1      42.651  -8.440  12.589  1.00  0.00     0.032 A 
HETATM   27  C   UNL     1      43.330  -7.957   9.884  1.00  0.00     0.023 A 
HETATM   28  C   UNL     1      42.836  -6.915  10.687  1.00  0.00    -0.061 A 
HETATM   29  C   UNL     1      42.499  -7.167  12.022  1.00  0.00     0.009 A 
HETATM   30  C   UNL     1      42.643  -5.553  10.086  1.00  0.00     0.048 C 
ENDBRANCH  17  20
ENDBRANCH   1  16
TORSDOF 6
ENDMDL
MODEL 7
REMARK VINA RESULT:      -8.3      2.559      3.451
REMARK  6 active torsions:
REMARK  status: ('A' for Active; 'I' for Inactive)
REMARK    1  A    between atoms: C_2  and  C_3 
REMARK    2  A    between atoms: C_3  and  N_4 
REMARK       I    between atoms: N_4  and  C_5 
REMARK    3  A    between atoms: C_5  and  C_6 
REMARK    4  A    between atoms: C_8  and  C_9 
REMARK    5  A    between atoms: C_9  and  N_10 
REMARK       I    between atoms: N_10  and  C_11 
REMARK    6  A    between atoms: C_11  and  C_12 
ROOT
HETATM    1  C   UNL     1      41.980 -10.810   5.035  1.00  0.00     0.161 C 
ENDROOT
BRANCH   1   2
HETATM    2  C   UNL     1      43.207 -10.912   5.896  1.00  0.00    -0.040 A 
HETATM    3  C   UNL     1      43.143 -10.578   7.255  1.00  0.00     0.026 A 
HETATM    4  C   UNL     1      44.253 -10.776   8.083  1.00  0.00     0.032 A 
HETATM    5  C   UNL     1      45.450 -11.271   7.558  1.00  0.00     0.017 A 
HETATM    6  C   UNL     1      45.532 -11.571   6.198  1.00  0.00     0.002 A 
HETATM    7  C   UNL     1      44.417 -11.398   5.374  1.00  0.00     0.009 A 
BRANCH   4   8
HETATM    8  C   UNL     1      44.104 -10.494   9.528  1.00  0.00     0.252 C 
HETATM    9  N   UNL     1      42.843 -10.086   9.906  1.00  0.00    -0.353 N 
HETATM   10  H   UNL     1      42.162  -9.927   9.175  1.00  0.00     0.163 HD
HETATM   11  O   UNL     1      45.079 -10.558  10.263  1.00  0.00    -0.268 OA
BRANCH   9  12
HETATM   12  C   UNL     1      42.522  -9.568  11.231  1.00  0.00     0.080 C 
HETATM   13  C   UNL     1      42.838 -10.585  12.326  1.00  0.00     0.032 C 
BRANCH  12  14
HETATM   14  C   UNL     1      43.182  -8.209  11.529  1.00  0.00     0.020 C 
HETATM   15  C   UNL     1      43.325  -7.929  13.019  1.00  0.00     0.007 C 
ENDBRANCH  12  14
ENDBRANCH   9  12
ENDBRANCH   4   8
ENDBRANCH   1   2
BRANCH   1  16
HETATM   16  N   UNL     1      41.756 -11.981   4.236  1.00  0.00    -0.351 N 
HETATM   17  C   UNL     1      42.215 -12.010   2.934  1.00  0.00     0.273 C 
HETATM   18  O   UNL     1      42.627 -11.010   2.353  1.00  0.00    -0.266 OA
HETATM   19  H   UNL     1      41.594 -12.887   4.666  1.00  0.00     0.163 HD
BRANCH  17  20
HETATM   20  C   UNL     1      42.203 -13.348   2.323  1.00  0.00     0.157 A 
HETATM   21  N   UNL     1      41.707 -13.565   1.085  1.00  0.00    -0.168 NA
HETATM   22  N   UNL     1      41.865 -14.890   0.906  1.00  0.00    -0.277 N 
HETATM   23  H   UNL     1      41.564 -15.295   0.026  1.00  0.00     0.189 HD
HETATM   24  C   UNL     1      42.417 -15.546   1.972  1.00  0.00     0.063 A 
HETATM   25  C   UNL     1      42.656 -14.562   2.921  1.00  0.00     0.029 A 
HETATM   26  C   UNL     1      42.714 -16.895   2.183  1.00  0.00     0.032 A 
HETATM   27  C   UNL     1      43.223 -14.931   4.156  1.00  0.00     0.023 A 
HETATM   28  C   UNL     1      43.533 -16.280   4.402  1.00  0.00    -0.061 A 
HETATM   29  C   UNL     1      43.273 -17.242   3.420  1.00  0.00     0.009 A 
HETATM   30  C   UNL     1      44.107 -16.670   5.734  1.00  0.00     0.048 C 
ENDBRANCH  17  20
ENDBRANCH   1  16
TORSDOF 6
ENDMDL
MODEL 8
REMARK VINA RESULT:      -8.2      6.815      9.989
REMARK  6 active torsions:
REMARK  status: ('A' for Active; 'I' for Inactive)
REMARK    1  A    between atoms: C_2  and  C_3 
REMARK    2  A    between atoms: C_3  and  N_4 
REMARK       I    between atoms: N_4  and  C_5 
REMARK    3  A    between atoms: C_5  and  C_6 
REMARK    4  A    between atoms: C_8  and  C_9 
REMARK    5  A    between atoms: C_9  and  N_10 
REMARK       I    between atoms: N_10  and  C_11 
REMARK    6  A    between atoms: C_11  and  C_12 
ROOT
HETATM    1  C   UNL     1      41.163 -13.340   2.306  1.00  0.00     0.161 C 
ENDROOT
BRANCH   1   2
HETATM    2  C   UNL     1      40.630 -13.620   0.929  1.00  0.00    -0.040 A 
HETATM    3  C   UNL     1      40.832 -12.696  -0.105  1.00  0.00     0.026 A 
HETATM    4  C   UNL     1      40.434 -13.001  -1.410  1.00  0.00     0.032 A 
HETATM    5  C   UNL     1      39.794 -14.211  -1.693  1.00  0.00     0.017 A 
HETATM    6  C   UNL     1      39.557 -15.119  -0.661  1.00  0.00     0.002 A 
HETATM    7  C   UNL     1      39.977 -14.828   0.640  1.00  0.00     0.009 A 
BRANCH   4   8
HETATM    8  C   UNL     1      40.753 -12.031  -2.481  1.00  0.00     0.252 C 
HETATM    9  N   UNL     1      40.222 -10.773  -2.293  1.00  0.00    -0.353 N 
HETATM   10  H   UNL     1      39.597 -10.640  -1.508  1.00  0.00     0.163 HD
HETATM   11  O   UNL     1      41.376 -12.397  -3.467  1.00  0.00    -0.268 OA
BRANCH   9  12
HETATM   12  C   UNL     1      40.241  -9.725  -3.307  1.00  0.00     0.080 C 
HETATM   13  C   UNL     1      38.864  -9.085  -3.483  1.00  0.00     0.032 C 
BRANCH  12  14
HETATM   14  C   UNL     1      41.322  -8.658  -3.059  1.00  0.00     0.020 C 
HETATM   15  C   UNL     1      41.784  -7.969  -4.336  1.00  0.00     0.007 C 
ENDBRANCH  12  14
ENDBRANCH   9  12
ENDBRANCH   4   8
ENDBRANCH   1   2
BRANCH   1  16
HETATM   16  N   UNL     1      41.561 -14.529   3.006  1.00  0.00    -0.351 N 
HETATM   17  C   UNL     1      42.865 -14.972   2.901  1.00  0.00     0.273 C 
HETATM   18  O   UNL     1      43.655 -14.518   2.077  1.00  0.00    -0.266 OA
HETATM   19  H   UNL     1      41.050 -14.855   3.822  1.00  0.00     0.163 HD
BRANCH  17  20
HETATM   20  C   UNL     1      43.231 -16.001   3.886  1.00  0.00     0.157 A 
HETATM   21  N   UNL     1      43.474 -15.697   5.180  1.00  0.00    -0.168 NA
HETATM   22  N   UNL     1      43.781 -16.886   5.733  1.00  0.00    -0.277 N 
HETATM   23  H   UNL     1      44.001 -16.912   6.723  1.00  0.00     0.189 HD
HETATM   24  C   UNL     1      43.772 -17.938   4.860  1.00  0.00     0.063 A 
HETATM   25  C   UNL     1      43.410 -17.394   3.636  1.00  0.00     0.029 A 
HETATM   26  C   UNL     1      44.052 -19.296   5.036  1.00  0.00     0.032 A 
HETATM   27  C   UNL     1      43.319 -18.241   2.514  1.00  0.00     0.023 A 
HETATM   28  C   UNL     1      43.595 -19.612   2.656  1.00  0.00    -0.061 A 
HETATM   29  C   UNL     1      43.961 -20.121   3.907  1.00  0.00     0.009 A 
HETATM   30  C   UNL     1      43.527 -20.502   1.449  1.00  0.00     0.048 C 
ENDBRANCH  17  20
ENDBRANCH   1  16
TORSDOF 6
ENDMDL
MODEL 9
REMARK VINA RESULT:      -8.1      5.968      9.132
REMARK  6 active torsions:
REMARK  status: ('A' for Active; 'I' for Inactive)
REMARK    1  A    between atoms: C_2  and  C_3 
REMARK    2  A    between atoms: C_3  and  N_4 
REMARK       I    between atoms: N_4  and  C_5 
REMARK    3  A    between atoms: C_5  and  C_6 
REMARK    4  A    between atoms: C_8  and  C_9 
REMARK    5  A    between atoms: C_9  and  N_10 
REMARK       I    between atoms: N_10  and  C_11 
REMARK    6  A    between atoms: C_11  and  C_12 
ROOT
HETATM    1  C   UNL     1      42.970 -14.336   3.071  1.00  0.00     0.161 C 
ENDROOT
BRANCH   1   2
HETATM    2  C   UNL     1      41.806 -14.635   2.167  1.00  0.00    -0.040 A 
HETATM    3  C   UNL     1      41.400 -13.697   1.209  1.00  0.00     0.026 A 
HETATM    4  C   UNL     1      40.390 -14.016   0.296  1.00  0.00     0.032 A 
HETATM    5  C   UNL     1      39.747 -15.255   0.352  1.00  0.00     0.017 A 
HETATM    6  C   UNL     1      40.122 -16.179   1.328  1.00  0.00     0.002 A 
HETATM    7  C   UNL     1      41.149 -15.874   2.225  1.00  0.00     0.009 A 
BRANCH   4   8
HETATM    8  C   UNL     1      40.062 -13.026  -0.754  1.00  0.00     0.252 C 
HETATM    9  N   UNL     1      38.724 -12.954  -1.078  1.00  0.00    -0.353 N 
HETATM   10  H   UNL     1      38.101 -13.629  -0.652  1.00  0.00     0.163 HD
HETATM   11  O   UNL     1      40.960 -12.407  -1.308  1.00  0.00    -0.268 OA
BRANCH   9  12
HETATM   12  C   UNL     1      38.204 -12.199  -2.212  1.00  0.00     0.080 C 
HETATM   13  C   UNL     1      36.920 -12.819  -2.761  1.00  0.00     0.032 C 
BRANCH  12  14
HETATM   14  C   UNL     1      38.013 -10.702  -1.909  1.00  0.00     0.020 C 
HETATM   15  C   UNL     1      36.900 -10.435  -0.903  1.00  0.00     0.007 C 
ENDBRANCH  12  14
ENDBRANCH   9  12
ENDBRANCH   4   8
ENDBRANCH   1   2
BRANCH   1  16
HETATM   16  N   UNL     1      43.396 -15.474   3.834  1.00  0.00    -0.351 N 
HETATM   17  C   UNL     1      42.961 -15.618   5.136  1.00  0.00     0.273 C 
HETATM   18  O   UNL     1      42.392 -14.718   5.748  1.00  0.00    -0.266 OA
HETATM   19  H   UNL     1      43.704 -16.328   3.376  1.00  0.00     0.163 HD
BRANCH  17  20
HETATM   20  C   UNL     1      43.204 -16.952   5.707  1.00  0.00     0.157 A 
HETATM   21  N   UNL     1      43.273 -17.156   7.041  1.00  0.00    -0.168 NA
HETATM   22  N   UNL     1      43.515 -18.477   7.147  1.00  0.00    -0.277 N 
HETATM   23  H   UNL     1      43.603 -18.875   8.076  1.00  0.00     0.189 HD
HETATM   24  C   UNL     1      43.629 -19.132   5.952  1.00  0.00     0.063 A 
HETATM   25  C   UNL     1      43.426 -18.160   4.983  1.00  0.00     0.029 A 
HETATM   26  C   UNL     1      43.896 -20.469   5.646  1.00  0.00     0.032 A 
HETATM   27  C   UNL     1      43.490 -18.529   3.625  1.00  0.00     0.023 A 
HETATM   28  C   UNL     1      43.757 -19.866   3.281  1.00  0.00    -0.061 A 
HETATM   29  C   UNL     1      43.960 -20.815   4.289  1.00  0.00     0.009 A 
HETATM   30  C   UNL     1      43.856 -20.245   1.831  1.00  0.00     0.048 C 
ENDBRANCH  17  20
ENDBRANCH   1  16
TORSDOF 6
ENDMDL
MODEL 10
REMARK VINA RESULT:      -8.0      3.150      9.599
REMARK  6 active torsions:
REMARK  status: ('A' for Active; 'I' for Inactive)
REMARK    1  A    between atoms: C_2  and  C_3 
REMARK    2  A    between atoms: C_3  and  N_4 
REMARK       I    between atoms: N_4  and  C_5 
REMARK    3  A    between atoms: C_5  and  C_6 
REMARK    4  A    between atoms: C_8  and  C_9 
REMARK    5  A    between atoms: C_9  and  N_10 
REMARK       I    between atoms: N_10  and  C_11 
REMARK    6  A    between atoms: C_11  and  C_12 
ROOT
HETATM    1  C   UNL     1      42.177 -14.319   5.545  1.00  0.00     0.161 C 
ENDROOT
BRANCH   1   2
HETATM    2  C   UNL     1      42.278 -15.052   4.236  1.00  0.00    -0.040 A 
HETATM    3  C   UNL     1      41.452 -14.694   3.163  1.00  0.00     0.026 A 
HETATM    4  C   UNL     1      41.618 -15.299   1.914  1.00  0.00     0.032 A 
HETATM    5  C   UNL     1      42.581 -16.295   1.729  1.00  0.00     0.017 A 
HETATM    6  C   UNL     1      43.382 -16.682   2.804  1.00  0.00     0.002 A 
HETATM    7  C   UNL     1      43.236 -16.061   4.047  1.00  0.00     0.009 A 
BRANCH   4   8
HETATM    8  C   UNL     1      40.782 -14.820   0.791  1.00  0.00     0.252 C 
HETATM    9  N   UNL     1      41.138 -13.583   0.296  1.00  0.00    -0.353 N 
HETATM   10  H   UNL     1      41.863 -13.073   0.785  1.00  0.00     0.163 HD
HETATM   11  O   UNL     1      39.817 -15.477   0.428  1.00  0.00    -0.268 OA
BRANCH   9  12
HETATM   12  C   UNL     1      40.339 -12.835  -0.668  1.00  0.00     0.080 C 
HETATM   13  C   UNL     1      39.212 -12.060   0.015  1.00  0.00     0.032 C 
BRANCH  12  14
HETATM   14  C   UNL     1      41.180 -11.913  -1.569  1.00  0.00     0.020 C 
HETATM   15  C   UNL     1      41.106 -12.292  -3.043  1.00  0.00     0.007 C 
ENDBRANCH  12  14
ENDBRANCH   9  12
ENDBRANCH   4   8
ENDBRANCH   1   2
BRANCH   1  16
HETATM   16  N   UNL     1      43.297 -13.456   5.792  1.00  0.00    -0.351 N 
HETATM   17  C   UNL     1      43.073 -12.134   6.123  1.00  0.00     0.273 C 
HETATM   18  O   UNL     1      41.971 -11.602   6.019  1.00  0.00    -0.266 OA
HETATM   19  H   UNL     1      44.199 -13.832   6.070  1.00  0.00     0.163 HD
BRANCH  17  20
HETATM   20  C   UNL     1      44.258 -11.437   6.647  1.00  0.00     0.157 A 
HETATM   21  N   UNL     1      45.391 -11.311   5.923  1.00  0.00    -0.168 NA
HETATM   22  N   UNL     1      46.220 -10.638   6.744  1.00  0.00    -0.277 N 
HETATM   23  H   UNL     1      47.151 -10.416   6.410  1.00  0.00     0.189 HD
HETATM   24  C   UNL     1      45.689 -10.343   7.970  1.00  0.00     0.063 A 
HETATM   25  C   UNL     1      44.398 -10.850   7.940  1.00  0.00     0.029 A 
HETATM   26  C   UNL     1      46.226  -9.693   9.084  1.00  0.00     0.032 A 
HETATM   27  C   UNL     1      43.584 -10.707   9.080  1.00  0.00     0.023 A 
HETATM   28  C   UNL     1      44.092 -10.058  10.219  1.00  0.00    -0.061 A 
HETATM   29  C   UNL     1      45.401  -9.565  10.210  1.00  0.00     0.009 A 
HETATM   30  C   UNL     1      43.229  -9.939  11.442  1.00  0.00     0.048 C 
ENDBRANCH  17  20
ENDBRANCH   1  16
TORSDOF 6
ENDMDL
