MODEL 1
REMARK VINA RESULT:      -9.2      0.000      0.000
REMARK  8 active torsions:
REMARK  status: ('A' for Active; 'I' for Inactive)
REMARK    1  A    between atoms: C_2  and  O_3 
REMARK    2  A    between atoms: O_3  and  C_4 
REMARK    3  A    between atoms: C_4  and  C_5 
REMARK    4  A    between atoms: C_6  and  N_7 
REMARK       I    between atoms: N_7  and  C_8 
REMARK    5  A    between atoms: C_8  and  C_9 
REMARK    6  A    between atoms: C_9  and  S_10 
REMARK    7  A    between atoms: S_10  and  C_11 
REMARK    8  A    between atoms: N_18  and  C_19 
ROOT
HETATM    1  C   UNL     1      39.661 -10.785   6.963  1.00  0.00     0.185 C 
ENDROOT
BRANCH   1   2
HETATM    2  C   UNL     1      40.042 -11.588   5.728  1.00  0.00     0.232 C 
HETATM    3  N   UNL     1      41.215 -12.310   5.898  1.00  0.00    -0.320 N 
HETATM    4  H   UNL     1      41.775 -12.137   6.733  1.00  0.00     0.169 HD
HETATM    5  O   UNL     1      39.318 -11.576   4.737  1.00  0.00    -0.272 OA
BRANCH   3   6
HETATM    6  C   UNL     1      41.731 -13.283   5.050  1.00  0.00     0.094 A 
HETATM    7  C   UNL     1      41.624 -14.662   5.216  1.00  0.00     0.080 A 
HETATM    8  C   UNL     1      42.268 -15.365   4.117  1.00  0.00    -0.026 A 
HETATM    9  C   UNL     1      42.757 -14.480   3.174  1.00  0.00    -0.008 A 
HETATM   10  C   UNL     1      42.360 -16.853   3.904  1.00  0.00     0.041 C 
HETATM   11  S   UNL     1      42.546 -12.863   3.622  1.00  0.00    -0.075 SA
HETATM   12  C   UNL     1      43.421 -14.855   1.886  1.00  0.00     0.047 C 
HETATM   13  C   UNL     1      43.093 -16.310   1.526  1.00  0.00     0.005 C 
HETATM   14  C   UNL     1      43.285 -17.232   2.736  1.00  0.00     0.005 C 
BRANCH   7  15
HETATM   15  C   UNL     1      40.909 -15.244   6.358  1.00  0.00     0.296 C 
HETATM   16  O   UNL     1      39.763 -14.920   6.654  1.00  0.00    -0.259 OA
BRANCH  15  17
HETATM   17  O   UNL     1      41.639 -16.176   7.030  1.00  0.00    -0.318 OA
BRANCH  17  18
HETATM   18  C   UNL     1      42.811 -15.691   7.697  1.00  0.00     0.174 C 
HETATM   19  C   UNL     1      43.955 -16.630   7.368  1.00  0.00     0.034 C 
ENDBRANCH  17  18
ENDBRANCH  15  17
ENDBRANCH   7  15
ENDBRANCH   3   6
ENDBRANCH   1   2
BRANCH   1  20
HETATM   20  S   UNL     1      40.415  -9.133   6.914  1.00  0.00    -0.083 SA
BRANCH  20  21
HETATM   21  C   UNL     1      41.865  -9.481   7.791  1.00  0.00     0.171 A 
HETATM   22  N   UNL     1      41.970  -9.234   9.060  1.00  0.00    -0.204 NA
HETATM   23  C   UNL     1      43.201  -9.540   9.563  1.00  0.00     0.171 A 
HETATM   24  C   UNL     1      44.274 -10.008   8.840  1.00  0.00     0.099 A 
HETATM   25  N   UNL     1      43.644  -9.423  10.879  1.00  0.00    -0.215 N 
HETATM   26  C   UNL     1      44.118 -10.283   7.441  1.00  0.00     0.263 A 
HETATM   27  C   UNL     1      45.341 -10.070   9.731  1.00  0.00     0.160 A 
HETATM   28  O   UNL     1      45.012 -10.701   6.717  1.00  0.00    -0.267 OA
HETATM   29  N   UNL     1      42.847 -10.006   6.989  1.00  0.00    -0.301 N 
HETATM   30  H   UNL     1      42.656 -10.166   6.012  1.00  0.00     0.171 HD
HETATM   31  N   UNL     1      44.990  -9.675  10.958  1.00  0.00    -0.177 NA
BRANCH  25  32
HETATM   32  C   UNL     1      42.907  -9.126  12.063  1.00  0.00     0.060 A 
HETATM   33  C   UNL     1      41.783  -9.876  12.439  1.00  0.00     0.034 A 
HETATM   34  C   UNL     1      41.110  -9.581  13.629  1.00  0.00     0.044 A 
HETATM   35  C   UNL     1      41.552  -8.538  14.433  1.00  0.00     0.116 A 
HETATM   36  F   UNL     1      40.896  -8.253  15.565  1.00  0.00    -0.206 F 
HETATM   37  C   UNL     1      42.661  -7.782  14.076  1.00  0.00     0.044 A 
HETATM   38  C   UNL     1      43.345  -8.079  12.895  1.00  0.00     0.034 A 
ENDBRANCH  25  32
ENDBRANCH  20  21
ENDBRANCH   1  20
TORSDOF 8
ENDMDL
MODEL 2
REMARK VINA RESULT:      -9.2      5.088      8.641
REMARK  8 active torsions:
REMARK  status: ('A' for Active; 'I' for Inactive)
REMARK    1  A    between atoms: C_2  and  O_3 
REMARK    2  A    between atoms: O_3  and  C_4 
REMARK    3  A    between atoms: C_4  and  C_5 
REMARK    4  A    between atoms: C_6  and  N_7 
REMARK       I    between atoms: N_7  and  C_8 
REMARK    5  A    between atoms: C_8  and  C_9 
REMARK    6  A    between atoms: C_9  and  S_10 
REMARK    7  A    between atoms: S_10  and  C_11 
REMARK    8  A    between atoms: N_18  and  C_19 
ROOT
HETATM    1  C   UNL     1      39.026 -10.162   4.248  1.00  0.00     0.185 C 
ENDROOT
BRANCH   1   2
HETATM    2  C   UNL     1      39.771 -11.079   5.205  1.00  0.00     0.232 C 
HETATM    3  N   UNL     1      40.116 -12.293   4.628  1.00  0.00    -0.320 N 
HETATM    4  H   UNL     1      39.733 -12.519   3.710  1.00  0.00     0.169 HD
HETATM    5  O   UNL     1      40.036 -10.701   6.343  1.00  0.00    -0.272 OA
BRANCH   3   6
HETATM    6  C   UNL     1      40.960 -13.264   5.155  1.00  0.00     0.094 A 
HETATM    7  C   UNL     1      42.345 -13.319   5.013  1.00  0.00     0.080 A 
HETATM    8  C   UNL     1      42.890 -14.466   5.722  1.00  0.00    -0.026 A 
HETATM    9  C   UNL     1      41.900 -15.156   6.396  1.00  0.00    -0.008 A 
HETATM   10  C   UNL     1      44.335 -14.875   5.837  1.00  0.00     0.041 C 
HETATM   11  S   UNL     1      40.356 -14.522   6.121  1.00  0.00    -0.075 SA
HETATM   12  C   UNL     1      42.111 -16.348   7.277  1.00  0.00     0.047 C 
HETATM   13  C   UNL     1      43.582 -16.437   7.702  1.00  0.00     0.005 C 
HETATM   14  C   UNL     1      44.515 -16.250   6.499  1.00  0.00     0.005 C 
BRANCH   7  15
HETATM   15  C   UNL     1      43.080 -12.296   4.261  1.00  0.00     0.296 C 
HETATM   16  O   UNL     1      43.548 -12.505   3.145  1.00  0.00    -0.259 OA
BRANCH  15  17
HETATM   17  O   UNL     1      43.169 -11.108   4.918  1.00  0.00    -0.318 OA
BRANCH  17  18
HETATM   18  C   UNL     1      43.780 -11.153   6.213  1.00  0.00     0.174 C 
HETATM   19  C   UNL     1      45.279 -11.273   6.015  1.00  0.00     0.034 C 
ENDBRANCH  17  18
ENDBRANCH  15  17
ENDBRANCH   7  15
ENDBRANCH   3   6
ENDBRANCH   1   2
BRANCH   1  20
HETATM   20  S   UNL     1      40.123  -9.593   2.917  1.00  0.00    -0.083 SA
BRANCH  20  21
HETATM   21  C   UNL     1      39.763 -10.810   1.742  1.00  0.00     0.171 A 
HETATM   22  N   UNL     1      40.350 -11.967   1.758  1.00  0.00    -0.204 NA
HETATM   23  C   UNL     1      39.963 -12.776   0.730  1.00  0.00     0.171 A 
HETATM   24  C   UNL     1      39.092 -12.435  -0.280  1.00  0.00     0.099 A 
HETATM   25  N   UNL     1      40.373 -14.080   0.462  1.00  0.00    -0.215 N 
HETATM   26  C   UNL     1      38.452 -11.153  -0.258  1.00  0.00     0.263 A 
HETATM   27  C   UNL     1      39.082 -13.514  -1.159  1.00  0.00     0.160 A 
HETATM   28  O   UNL     1      37.664 -10.761  -1.109  1.00  0.00    -0.267 OA
HETATM   29  N   UNL     1      38.834 -10.391   0.823  1.00  0.00    -0.301 N 
HETATM   30  H   UNL     1      38.434  -9.470   0.909  1.00  0.00     0.171 HD
HETATM   31  N   UNL     1      39.886 -14.499  -0.751  1.00  0.00    -0.177 NA
BRANCH  25  32
HETATM   32  C   UNL     1      41.153 -14.969   1.259  1.00  0.00     0.060 A 
HETATM   33  C   UNL     1      42.547 -15.051   1.120  1.00  0.00     0.034 A 
HETATM   34  C   UNL     1      43.284 -15.905   1.947  1.00  0.00     0.044 A 
HETATM   35  C   UNL     1      42.632 -16.678   2.899  1.00  0.00     0.116 A 
HETATM   36  F   UNL     1      43.342 -17.502   3.680  1.00  0.00    -0.206 F 
HETATM   37  C   UNL     1      41.252 -16.613   3.049  1.00  0.00     0.044 A 
HETATM   38  C   UNL     1      40.511 -15.754   2.235  1.00  0.00     0.034 A 
ENDBRANCH  25  32
ENDBRANCH  20  21
ENDBRANCH   1  20
TORSDOF 8
ENDMDL
MODEL 3
REMARK VINA RESULT:      -9.2      3.652      9.749
REMARK  8 active torsions:
REMARK  status: ('A' for Active; 'I' for Inactive)
REMARK    1  A    between atoms: C_2  and  O_3 
REMARK    2  A    between atoms: O_3  and  C_4 
REMARK    3  A    between atoms: C_4  and  C_5 
REMARK    4  A    between atoms: C_6  and  N_7 
REMARK       I    between atoms: N_7  and  C_8 
REMARK    5  A    between atoms: C_8  and  C_9 
REMARK    6  A    between atoms: C_9  and  S_10 
REMARK    7  A    between atoms: S_10  and  C_11 
REMARK    8  A    between atoms: N_18  and  C_19 
ROOT
HETATM    1  C   UNL     1      40.964 -10.314   5.842  1.00  0.00     0.185 C 
ENDROOT
BRANCH   1   2
HETATM    2  C   UNL     1      41.209  -9.275   6.926  1.00  0.00     0.232 C 
HETATM    3  N   UNL     1      41.018  -9.779   8.204  1.00  0.00    -0.320 N 
HETATM    4  H   UNL     1      40.607 -10.707   8.304  1.00  0.00     0.169 HD
HETATM    5  O   UNL     1      41.570  -8.141   6.624  1.00  0.00    -0.272 OA
BRANCH   3   6
HETATM    6  C   UNL     1      41.342  -9.160   9.407  1.00  0.00     0.094 A 
HETATM    7  C   UNL     1      42.514  -9.344  10.139  1.00  0.00     0.080 A 
HETATM    8  C   UNL     1      42.511  -8.512  11.332  1.00  0.00    -0.026 A 
HETATM    9  C   UNL     1      41.380  -7.719  11.388  1.00  0.00    -0.008 A 
HETATM   10  C   UNL     1      43.591  -8.396  12.376  1.00  0.00     0.041 C 
HETATM   11  S   UNL     1      40.306  -8.019  10.116  1.00  0.00    -0.075 SA
HETATM   12  C   UNL     1      41.080  -6.700  12.442  1.00  0.00     0.047 C 
HETATM   13  C   UNL     1      42.363  -6.319  13.191  1.00  0.00     0.005 C 
HETATM   14  C   UNL     1      43.155  -7.568  13.595  1.00  0.00     0.005 C 
BRANCH   7  15
HETATM   15  C   UNL     1      43.574 -10.248   9.677  1.00  0.00     0.296 C 
HETATM   16  O   UNL     1      43.958 -11.207  10.338  1.00  0.00    -0.259 OA
BRANCH  15  17
HETATM   17  O   UNL     1      44.063  -9.918   8.450  1.00  0.00    -0.318 OA
BRANCH  17  18
HETATM   18  C   UNL     1      45.362 -10.434   8.136  1.00  0.00     0.174 C 
HETATM   19  C   UNL     1      46.323  -9.262   8.071  1.00  0.00     0.034 C 
ENDBRANCH  17  18
ENDBRANCH  15  17
ENDBRANCH   7  15
ENDBRANCH   3   6
ENDBRANCH   1   2
BRANCH   1  20
HETATM   20  S   UNL     1      42.109 -11.714   6.023  1.00  0.00    -0.083 SA
BRANCH  20  21
HETATM   21  C   UNL     1      41.412 -12.775   4.848  1.00  0.00     0.171 A 
HETATM   22  N   UNL     1      41.926 -13.938   4.590  1.00  0.00    -0.204 NA
HETATM   23  C   UNL     1      41.260 -14.609   3.607  1.00  0.00     0.171 A 
HETATM   24  C   UNL     1      40.187 -14.132   2.889  1.00  0.00     0.099 A 
HETATM   25  N   UNL     1      41.527 -15.881   3.104  1.00  0.00    -0.215 N 
HETATM   26  C   UNL     1      39.636 -12.849   3.211  1.00  0.00     0.263 A 
HETATM   27  C   UNL     1      39.909 -15.099   1.927  1.00  0.00     0.160 A 
HETATM   28  O   UNL     1      38.685 -12.342   2.631  1.00  0.00    -0.267 OA
HETATM   29  N   UNL     1      40.309 -12.230   4.240  1.00  0.00    -0.301 N 
HETATM   30  H   UNL     1      39.988 -11.317   4.524  1.00  0.00     0.171 HD
HETATM   31  N   UNL     1      40.738 -16.141   2.011  1.00  0.00    -0.177 NA
BRANCH  25  32
HETATM   32  C   UNL     1      42.433 -16.875   3.578  1.00  0.00     0.060 A 
HETATM   33  C   UNL     1      42.716 -17.021   4.944  1.00  0.00     0.034 A 
HETATM   34  C   UNL     1      43.578 -18.034   5.377  1.00  0.00     0.044 A 
HETATM   35  C   UNL     1      44.159 -18.889   4.449  1.00  0.00     0.116 A 
HETATM   36  F   UNL     1      44.993 -19.850   4.867  1.00  0.00    -0.206 F 
HETATM   37  C   UNL     1      43.893 -18.758   3.092  1.00  0.00     0.044 A 
HETATM   38  C   UNL     1      43.024 -17.757   2.654  1.00  0.00     0.034 A 
ENDBRANCH  25  32
ENDBRANCH  20  21
ENDBRANCH   1  20
TORSDOF 8
ENDMDL
MODEL 4
REMARK VINA RESULT:      -9.1      2.133      3.092
REMARK  8 active torsions:
REMARK  status: ('A' for Active; 'I' for Inactive)
REMARK    1  A    between atoms: C_2  and  O_3 
REMARK    2  A    between atoms: O_3  and  C_4 
REMARK    3  A    between atoms: C_4  and  C_5 
REMARK    4  A    between atoms: C_6  and  N_7 
REMARK       I    between atoms: N_7  and  C_8 
REMARK    5  A    between atoms: C_8  and  C_9 
REMARK    6  A    between atoms: C_9  and  S_10 
REMARK    7  A    between atoms: S_10  and  C_11 
REMARK    8  A    between atoms: N_18  and  C_19 
ROOT
HETATM    1  C   UNL     1      40.781 -11.623   6.319  1.00  0.00     0.185 C 
ENDROOT
BRANCH   1   2
HETATM    2  C   UNL     1      40.792 -13.094   5.934  1.00  0.00     0.232 C 
HETATM    3  N   UNL     1      41.984 -13.486   5.342  1.00  0.00    -0.320 N 
HETATM    4  H   UNL     1      42.659 -12.765   5.089  1.00  0.00     0.169 HD
HETATM    5  O   UNL     1      39.823 -13.806   6.188  1.00  0.00    -0.272 OA
BRANCH   3   6
HETATM    6  C   UNL     1      42.392 -14.784   5.054  1.00  0.00     0.094 A 
HETATM    7  C   UNL     1      42.635 -15.309   3.787  1.00  0.00     0.080 A 
HETATM    8  C   UNL     1      43.069 -16.694   3.879  1.00  0.00    -0.026 A 
HETATM    9  C   UNL     1      43.183 -17.098   5.196  1.00  0.00    -0.008 A 
HETATM   10  C   UNL     1      43.451 -17.616   2.750  1.00  0.00     0.041 C 
HETATM   11  S   UNL     1      42.699 -15.904   6.291  1.00  0.00    -0.075 SA
HETATM   12  C   UNL     1      43.664 -18.437   5.660  1.00  0.00     0.047 C 
HETATM   13  C   UNL     1      44.434 -19.141   4.537  1.00  0.00     0.005 C 
HETATM   14  C   UNL     1      43.667 -19.066   3.212  1.00  0.00     0.005 C 
BRANCH   7  15
HETATM   15  C   UNL     1      42.484 -14.494   2.576  1.00  0.00     0.296 C 
HETATM   16  O   UNL     1      43.434 -14.197   1.857  1.00  0.00    -0.259 OA
BRANCH  15  17
HETATM   17  O   UNL     1      41.197 -14.123   2.336  1.00  0.00    -0.318 OA
BRANCH  17  18
HETATM   18  C   UNL     1      40.209 -15.147   2.506  1.00  0.00     0.174 C 
HETATM   19  C   UNL     1      39.917 -15.742   1.142  1.00  0.00     0.034 C 
ENDBRANCH  17  18
ENDBRANCH  15  17
ENDBRANCH   7  15
ENDBRANCH   3   6
ENDBRANCH   1   2
BRANCH   1  20
HETATM   20  S   UNL     1      42.178 -10.748   5.553  1.00  0.00    -0.083 SA
BRANCH  20  21
HETATM   21  C   UNL     1      43.135 -10.493   6.971  1.00  0.00     0.171 A 
HETATM   22  N   UNL     1      42.617 -10.040   8.071  1.00  0.00    -0.204 NA
HETATM   23  C   UNL     1      43.537  -9.869   9.063  1.00  0.00     0.171 A 
HETATM   24  C   UNL     1      44.892 -10.081   8.952  1.00  0.00     0.099 A 
HETATM   25  N   UNL     1      43.322  -9.425  10.366  1.00  0.00    -0.215 N 
HETATM   26  C   UNL     1      45.428 -10.596   7.726  1.00  0.00     0.263 A 
HETATM   27  C   UNL     1      45.446  -9.675  10.162  1.00  0.00     0.160 A 
HETATM   28  O   UNL     1      46.616 -10.818   7.532  1.00  0.00    -0.267 OA
HETATM   29  N   UNL     1      44.458 -10.799   6.771  1.00  0.00    -0.301 N 
HETATM   30  H   UNL     1      44.753 -11.154   5.875  1.00  0.00     0.171 HD
HETATM   31  N   UNL     1      44.517  -9.231  11.013  1.00  0.00    -0.177 NA
BRANCH  25  32
HETATM   32  C   UNL     1      42.096  -9.199  11.059  1.00  0.00     0.060 A 
HETATM   33  C   UNL     1      41.755  -9.927  12.209  1.00  0.00     0.034 A 
HETATM   34  C   UNL     1      40.564  -9.649  12.887  1.00  0.00     0.044 A 
HETATM   35  C   UNL     1      39.715  -8.657  12.412  1.00  0.00     0.116 A 
HETATM   36  F   UNL     1      38.569  -8.404  13.058  1.00  0.00    -0.206 F 
HETATM   37  C   UNL     1      40.033  -7.928  11.274  1.00  0.00     0.044 A 
HETATM   38  C   UNL     1      41.227  -8.192  10.600  1.00  0.00     0.034 A 
ENDBRANCH  25  32
ENDBRANCH  20  21
ENDBRANCH   1  20
TORSDOF 8
ENDMDL
MODEL 5
REMARK VINA RESULT:      -9.0      5.876      9.470
REMARK  8 active torsions:
REMARK  status: ('A' for Active; 'I' for Inactive)
REMARK    1  A    between atoms: C_2  and  O_3 
REMARK    2  A    between atoms: O_3  and  C_4 
REMARK    3  A    between atoms: C_4  and  C_5 
REMARK    4  A    between atoms: C_6  and  N_7 
REMARK       I    between atoms: N_7  and  C_8 
REMARK    5  A    between atoms: C_8  and  C_9 
REMARK    6  A    between atoms: C_9  and  S_10 
REMARK    7  A    between atoms: S_10  and  C_11 
REMARK    8  A    between atoms: N_18  and  C_19 
ROOT
HETATM    1  C   UNL     1      41.516 -12.440   4.037  1.00  0.00     0.185 C 
ENDROOT
BRANCH   1   2
HETATM    2  C   UNL     1      41.481 -13.955   3.905  1.00  0.00     0.232 C 
HETATM    3  N   UNL     1      42.737 -14.505   3.694  1.00  0.00    -0.320 N 
HETATM    4  H   UNL     1      43.517 -13.875   3.505  1.00  0.00     0.169 HD
HETATM    5  O   UNL     1      40.419 -14.561   4.021  1.00  0.00    -0.272 OA
BRANCH   3   6
HETATM    6  C   UNL     1      43.080 -15.852   3.724  1.00  0.00     0.094 A 
HETATM    7  C   UNL     1      43.278 -16.627   4.865  1.00  0.00     0.080 A 
HETATM    8  C   UNL     1      43.602 -17.999   4.506  1.00  0.00    -0.026 A 
HETATM    9  C   UNL     1      43.566 -18.181   3.136  1.00  0.00    -0.008 A 
HETATM   10  C   UNL     1      43.867 -19.155   5.434  1.00  0.00     0.041 C 
HETATM   11  S   UNL     1      43.253 -16.748   2.294  1.00  0.00    -0.075 SA
HETATM   12  C   UNL     1      43.786 -19.477   2.421  1.00  0.00     0.047 C 
HETATM   13  C   UNL     1      43.608 -20.652   3.390  1.00  0.00     0.005 C 
HETATM   14  C   UNL     1      44.370 -20.407   4.698  1.00  0.00     0.005 C 
BRANCH   7  15
HETATM   15  C   UNL     1      43.124 -16.064   6.212  1.00  0.00     0.296 C 
HETATM   16  O   UNL     1      42.284 -16.474   7.007  1.00  0.00    -0.259 OA
BRANCH  15  17
HETATM   17  O   UNL     1      44.008 -15.065   6.480  1.00  0.00    -0.318 OA
BRANCH  17  18
HETATM   18  C   UNL     1      43.469 -13.911   7.135  1.00  0.00     0.174 C 
HETATM   19  C   UNL     1      44.252 -12.701   6.663  1.00  0.00     0.034 C 
ENDBRANCH  17  18
ENDBRANCH  15  17
ENDBRANCH   7  15
ENDBRANCH   3   6
ENDBRANCH   1   2
BRANCH   1  20
HETATM   20  S   UNL     1      42.716 -11.721   2.878  1.00  0.00    -0.083 SA
BRANCH  20  21
HETATM   21  C   UNL     1      41.621 -10.799   1.907  1.00  0.00     0.171 A 
HETATM   22  N   UNL     1      41.050 -11.304   0.858  1.00  0.00    -0.204 NA
HETATM   23  C   UNL     1      40.253 -10.412   0.202  1.00  0.00     0.171 A 
HETATM   24  C   UNL     1      40.080  -9.088   0.537  1.00  0.00     0.099 A 
HETATM   25  N   UNL     1      39.481 -10.625  -0.937  1.00  0.00    -0.215 N 
HETATM   26  C   UNL     1      40.716  -8.567   1.712  1.00  0.00     0.263 A 
HETATM   27  C   UNL     1      39.282  -8.539  -0.463  1.00  0.00     0.160 A 
HETATM   28  O   UNL     1      40.622  -7.406   2.090  1.00  0.00    -0.267 OA
HETATM   29  N   UNL     1      41.469  -9.515   2.367  1.00  0.00    -0.301 N 
HETATM   30  H   UNL     1      41.956  -9.227   3.202  1.00  0.00     0.171 HD
HETATM   31  N   UNL     1      38.949  -9.443  -1.388  1.00  0.00    -0.177 NA
BRANCH  25  32
HETATM   32  C   UNL     1      39.179 -11.843  -1.615  1.00  0.00     0.060 A 
HETATM   33  C   UNL     1      37.856 -12.274  -1.800  1.00  0.00     0.034 A 
HETATM   34  C   UNL     1      37.596 -13.452  -2.507  1.00  0.00     0.044 A 
HETATM   35  C   UNL     1      38.651 -14.199  -3.017  1.00  0.00     0.116 A 
HETATM   36  F   UNL     1      38.396 -15.333  -3.682  1.00  0.00    -0.206 F 
HETATM   37  C   UNL     1      39.967 -13.791  -2.841  1.00  0.00     0.044 A 
HETATM   38  C   UNL     1      40.233 -12.608  -2.148  1.00  0.00     0.034 A 
ENDBRANCH  25  32
ENDBRANCH  20  21
ENDBRANCH   1  20
TORSDOF 8
ENDMDL
MODEL 6
REMARK VINA RESULT:      -9.0      2.506      3.119
REMARK  8 active torsions:
REMARK  status: ('A' for Active; 'I' for Inactive)
REMARK    1  A    between atoms: C_2  and  O_3 
REMARK    2  A    between atoms: O_3  and  C_4 
REMARK    3  A    between atoms: C_4  and  C_5 
REMARK    4  A    between atoms: C_6  and  N_7 
REMARK       I    between atoms: N_7  and  C_8 
REMARK    5  A    between atoms: C_8  and  C_9 
REMARK    6  A    between atoms: C_9  and  S_10 
REMARK    7  A    between atoms: S_10  and  C_11 
REMARK    8  A    between atoms: N_18  and  C_19 
ROOT
HETATM    1  C   UNL     1      41.553 -10.030   7.083  1.00  0.00     0.185 C 
ENDROOT
BRANCH   1   2
HETATM    2  C   UNL     1      42.304 -11.243   6.555  1.00  0.00     0.232 C 
HETATM    3  N   UNL     1      41.542 -12.010   5.686  1.00  0.00    -0.320 N 
HETATM    4  H   UNL     1      40.549 -11.796   5.594  1.00  0.00     0.169 HD
HETATM    5  O   UNL     1      43.473 -11.435   6.880  1.00  0.00    -0.272 OA
BRANCH   3   6
HETATM    6  C   UNL     1      41.982 -13.060   4.887  1.00  0.00     0.094 A 
HETATM    7  C   UNL     1      41.764 -14.417   5.115  1.00  0.00     0.080 A 
HETATM    8  C   UNL     1      42.352 -15.218   4.054  1.00  0.00    -0.026 A 
HETATM    9  C   UNL     1      42.913 -14.420   3.074  1.00  0.00    -0.008 A 
HETATM   10  C   UNL     1      42.325 -16.718   3.910  1.00  0.00     0.041 C 
HETATM   11  S   UNL     1      42.831 -12.773   3.446  1.00  0.00    -0.075 SA
HETATM   12  C   UNL     1      43.548 -14.907   1.809  1.00  0.00     0.047 C 
HETATM   13  C   UNL     1      43.107 -16.345   1.515  1.00  0.00     0.005 C 
HETATM   14  C   UNL     1      43.220 -17.223   2.767  1.00  0.00     0.005 C 
BRANCH   7  15
HETATM   15  C   UNL     1      41.001 -14.886   6.278  1.00  0.00     0.296 C 
HETATM   16  O   UNL     1      39.920 -14.401   6.598  1.00  0.00    -0.259 OA
BRANCH  15  17
HETATM   17  O   UNL     1      41.607 -15.909   6.940  1.00  0.00    -0.318 OA
BRANCH  17  18
HETATM   18  C   UNL     1      42.773 -15.561   7.698  1.00  0.00     0.174 C 
HETATM   19  C   UNL     1      43.819 -16.632   7.459  1.00  0.00     0.034 C 
ENDBRANCH  17  18
ENDBRANCH  15  17
ENDBRANCH   7  15
ENDBRANCH   3   6
ENDBRANCH   1   2
BRANCH   1  20
HETATM   20  S   UNL     1      42.711  -8.787   7.727  1.00  0.00    -0.083 SA
BRANCH  20  21
HETATM   21  C   UNL     1      42.503  -9.087   9.418  1.00  0.00     0.171 A 
HETATM   22  N   UNL     1      41.713  -8.361  10.147  1.00  0.00    -0.204 NA
HETATM   23  C   UNL     1      41.712  -8.727  11.461  1.00  0.00     0.171 A 
HETATM   24  C   UNL     1      42.489  -9.714  12.023  1.00  0.00     0.099 A 
HETATM   25  N   UNL     1      40.969  -8.180  12.504  1.00  0.00    -0.215 N 
HETATM   26  C   UNL     1      43.340 -10.507  11.185  1.00  0.00     0.263 A 
HETATM   27  C   UNL     1      42.246  -9.662  13.392  1.00  0.00     0.160 A 
HETATM   28  O   UNL     1      44.065 -11.405  11.591  1.00  0.00    -0.267 OA
HETATM   29  N   UNL     1      43.271 -10.134   9.861  1.00  0.00    -0.301 N 
HETATM   30  H   UNL     1      43.846 -10.639   9.204  1.00  0.00     0.171 HD
HETATM   31  N   UNL     1      41.365  -8.709  13.707  1.00  0.00    -0.177 NA
BRANCH  25  32
HETATM   32  C   UNL     1      39.905  -7.231  12.463  1.00  0.00     0.060 A 
HETATM   33  C   UNL     1      40.134  -5.882  12.152  1.00  0.00     0.034 A 
HETATM   34  C   UNL     1      39.061  -4.988  12.080  1.00  0.00     0.044 A 
HETATM   35  C   UNL     1      37.769  -5.438  12.326  1.00  0.00     0.116 A 
HETATM   36  F   UNL     1      36.747  -4.574  12.268  1.00  0.00    -0.206 F 
HETATM   37  C   UNL     1      37.523  -6.768  12.639  1.00  0.00     0.044 A 
HETATM   38  C   UNL     1      38.589  -7.669  12.700  1.00  0.00     0.034 A 
ENDBRANCH  25  32
ENDBRANCH  20  21
ENDBRANCH   1  20
TORSDOF 8
ENDMDL
MODEL 7
REMARK VINA RESULT:      -8.8      5.828      9.544
REMARK  8 active torsions:
REMARK  status: ('A' for Active; 'I' for Inactive)
REMARK    1  A    between atoms: C_2  and  O_3 
REMARK    2  A    between atoms: O_3  and  C_4 
REMARK    3  A    between atoms: C_4  and  C_5 
REMARK    4  A    between atoms: C_6  and  N_7 
REMARK       I    between atoms: N_7  and  C_8 
REMARK    5  A    between atoms: C_8  and  C_9 
REMARK    6  A    between atoms: C_9  and  S_10 
REMARK    7  A    between atoms: S_10  and  C_11 
REMARK    8  A    between atoms: N_18  and  C_19 
ROOT
HETATM    1  C   UNL     1      40.310 -10.952   3.107  1.00  0.00     0.185 C 
ENDROOT
BRANCH   1   2
HETATM    2  C   UNL     1      41.443 -11.966   3.099  1.00  0.00     0.232 C 
HETATM    3  N   UNL     1      41.084 -13.177   3.672  1.00  0.00    -0.320 N 
HETATM    4  H   UNL     1      40.190 -13.236   4.161  1.00  0.00     0.169 HD
HETATM    5  O   UNL     1      42.522 -11.682   2.586  1.00  0.00    -0.272 OA
BRANCH   3   6
HETATM    6  C   UNL     1      41.808 -14.364   3.651  1.00  0.00     0.094 A 
HETATM    7  C   UNL     1      42.435 -14.968   4.739  1.00  0.00     0.080 A 
HETATM    8  C   UNL     1      43.075 -16.211   4.339  1.00  0.00    -0.026 A 
HETATM    9  C   UNL     1      42.839 -16.492   3.007  1.00  0.00    -0.008 A 
HETATM   10  C   UNL     1      43.838 -17.174   5.210  1.00  0.00     0.041 C 
HETATM   11  S   UNL     1      41.965 -15.272   2.226  1.00  0.00    -0.075 SA
HETATM   12  C   UNL     1      43.292 -17.718   2.279  1.00  0.00     0.047 C 
HETATM   13  C   UNL     1      43.654 -18.824   3.279  1.00  0.00     0.005 C 
HETATM   14  C   UNL     1      44.540 -18.279   4.404  1.00  0.00     0.005 C 
BRANCH   7  15
HETATM   15  C   UNL     1      42.377 -14.378   6.081  1.00  0.00     0.296 C 
HETATM   16  O   UNL     1      41.975 -15.001   7.059  1.00  0.00    -0.259 OA
BRANCH  15  17
HETATM   17  O   UNL     1      42.823 -13.093   6.123  1.00  0.00    -0.318 OA
BRANCH  17  18
HETATM   18  C   UNL     1      44.169 -12.914   6.581  1.00  0.00     0.174 C 
HETATM   19  C   UNL     1      44.174 -11.761   7.567  1.00  0.00     0.034 C 
ENDBRANCH  17  18
ENDBRANCH  15  17
ENDBRANCH   7  15
ENDBRANCH   3   6
ENDBRANCH   1   2
BRANCH   1  20
HETATM   20  S   UNL     1      38.800 -11.667   2.391  1.00  0.00    -0.083 SA
BRANCH  20  21
HETATM   21  C   UNL     1      39.415 -12.055   0.821  1.00  0.00     0.171 A 
HETATM   22  N   UNL     1      39.941 -11.152   0.053  1.00  0.00    -0.204 NA
HETATM   23  C   UNL     1      40.331 -11.643  -1.158  1.00  0.00     0.171 A 
HETATM   24  C   UNL     1      40.159 -12.937  -1.597  1.00  0.00     0.099 A 
HETATM   25  N   UNL     1      40.947 -10.960  -2.204  1.00  0.00    -0.215 N 
HETATM   26  C   UNL     1      39.587 -13.912  -0.716  1.00  0.00     0.263 A 
HETATM   27  C   UNL     1      40.598 -12.956  -2.918  1.00  0.00     0.160 A 
HETATM   28  O   UNL     1      39.395 -15.083  -1.014  1.00  0.00    -0.267 OA
HETATM   29  N   UNL     1      39.254 -13.382   0.511  1.00  0.00    -0.301 N 
HETATM   30  H   UNL     1      38.839 -14.002   1.189  1.00  0.00     0.171 HD
HETATM   31  N   UNL     1      41.035 -11.759  -3.317  1.00  0.00    -0.177 NA
BRANCH  25  32
HETATM   32  C   UNL     1      41.484  -9.639  -2.236  1.00  0.00     0.060 A 
HETATM   33  C   UNL     1      42.349  -9.172  -1.235  1.00  0.00     0.034 A 
HETATM   34  C   UNL     1      42.890  -7.885  -1.321  1.00  0.00     0.044 A 
HETATM   35  C   UNL     1      42.559  -7.068  -2.395  1.00  0.00     0.116 A 
HETATM   36  F   UNL     1      43.070  -5.831  -2.466  1.00  0.00    -0.206 F 
HETATM   37  C   UNL     1      41.702  -7.511  -3.394  1.00  0.00     0.044 A 
HETATM   38  C   UNL     1      41.169  -8.800  -3.321  1.00  0.00     0.034 A 
ENDBRANCH  25  32
ENDBRANCH  20  21
ENDBRANCH   1  20
TORSDOF 8
ENDMDL
MODEL 8
REMARK VINA RESULT:      -8.7      3.838      9.791
REMARK  8 active torsions:
REMARK  status: ('A' for Active; 'I' for Inactive)
REMARK    1  A    between atoms: C_2  and  O_3 
REMARK    2  A    between atoms: O_3  and  C_4 
REMARK    3  A    between atoms: C_4  and  C_5 
REMARK    4  A    between atoms: C_6  and  N_7 
REMARK       I    between atoms: N_7  and  C_8 
REMARK    5  A    between atoms: C_8  and  C_9 
REMARK    6  A    between atoms: C_9  and  S_10 
REMARK    7  A    between atoms: S_10  and  C_11 
REMARK    8  A    between atoms: N_18  and  C_19 
ROOT
HETATM    1  C   UNL     1      42.038  -9.926   5.613  1.00  0.00     0.185 C 
ENDROOT
BRANCH   1   2
HETATM    2  C   UNL     1      41.820  -9.111   6.879  1.00  0.00     0.232 C 
HETATM    3  N   UNL     1      41.652  -9.904   8.005  1.00  0.00    -0.320 N 
HETATM    4  H   UNL     1      41.543 -10.911   7.878  1.00  0.00     0.169 HD
HETATM    5  O   UNL     1      41.840  -7.884   6.835  1.00  0.00    -0.272 OA
BRANCH   3   6
HETATM    6  C   UNL     1      41.626  -9.486   9.331  1.00  0.00     0.094 A 
HETATM    7  C   UNL     1      40.489  -9.205  10.086  1.00  0.00     0.080 A 
HETATM    8  C   UNL     1      40.853  -8.818  11.439  1.00  0.00    -0.026 A 
HETATM    9  C   UNL     1      42.220  -8.891  11.633  1.00  0.00    -0.008 A 
HETATM   10  C   UNL     1      39.929  -8.456  12.572  1.00  0.00     0.041 C 
HETATM   11  S   UNL     1      43.058  -9.314  10.226  1.00  0.00    -0.075 SA
HETATM   12  C   UNL     1      42.935  -8.624  12.920  1.00  0.00     0.047 C 
HETATM   13  C   UNL     1      41.954  -8.702  14.096  1.00  0.00     0.005 C 
HETATM   14  C   UNL     1      40.676  -7.910  13.800  1.00  0.00     0.005 C 
BRANCH   7  15
HETATM   15  C   UNL     1      39.141  -9.343   9.522  1.00  0.00     0.296 C 
HETATM   16  O   UNL     1      38.730 -10.397   9.046  1.00  0.00    -0.259 OA
BRANCH  15  17
HETATM   17  O   UNL     1      38.408  -8.200   9.598  1.00  0.00    -0.318 OA
BRANCH  17  18
HETATM   18  C   UNL     1      38.795  -7.148   8.704  1.00  0.00     0.174 C 
HETATM   19  C   UNL     1      39.100  -5.919   9.538  1.00  0.00     0.034 C 
ENDBRANCH  17  18
ENDBRANCH  15  17
ENDBRANCH   7  15
ENDBRANCH   3   6
ENDBRANCH   1   2
BRANCH   1  20
HETATM   20  S   UNL     1      42.807 -11.526   6.002  1.00  0.00    -0.083 SA
BRANCH  20  21
HETATM   21  C   UNL     1      41.871 -12.528   4.948  1.00  0.00     0.171 A 
HETATM   22  N   UNL     1      42.244 -13.733   4.644  1.00  0.00    -0.204 NA
HETATM   23  C   UNL     1      41.398 -14.349   3.770  1.00  0.00     0.171 A 
HETATM   24  C   UNL     1      40.283 -13.784   3.193  1.00  0.00     0.099 A 
HETATM   25  N   UNL     1      41.484 -15.642   3.258  1.00  0.00    -0.215 N 
HETATM   26  C   UNL     1      39.892 -12.456   3.562  1.00  0.00     0.263 A 
HETATM   27  C   UNL     1      39.796 -14.728   2.293  1.00  0.00     0.160 A 
HETATM   28  O   UNL     1      38.919 -11.871   3.105  1.00  0.00    -0.267 OA
HETATM   29  N   UNL     1      40.747 -11.892   4.483  1.00  0.00    -0.301 N 
HETATM   30  H   UNL     1      40.547 -10.953   4.790  1.00  0.00     0.171 HD
HETATM   31  N   UNL     1      40.537 -15.839   2.284  1.00  0.00    -0.177 NA
BRANCH  25  32
HETATM   32  C   UNL     1      42.356 -16.709   3.625  1.00  0.00     0.060 A 
HETATM   33  C   UNL     1      42.999 -17.500   2.660  1.00  0.00     0.034 A 
HETATM   34  C   UNL     1      43.879 -18.511   3.057  1.00  0.00     0.044 A 
HETATM   35  C   UNL     1      44.110 -18.736   4.408  1.00  0.00     0.116 A 
HETATM   36  F   UNL     1      44.945 -19.714   4.782  1.00  0.00    -0.206 F 
HETATM   37  C   UNL     1      43.480 -17.966   5.378  1.00  0.00     0.044 A 
HETATM   38  C   UNL     1      42.609 -16.946   4.989  1.00  0.00     0.034 A 
ENDBRANCH  25  32
ENDBRANCH  20  21
ENDBRANCH   1  20
TORSDOF 8
ENDMDL
MODEL 9
REMARK VINA RESULT:      -8.5     19.924     22.828
REMARK  8 active torsions:
REMARK  status: ('A' for Active; 'I' for Inactive)
REMARK    1  A    between atoms: C_2  and  O_3 
REMARK    2  A    between atoms: O_3  and  C_4 
REMARK    3  A    between atoms: C_4  and  C_5 
REMARK    4  A    between atoms: C_6  and  N_7 
REMARK       I    between atoms: N_7  and  C_8 
REMARK    5  A    between atoms: C_8  and  C_9 
REMARK    6  A    between atoms: C_9  and  S_10 
REMARK    7  A    between atoms: S_10  and  C_11 
REMARK    8  A    between atoms: N_18  and  C_19 
ROOT
HETATM    1  C   UNL     1      48.322 -34.076  -3.180  1.00  0.00     0.185 C 
ENDROOT
BRANCH   1   2
HETATM    2  C   UNL     1      48.724 -33.808  -1.737  1.00  0.00     0.232 C 
HETATM    3  N   UNL     1      48.602 -32.471  -1.386  1.00  0.00    -0.320 N 
HETATM    4  H   UNL     1      48.409 -31.792  -2.122  1.00  0.00     0.169 HD
HETATM    5  O   UNL     1      49.073 -34.734  -1.011  1.00  0.00    -0.272 OA
BRANCH   3   6
HETATM    6  C   UNL     1      48.698 -31.926  -0.110  1.00  0.00     0.094 A 
HETATM    7  C   UNL     1      49.805 -31.269   0.424  1.00  0.00     0.080 A 
HETATM    8  C   UNL     1      49.529 -30.814   1.778  1.00  0.00    -0.026 A 
HETATM    9  C   UNL     1      48.228 -31.100   2.148  1.00  0.00    -0.008 A 
HETATM   10  C   UNL     1      50.445 -30.049   2.696  1.00  0.00     0.041 C 
HETATM   11  S   UNL     1      47.386 -31.965   0.964  1.00  0.00    -0.075 SA
HETATM   12  C   UNL     1      47.586 -30.720   3.445  1.00  0.00     0.047 C 
HETATM   13  C   UNL     1      48.384 -29.599   4.123  1.00  0.00     0.005 C 
HETATM   14  C   UNL     1      49.885 -29.914   4.121  1.00  0.00     0.005 C 
BRANCH   7  15
HETATM   15  C   UNL     1      51.032 -31.073  -0.357  1.00  0.00     0.296 C 
HETATM   16  O   UNL     1      51.112 -30.252  -1.266  1.00  0.00    -0.259 OA
BRANCH  15  17
HETATM   17  O   UNL     1      52.055 -31.878   0.041  1.00  0.00    -0.318 OA
BRANCH  17  18
HETATM   18  C   UNL     1      52.414 -32.928  -0.865  1.00  0.00     0.174 C 
HETATM   19  C   UNL     1      53.808 -32.636  -1.385  1.00  0.00     0.034 C 
ENDBRANCH  17  18
ENDBRANCH  15  17
ENDBRANCH   7  15
ENDBRANCH   3   6
ENDBRANCH   1   2
BRANCH   1  20
HETATM   20  S   UNL     1      46.599 -34.645  -3.272  1.00  0.00    -0.083 SA
BRANCH  20  21
HETATM   21  C   UNL     1      45.844 -33.134  -3.643  1.00  0.00     0.171 A 
HETATM   22  N   UNL     1      45.948 -32.109  -2.855  1.00  0.00    -0.204 NA
HETATM   23  C   UNL     1      45.253 -31.022  -3.297  1.00  0.00     0.171 A 
HETATM   24  C   UNL     1      44.460 -30.976  -4.422  1.00  0.00     0.099 A 
HETATM   25  N   UNL     1      45.167 -29.761  -2.713  1.00  0.00    -0.215 N 
HETATM   26  C   UNL     1      44.379 -32.123  -5.277  1.00  0.00     0.263 A 
HETATM   27  C   UNL     1      43.862 -29.719  -4.419  1.00  0.00     0.160 A 
HETATM   28  O   UNL     1      43.703 -32.177  -6.296  1.00  0.00    -0.267 OA
HETATM   29  N   UNL     1      45.136 -33.178  -4.818  1.00  0.00    -0.301 N 
HETATM   30  H   UNL     1      45.128 -34.028  -5.360  1.00  0.00     0.171 HD
HETATM   31  N   UNL     1      44.241 -28.988  -3.368  1.00  0.00    -0.177 NA
BRANCH  25  32
HETATM   32  C   UNL     1      45.898 -29.215  -1.617  1.00  0.00     0.060 A 
HETATM   33  C   UNL     1      47.226 -28.787  -1.758  1.00  0.00     0.034 A 
HETATM   34  C   UNL     1      47.899 -28.218  -0.672  1.00  0.00     0.044 A 
HETATM   35  C   UNL     1      47.250 -28.087   0.550  1.00  0.00     0.116 A 
HETATM   36  F   UNL     1      47.903 -27.554   1.590  1.00  0.00    -0.206 F 
HETATM   37  C   UNL     1      45.937 -28.509   0.711  1.00  0.00     0.044 A 
HETATM   38  C   UNL     1      45.256 -29.066  -0.373  1.00  0.00     0.034 A 
ENDBRANCH  25  32
ENDBRANCH  20  21
ENDBRANCH   1  20
TORSDOF 8
ENDMDL
MODEL 10
REMARK VINA RESULT:      -8.5      2.962      4.565
REMARK  8 active torsions:
REMARK  status: ('A' for Active; 'I' for Inactive)
REMARK    1  A    between atoms: C_2  and  O_3 
REMARK    2  A    between atoms: O_3  and  C_4 
REMARK    3  A    between atoms: C_4  and  C_5 
REMARK    4  A    between atoms: C_6  and  N_7 
REMARK       I    between atoms: N_7  and  C_8 
REMARK    5  A    between atoms: C_8  and  C_9 
REMARK    6  A    between atoms: C_9  and  S_10 
REMARK    7  A    between atoms: S_10  and  C_11 
REMARK    8  A    between atoms: N_18  and  C_19 
ROOT
HETATM    1  C   UNL     1      39.427 -11.908   4.357  1.00  0.00     0.185 C 
ENDROOT
BRANCH   1   2
HETATM    2  C   UNL     1      40.641 -12.824   4.389  1.00  0.00     0.232 C 
HETATM    3  N   UNL     1      40.300 -14.166   4.465  1.00  0.00    -0.320 N 
HETATM    4  H   UNL     1      39.324 -14.410   4.636  1.00  0.00     0.169 HD
HETATM    5  O   UNL     1      41.772 -12.352   4.314  1.00  0.00    -0.272 OA
BRANCH   3   6
HETATM    6  C   UNL     1      41.148 -15.258   4.317  1.00  0.00     0.094 A 
HETATM    7  C   UNL     1      41.397 -15.956   3.137  1.00  0.00     0.080 A 
HETATM    8  C   UNL     1      42.358 -17.023   3.363  1.00  0.00    -0.026 A 
HETATM    9  C   UNL     1      42.813 -17.021   4.668  1.00  0.00    -0.008 A 
HETATM   10  C   UNL     1      42.910 -17.993   2.351  1.00  0.00     0.041 C 
HETATM   11  S   UNL     1      42.054 -15.851   5.624  1.00  0.00    -0.075 SA
HETATM   12  C   UNL     1      43.852 -17.939   5.232  1.00  0.00     0.047 C 
HETATM   13  C   UNL     1      44.670 -18.572   4.099  1.00  0.00     0.005 C 
HETATM   14  C   UNL     1      43.754 -19.107   2.992  1.00  0.00     0.005 C 
BRANCH   7  15
HETATM   15  C   UNL     1      40.758 -15.574   1.872  1.00  0.00     0.296 C 
HETATM   16  O   UNL     1      39.604 -15.886   1.594  1.00  0.00    -0.259 OA
BRANCH  15  17
HETATM   17  O   UNL     1      41.568 -14.838   1.063  1.00  0.00    -0.318 OA
BRANCH  17  18
HETATM   18  C   UNL     1      41.189 -13.469   0.877  1.00  0.00     0.174 C 
HETATM   19  C   UNL     1      40.495 -13.357  -0.467  1.00  0.00     0.034 C 
ENDBRANCH  17  18
ENDBRANCH  15  17
ENDBRANCH   7  15
ENDBRANCH   3   6
ENDBRANCH   1   2
BRANCH   1  20
HETATM   20  S   UNL     1      38.960 -11.400   6.038  1.00  0.00    -0.083 SA
BRANCH  20  21
HETATM   21  C   UNL     1      39.861  -9.927   6.126  1.00  0.00     0.171 A 
HETATM   22  N   UNL     1      40.837  -9.774   6.967  1.00  0.00    -0.204 NA
HETATM   23  C   UNL     1      41.398  -8.533   6.913  1.00  0.00     0.171 A 
HETATM   24  C   UNL     1      40.980  -7.492   6.114  1.00  0.00     0.099 A 
HETATM   25  N   UNL     1      42.471  -8.042   7.655  1.00  0.00    -0.215 N 
HETATM   26  C   UNL     1      39.908  -7.701   5.186  1.00  0.00     0.263 A 
HETATM   27  C   UNL     1      41.761  -6.397   6.470  1.00  0.00     0.160 A 
HETATM   28  O   UNL     1      39.468  -6.840   4.436  1.00  0.00    -0.267 OA
HETATM   29  N   UNL     1      39.406  -8.982   5.241  1.00  0.00    -0.301 N 
HETATM   30  H   UNL     1      38.642  -9.210   4.623  1.00  0.00     0.171 HD
HETATM   31  N   UNL     1      42.636  -6.698   7.433  1.00  0.00    -0.177 NA
BRANCH  25  32
HETATM   32  C   UNL     1      43.366  -8.732   8.524  1.00  0.00     0.060 A 
HETATM   33  C   UNL     1      44.755  -8.709   8.321  1.00  0.00     0.034 A 
HETATM   34  C   UNL     1      45.605  -9.363   9.218  1.00  0.00     0.044 A 
HETATM   35  C   UNL     1      45.070 -10.044  10.305  1.00  0.00     0.116 A 
HETATM   36  F   UNL     1      45.889 -10.679  11.154  1.00  0.00    -0.206 F 
HETATM   37  C   UNL     1      43.699 -10.081  10.521  1.00  0.00     0.044 A 
HETATM   38  C   UNL     1      42.845  -9.420   9.636  1.00  0.00     0.034 A 
ENDBRANCH  25  32
ENDBRANCH  20  21
ENDBRANCH   1  20
TORSDOF 8
ENDMDL
