MODEL 1
REMARK VINA RESULT:      -9.2      0.000      0.000
REMARK  9 active torsions:
REMARK  status: ('A' for Active; 'I' for Inactive)
REMARK    1  A    between atoms: C_6  and  C_7 
REMARK    2  A    between atoms: C_7  and  C_8 
REMARK       I    between atoms: C_8  and  N_9 
REMARK    3  A    between atoms: N_9  and  C_10 
REMARK    4  A    between atoms: C_10  and  C_11 
REMARK    5  A    between atoms: C_11  and  N_12 
REMARK    6  A    between atoms: C_17  and  C_18 
REMARK    7  A    between atoms: C_21  and  C_22 
REMARK    8  A    between atoms: C_29  and  C_30 
REMARK       I    between atoms: C_30  and  N_31 
REMARK    9  A    between atoms: N_31  and  C_32 
ROOT
HETATM    1  C   UNL     1      43.403 -14.355   2.083  1.00  0.00     0.071 C 
HETATM    2  C   UNL     1      42.558 -13.575   3.065  1.00  0.00     0.047 C 
HETATM    3  N   UNL     1      42.217 -12.314   2.597  1.00  0.00    -0.229 NA
HETATM    4  C   UNL     1      41.315 -11.667   3.249  1.00  0.00     0.170 C 
HETATM    5  N   UNL     1      40.742 -12.097   4.626  1.00  0.00    -0.319 N 
HETATM    6  C   UNL     1      39.664 -11.451   4.922  1.00  0.00     0.011 C 
HETATM    7  C   UNL     1      41.653 -13.034   5.322  1.00  0.00     0.165 C 
HETATM    8  S   UNL     1      40.510 -10.259   2.644  1.00  0.00    -0.086 SA
HETATM    9  C   UNL     1      39.180 -10.478   3.869  1.00  0.00     0.135 C 
HETATM   10  C   UNL     1      42.151 -14.023   4.278  1.00  0.00     0.062 C 
ENDROOT
BRANCH   6  11
HETATM   11  C   UNL     1      38.963 -11.608   6.241  1.00  0.00     0.156 C 
BRANCH  11  12
HETATM   12  C   UNL     1      38.957 -10.371   7.115  1.00  0.00     0.223 C 
HETATM   13  N   UNL     1      39.188 -10.618   8.444  1.00  0.00    -0.359 N 
HETATM   14  H   UNL     1      39.262 -11.592   8.733  1.00  0.00     0.162 HD
HETATM   15  O   UNL     1      38.726  -9.255   6.659  1.00  0.00    -0.273 OA
BRANCH  13  16
HETATM   16  C   UNL     1      38.990  -9.695   9.567  1.00  0.00     0.150 C 
BRANCH  16  17
HETATM   17  C   UNL     1      39.783  -9.922  10.871  1.00  0.00     0.253 C 
BRANCH  17  18
HETATM   18  N   UNL     1      41.277  -9.729  10.713  1.00  0.00    -0.077 N 
HETATM   19  H   UNL     1      41.597 -10.490  10.081  1.00  0.00     0.279 HD
HETATM   20  C   UNL     1      41.676  -8.418  10.090  1.00  0.00     0.269 C 
HETATM   21  C   UNL     1      41.996  -9.936  12.022  1.00  0.00     0.269 C 
ENDBRANCH  17  18
ENDBRANCH  16  17
ENDBRANCH  13  16
ENDBRANCH  11  12
ENDBRANCH   6  11
BRANCH   7  22
HETATM   22  C   UNL     1      42.753 -12.199   6.016  1.00  0.00    -0.030 A 
HETATM   23  C   UNL     1      44.076 -12.679   6.080  1.00  0.00     0.010 A 
HETATM   24  C   UNL     1      45.039 -12.066   6.891  1.00  0.00     0.008 A 
HETATM   25  C   UNL     1      44.725 -10.932   7.644  1.00  0.00    -0.055 A 
HETATM   26  C   UNL     1      43.449 -10.380   7.500  1.00  0.00     0.008 A 
HETATM   27  C   UNL     1      42.482 -10.998   6.697  1.00  0.00     0.010 A 
BRANCH  25  28
HETATM   28  C   UNL     1      45.751 -10.338   8.595  1.00  0.00     0.010 C 
HETATM   29  C   UNL     1      46.497  -9.161   7.967  1.00  0.00     0.015 C 
HETATM   30  C   UNL     1      45.108  -9.930   9.925  1.00  0.00     0.015 C 
ENDBRANCH  25  28
ENDBRANCH   7  22
BRANCH  10  31
HETATM   31  C   UNL     1      41.964 -15.456   4.687  1.00  0.00     0.256 C 
HETATM   32  N   UNL     1      43.084 -16.033   5.243  1.00  0.00    -0.323 N 
HETATM   33  H   UNL     1      43.804 -15.441   5.628  1.00  0.00     0.169 HD
HETATM   34  O   UNL     1      40.960 -16.037   4.297  1.00  0.00    -0.267 OA
BRANCH  32  35
HETATM   35  C   UNL     1      43.442 -17.398   5.265  1.00  0.00     0.035 A 
HETATM   36  C   UNL     1      43.320 -18.223   6.382  1.00  0.00     0.029 A 
HETATM   37  C   UNL     1      43.581 -19.594   6.272  1.00  0.00     0.002 A 
HETATM   38  C   UNL     1      43.978 -20.142   5.053  1.00  0.00     0.000 A 
HETATM   39  C   UNL     1      44.128 -19.321   3.942  1.00  0.00     0.002 A 
HETATM   40  C   UNL     1      43.857 -17.957   4.046  1.00  0.00     0.029 A 
ENDBRANCH  32  35
ENDBRANCH  10  31
TORSDOF 9
ENDMDL
MODEL 2
REMARK VINA RESULT:      -8.8      2.846      5.883
REMARK  9 active torsions:
REMARK  status: ('A' for Active; 'I' for Inactive)
REMARK    1  A    between atoms: C_6  and  C_7 
REMARK    2  A    between atoms: C_7  and  C_8 
REMARK       I    between atoms: C_8  and  N_9 
REMARK    3  A    between atoms: N_9  and  C_10 
REMARK    4  A    between atoms: C_10  and  C_11 
REMARK    5  A    between atoms: C_11  and  N_12 
REMARK    6  A    between atoms: C_17  and  C_18 
REMARK    7  A    between atoms: C_21  and  C_22 
REMARK    8  A    between atoms: C_29  and  C_30 
REMARK       I    between atoms: C_30  and  N_31 
REMARK    9  A    between atoms: N_31  and  C_32 
ROOT
HETATM    1  C   UNL     1      39.979 -16.306   6.418  1.00  0.00     0.071 C 
HETATM    2  C   UNL     1      40.601 -15.131   5.698  1.00  0.00     0.047 C 
HETATM    3  N   UNL     1      39.931 -13.940   5.935  1.00  0.00    -0.229 NA
HETATM    4  C   UNL     1      40.510 -12.852   5.562  1.00  0.00     0.170 C 
HETATM    5  N   UNL     1      41.788 -12.790   4.684  1.00  0.00    -0.319 N 
HETATM    6  C   UNL     1      42.324 -11.615   4.695  1.00  0.00     0.011 C 
HETATM    7  C   UNL     1      41.993 -14.051   3.936  1.00  0.00     0.165 C 
HETATM    8  S   UNL     1      40.017 -11.273   6.070  1.00  0.00    -0.086 SA
HETATM    9  C   UNL     1      41.635 -10.596   5.578  1.00  0.00     0.135 C 
HETATM   10  C   UNL     1      41.697 -15.190   4.902  1.00  0.00     0.062 C 
ENDROOT
BRANCH   6  11
HETATM   11  C   UNL     1      43.515 -11.260   3.852  1.00  0.00     0.156 C 
BRANCH  11  12
HETATM   12  C   UNL     1      44.853 -11.365   4.555  1.00  0.00     0.223 C 
HETATM   13  N   UNL     1      44.770 -11.400   5.923  1.00  0.00    -0.359 N 
HETATM   14  H   UNL     1      43.850 -11.276   6.340  1.00  0.00     0.162 HD
HETATM   15  O   UNL     1      45.912 -11.380   3.935  1.00  0.00    -0.273 OA
BRANCH  13  16
HETATM   16  C   UNL     1      45.867 -11.237   6.883  1.00  0.00     0.150 C 
BRANCH  16  17
HETATM   17  C   UNL     1      45.813 -10.070   7.891  1.00  0.00     0.253 C 
BRANCH  17  18
HETATM   18  N   UNL     1      44.570 -10.075   8.757  1.00  0.00    -0.077 N 
HETATM   19  H   UNL     1      44.068 -10.956   8.529  1.00  0.00     0.279 HD
HETATM   20  C   UNL     1      44.840 -10.072  10.238  1.00  0.00     0.269 C 
HETATM   21  C   UNL     1      43.639  -8.949   8.385  1.00  0.00     0.269 C 
ENDBRANCH  17  18
ENDBRANCH  16  17
ENDBRANCH  13  16
ENDBRANCH  11  12
ENDBRANCH   6  11
BRANCH   7  22
HETATM   22  C   UNL     1      41.100 -14.007   2.676  1.00  0.00    -0.030 A 
HETATM   23  C   UNL     1      40.637 -15.202   2.091  1.00  0.00     0.010 A 
HETATM   24  C   UNL     1      40.024 -15.211   0.832  1.00  0.00     0.008 A 
HETATM   25  C   UNL     1      39.822 -14.024   0.125  1.00  0.00    -0.055 A 
HETATM   26  C   UNL     1      40.172 -12.821   0.746  1.00  0.00     0.008 A 
HETATM   27  C   UNL     1      40.795 -12.812   2.000  1.00  0.00     0.010 A 
BRANCH  25  28
HETATM   28  C   UNL     1      39.246 -14.060  -1.282  1.00  0.00     0.010 C 
HETATM   29  C   UNL     1      38.161 -13.002  -1.481  1.00  0.00     0.015 C 
HETATM   30  C   UNL     1      40.347 -13.919  -2.339  1.00  0.00     0.015 C 
ENDBRANCH  25  28
ENDBRANCH   7  22
BRANCH  10  31
HETATM   31  C   UNL     1      42.801 -16.207   4.971  1.00  0.00     0.256 C 
HETATM   32  N   UNL     1      42.890 -17.016   3.861  1.00  0.00    -0.323 N 
HETATM   33  H   UNL     1      42.479 -16.709   2.993  1.00  0.00     0.169 HD
HETATM   34  O   UNL     1      43.351 -16.382   6.051  1.00  0.00    -0.267 OA
BRANCH  32  35
HETATM   35  C   UNL     1      43.409 -18.326   3.777  1.00  0.00     0.035 A 
HETATM   36  C   UNL     1      43.959 -19.022   4.851  1.00  0.00     0.029 A 
HETATM   37  C   UNL     1      44.331 -20.363   4.700  1.00  0.00     0.002 A 
HETATM   38  C   UNL     1      44.172 -21.007   3.474  1.00  0.00     0.000 A 
HETATM   39  C   UNL     1      43.649 -20.311   2.390  1.00  0.00     0.002 A 
HETATM   40  C   UNL     1      43.266 -18.978   2.542  1.00  0.00     0.029 A 
ENDBRANCH  32  35
ENDBRANCH  10  31
TORSDOF 9
ENDMDL
MODEL 3
REMARK VINA RESULT:      -8.4      2.976      7.679
REMARK  9 active torsions:
REMARK  status: ('A' for Active; 'I' for Inactive)
REMARK    1  A    between atoms: C_6  and  C_7 
REMARK    2  A    between atoms: C_7  and  C_8 
REMARK       I    between atoms: C_8  and  N_9 
REMARK    3  A    between atoms: N_9  and  C_10 
REMARK    4  A    between atoms: C_10  and  C_11 
REMARK    5  A    between atoms: C_11  and  N_12 
REMARK    6  A    between atoms: C_17  and  C_18 
REMARK    7  A    between atoms: C_21  and  C_22 
REMARK    8  A    between atoms: C_29  and  C_30 
REMARK       I    between atoms: C_30  and  N_31 
REMARK    9  A    between atoms: N_31  and  C_32 
ROOT
HETATM    1  C   UNL     1      38.274 -11.003   6.337  1.00  0.00     0.071 C 
HETATM    2  C   UNL     1      39.434 -11.842   5.854  1.00  0.00     0.047 C 
HETATM    3  N   UNL     1      39.497 -13.080   6.478  1.00  0.00    -0.229 NA
HETATM    4  C   UNL     1      40.299 -13.954   5.976  1.00  0.00     0.170 C 
HETATM    5  N   UNL     1      41.346 -13.657   4.870  1.00  0.00    -0.319 N 
HETATM    6  C   UNL     1      41.813 -14.741   4.344  1.00  0.00     0.011 C 
HETATM    7  C   UNL     1      41.658 -12.212   4.793  1.00  0.00     0.165 C 
HETATM    8  S   UNL     1      40.268 -15.637   6.378  1.00  0.00    -0.086 SA
HETATM    9  C   UNL     1      41.216 -16.027   4.873  1.00  0.00     0.135 C 
HETATM   10  C   UNL     1      40.335 -11.468   4.913  1.00  0.00     0.062 C 
ENDROOT
BRANCH   6  11
HETATM   11  C   UNL     1      42.910 -14.737   3.320  1.00  0.00     0.156 C 
BRANCH  11  12
HETATM   12  C   UNL     1      42.479 -15.111   1.916  1.00  0.00     0.223 C 
HETATM   13  N   UNL     1      41.295 -14.542   1.520  1.00  0.00    -0.359 N 
HETATM   14  H   UNL     1      40.782 -13.998   2.210  1.00  0.00     0.162 HD
HETATM   15  O   UNL     1      43.129 -15.886   1.222  1.00  0.00    -0.273 OA
BRANCH  13  16
HETATM   16  C   UNL     1      40.487 -14.900   0.349  1.00  0.00     0.150 C 
BRANCH  16  17
HETATM   17  C   UNL     1      40.097 -13.797  -0.657  1.00  0.00     0.253 C 
BRANCH  17  18
HETATM   18  N   UNL     1      38.738 -14.008  -1.291  1.00  0.00    -0.077 N 
HETATM   19  H   UNL     1      38.195 -14.582  -0.616  1.00  0.00     0.279 HD
HETATM   20  C   UNL     1      37.963 -12.743  -1.546  1.00  0.00     0.269 C 
HETATM   21  C   UNL     1      38.844 -14.828  -2.552  1.00  0.00     0.269 C 
ENDBRANCH  17  18
ENDBRANCH  16  17
ENDBRANCH  13  16
ENDBRANCH  11  12
ENDBRANCH   6  11
BRANCH   7  22
HETATM   22  C   UNL     1      42.696 -11.891   5.892  1.00  0.00    -0.030 A 
HETATM   23  C   UNL     1      42.480 -10.821   6.783  1.00  0.00     0.010 A 
HETATM   24  C   UNL     1      43.493 -10.361   7.634  1.00  0.00     0.008 A 
HETATM   25  C   UNL     1      44.748 -10.973   7.649  1.00  0.00    -0.055 A 
HETATM   26  C   UNL     1      44.937 -12.107   6.854  1.00  0.00     0.008 A 
HETATM   27  C   UNL     1      43.929 -12.561   5.995  1.00  0.00     0.010 A 
BRANCH  25  28
HETATM   28  C   UNL     1      45.867 -10.400   8.505  1.00  0.00     0.010 C 
HETATM   29  C   UNL     1      46.575  -9.235   7.813  1.00  0.00     0.015 C 
HETATM   30  C   UNL     1      45.355  -9.986   9.889  1.00  0.00     0.015 C 
ENDBRANCH  25  28
ENDBRANCH   7  22
BRANCH  10  31
HETATM   31  C   UNL     1      40.117 -10.472   3.810  1.00  0.00     0.256 C 
HETATM   32  N   UNL     1      39.793 -11.038   2.597  1.00  0.00    -0.323 N 
HETATM   33  H   UNL     1      39.420 -11.974   2.573  1.00  0.00     0.169 HD
HETATM   34  O   UNL     1      40.459  -9.314   4.009  1.00  0.00    -0.267 OA
BRANCH  32  35
HETATM   35  C   UNL     1      40.013 -10.514   1.305  1.00  0.00     0.035 A 
HETATM   36  C   UNL     1      39.063  -9.804   0.574  1.00  0.00     0.029 A 
HETATM   37  C   UNL     1      39.414  -9.214  -0.645  1.00  0.00     0.002 A 
HETATM   38  C   UNL     1      40.709  -9.345  -1.147  1.00  0.00     0.000 A 
HETATM   39  C   UNL     1      41.655 -10.076  -0.437  1.00  0.00     0.002 A 
HETATM   40  C   UNL     1      41.310 -10.653   0.785  1.00  0.00     0.029 A 
ENDBRANCH  32  35
ENDBRANCH  10  31
TORSDOF 9
ENDMDL
MODEL 4
REMARK VINA RESULT:      -7.8      4.366      7.035
REMARK  9 active torsions:
REMARK  status: ('A' for Active; 'I' for Inactive)
REMARK    1  A    between atoms: C_6  and  C_7 
REMARK    2  A    between atoms: C_7  and  C_8 
REMARK       I    between atoms: C_8  and  N_9 
REMARK    3  A    between atoms: N_9  and  C_10 
REMARK    4  A    between atoms: C_10  and  C_11 
REMARK    5  A    between atoms: C_11  and  N_12 
REMARK    6  A    between atoms: C_17  and  C_18 
REMARK    7  A    between atoms: C_21  and  C_22 
REMARK    8  A    between atoms: C_29  and  C_30 
REMARK       I    between atoms: C_30  and  N_31 
REMARK    9  A    between atoms: N_31  and  C_32 
ROOT
HETATM    1  C   UNL     1      37.500 -13.024  -2.254  1.00  0.00     0.071 C 
HETATM    2  C   UNL     1      38.129 -12.163  -1.182  1.00  0.00     0.047 C 
HETATM    3  N   UNL     1      37.399 -11.013  -0.921  1.00  0.00    -0.229 NA
HETATM    4  C   UNL     1      37.718 -10.336   0.128  1.00  0.00     0.170 C 
HETATM    5  N   UNL     1      38.982 -10.592   0.991  1.00  0.00    -0.319 N 
HETATM    6  C   UNL     1      38.921  -9.981   2.128  1.00  0.00     0.011 C 
HETATM    7  C   UNL     1      40.007 -11.350   0.239  1.00  0.00     0.165 C 
HETATM    8  S   UNL     1      36.728  -9.092   0.813  1.00  0.00    -0.086 SA
HETATM    9  C   UNL     1      37.642  -9.213   2.383  1.00  0.00     0.135 C 
HETATM   10  C   UNL     1      39.276 -12.450  -0.518  1.00  0.00     0.062 C 
ENDROOT
BRANCH   6  11
HETATM   11  C   UNL     1      40.056  -9.984   3.111  1.00  0.00     0.156 C 
BRANCH  11  12
HETATM   12  C   UNL     1      40.220 -11.269   3.898  1.00  0.00     0.223 C 
HETATM   13  N   UNL     1      41.140 -11.195   4.911  1.00  0.00    -0.359 N 
HETATM   14  H   UNL     1      41.677 -10.334   4.996  1.00  0.00     0.162 HD
HETATM   15  O   UNL     1      39.599 -12.288   3.612  1.00  0.00    -0.273 OA
BRANCH  13  16
HETATM   16  C   UNL     1      41.714 -12.311   5.673  1.00  0.00     0.150 C 
BRANCH  16  17
HETATM   17  C   UNL     1      42.746 -13.231   4.988  1.00  0.00     0.253 C 
BRANCH  17  18
HETATM   18  N   UNL     1      42.448 -14.707   5.157  1.00  0.00    -0.077 N 
HETATM   19  H   UNL     1      42.581 -15.133   4.218  1.00  0.00     0.279 HD
HETATM   20  C   UNL     1      43.358 -15.422   6.119  1.00  0.00     0.269 C 
HETATM   21  C   UNL     1      41.003 -14.934   5.523  1.00  0.00     0.269 C 
ENDBRANCH  17  18
ENDBRANCH  16  17
ENDBRANCH  13  16
ENDBRANCH  11  12
ENDBRANCH   6  11
BRANCH   7  22
HETATM   22  C   UNL     1      40.786 -10.349  -0.644  1.00  0.00    -0.030 A 
HETATM   23  C   UNL     1      41.665  -9.417  -0.057  1.00  0.00     0.010 A 
HETATM   24  C   UNL     1      42.205  -8.355  -0.793  1.00  0.00     0.008 A 
HETATM   25  C   UNL     1      41.914  -8.204  -2.150  1.00  0.00    -0.055 A 
HETATM   26  C   UNL     1      41.137  -9.187  -2.770  1.00  0.00     0.008 A 
HETATM   27  C   UNL     1      40.587 -10.242  -2.033  1.00  0.00     0.010 A 
BRANCH  25  28
HETATM   28  C   UNL     1      42.428  -6.992  -2.912  1.00  0.00     0.010 C 
HETATM   29  C   UNL     1      43.633  -6.353  -2.222  1.00  0.00     0.015 C 
HETATM   30  C   UNL     1      42.755  -7.346  -4.367  1.00  0.00     0.015 C 
ENDBRANCH  25  28
ENDBRANCH   7  22
BRANCH  10  31
HETATM   31  C   UNL     1      39.859 -13.814  -0.284  1.00  0.00     0.256 C 
HETATM   32  N   UNL     1      40.168 -14.076   1.032  1.00  0.00    -0.323 N 
HETATM   33  H   UNL     1      39.725 -13.536   1.759  1.00  0.00     0.169 HD
HETATM   34  O   UNL     1      40.214 -14.460  -1.262  1.00  0.00    -0.267 OA
BRANCH  32  35
HETATM   35  C   UNL     1      41.139 -14.965   1.539  1.00  0.00     0.035 A 
HETATM   36  C   UNL     1      40.854 -16.231   2.047  1.00  0.00     0.029 A 
HETATM   37  C   UNL     1      41.897 -17.091   2.409  1.00  0.00     0.002 A 
HETATM   38  C   UNL     1      43.225 -16.686   2.281  1.00  0.00     0.000 A 
HETATM   39  C   UNL     1      43.516 -15.415   1.800  1.00  0.00     0.002 A 
HETATM   40  C   UNL     1      42.479 -14.560   1.426  1.00  0.00     0.029 A 
ENDBRANCH  32  35
ENDBRANCH  10  31
TORSDOF 9
ENDMDL
MODEL 5
REMARK VINA RESULT:      -7.8      3.682      8.238
REMARK  9 active torsions:
REMARK  status: ('A' for Active; 'I' for Inactive)
REMARK    1  A    between atoms: C_6  and  C_7 
REMARK    2  A    between atoms: C_7  and  C_8 
REMARK       I    between atoms: C_8  and  N_9 
REMARK    3  A    between atoms: N_9  and  C_10 
REMARK    4  A    between atoms: C_10  and  C_11 
REMARK    5  A    between atoms: C_11  and  N_12 
REMARK    6  A    between atoms: C_17  and  C_18 
REMARK    7  A    between atoms: C_21  and  C_22 
REMARK    8  A    between atoms: C_29  and  C_30 
REMARK       I    between atoms: C_30  and  N_31 
REMARK    9  A    between atoms: N_31  and  C_32 
ROOT
HETATM    1  C   UNL     1      40.291 -12.264   6.367  1.00  0.00     0.071 C 
HETATM    2  C   UNL     1      40.585 -12.351   4.887  1.00  0.00     0.047 C 
HETATM    3  N   UNL     1      39.476 -12.719   4.139  1.00  0.00    -0.229 NA
HETATM    4  C   UNL     1      39.557 -12.595   2.860  1.00  0.00     0.170 C 
HETATM    5  N   UNL     1      40.865 -12.273   2.087  1.00  0.00    -0.319 N 
HETATM    6  C   UNL     1      40.628 -11.920   0.867  1.00  0.00     0.011 C 
HETATM    7  C   UNL     1      42.064 -12.590   2.895  1.00  0.00     0.165 C 
HETATM    8  S   UNL     1      38.196 -12.663   1.794  1.00  0.00    -0.086 SA
HETATM    9  C   UNL     1      39.166 -11.852   0.483  1.00  0.00     0.135 C 
HETATM   10  C   UNL     1      41.786 -12.099   4.309  1.00  0.00     0.062 C 
ENDROOT
BRANCH   6  11
HETATM   11  C   UNL     1      41.723 -11.648  -0.123  1.00  0.00     0.156 C 
BRANCH  11  12
HETATM   12  C   UNL     1      41.576 -10.357  -0.904  1.00  0.00     0.223 C 
HETATM   13  N   UNL     1      42.051  -9.248  -0.254  1.00  0.00    -0.359 N 
HETATM   14  H   UNL     1      42.380  -9.369   0.702  1.00  0.00     0.162 HD
HETATM   15  O   UNL     1      41.042 -10.325  -2.008  1.00  0.00    -0.273 OA
BRANCH  13  16
HETATM   16  C   UNL     1      41.825  -7.843  -0.613  1.00  0.00     0.150 C 
BRANCH  16  17
HETATM   17  C   UNL     1      42.628  -7.231  -1.781  1.00  0.00     0.253 C 
BRANCH  17  18
HETATM   18  N   UNL     1      42.033  -7.521  -3.143  1.00  0.00    -0.077 N 
HETATM   19  H   UNL     1      42.053  -8.555  -3.248  1.00  0.00     0.279 HD
HETATM   20  C   UNL     1      40.608  -7.070  -3.312  1.00  0.00     0.269 C 
HETATM   21  C   UNL     1      42.899  -6.969  -4.247  1.00  0.00     0.269 C 
ENDBRANCH  17  18
ENDBRANCH  16  17
ENDBRANCH  13  16
ENDBRANCH  11  12
ENDBRANCH   6  11
BRANCH   7  22
HETATM   22  C   UNL     1      42.336 -14.106   2.766  1.00  0.00    -0.030 A 
HETATM   23  C   UNL     1      42.267 -14.940   3.899  1.00  0.00     0.010 A 
HETATM   24  C   UNL     1      42.727 -16.262   3.865  1.00  0.00     0.008 A 
HETATM   25  C   UNL     1      43.243 -16.810   2.688  1.00  0.00    -0.055 A 
HETATM   26  C   UNL     1      43.209 -16.029   1.529  1.00  0.00     0.008 A 
HETATM   27  C   UNL     1      42.760 -14.704   1.565  1.00  0.00     0.010 A 
BRANCH  25  28
HETATM   28  C   UNL     1      43.829 -18.213   2.691  1.00  0.00     0.010 C 
HETATM   29  C   UNL     1      44.325 -18.621   4.078  1.00  0.00     0.015 C 
HETATM   30  C   UNL     1      42.829 -19.237   2.144  1.00  0.00     0.015 C 
ENDBRANCH  25  28
ENDBRANCH   7  22
BRANCH  10  31
HETATM   31  C   UNL     1      42.871 -11.213   4.849  1.00  0.00     0.256 C 
HETATM   32  N   UNL     1      43.702 -11.830   5.758  1.00  0.00    -0.323 N 
HETATM   33  H   UNL     1      43.758 -12.837   5.770  1.00  0.00     0.169 HD
HETATM   34  O   UNL     1      42.791 -10.011   4.631  1.00  0.00    -0.267 OA
BRANCH  32  35
HETATM   35  C   UNL     1      44.449 -11.239   6.798  1.00  0.00     0.035 A 
HETATM   36  C   UNL     1      45.835 -11.088   6.781  1.00  0.00     0.029 A 
HETATM   37  C   UNL     1      46.474 -10.374   7.801  1.00  0.00     0.002 A 
HETATM   38  C   UNL     1      45.737  -9.823   8.849  1.00  0.00     0.000 A 
HETATM   39  C   UNL     1      44.357  -9.993   8.887  1.00  0.00     0.002 A 
HETATM   40  C   UNL     1      43.717 -10.693   7.864  1.00  0.00     0.029 A 
ENDBRANCH  32  35
ENDBRANCH  10  31
TORSDOF 9
ENDMDL
MODEL 6
REMARK VINA RESULT:      -7.6      5.881     10.413
REMARK  9 active torsions:
REMARK  status: ('A' for Active; 'I' for Inactive)
REMARK    1  A    between atoms: C_6  and  C_7 
REMARK    2  A    between atoms: C_7  and  C_8 
REMARK       I    between atoms: C_8  and  N_9 
REMARK    3  A    between atoms: N_9  and  C_10 
REMARK    4  A    between atoms: C_10  and  C_11 
REMARK    5  A    between atoms: C_11  and  N_12 
REMARK    6  A    between atoms: C_17  and  C_18 
REMARK    7  A    between atoms: C_21  and  C_22 
REMARK    8  A    between atoms: C_29  and  C_30 
REMARK       I    between atoms: C_30  and  N_31 
REMARK    9  A    between atoms: N_31  and  C_32 
ROOT
HETATM    1  C   UNL     1      39.492 -10.814  12.927  1.00  0.00     0.071 C 
HETATM    2  C   UNL     1      40.035  -9.551  12.298  1.00  0.00     0.047 C 
HETATM    3  N   UNL     1      39.576  -9.357  11.003  1.00  0.00    -0.229 NA
HETATM    4  C   UNL     1      39.790  -8.205  10.468  1.00  0.00     0.170 C 
HETATM    5  N   UNL     1      40.699  -7.105  11.077  1.00  0.00    -0.319 N 
HETATM    6  C   UNL     1      40.517  -5.960  10.507  1.00  0.00     0.011 C 
HETATM    7  C   UNL     1      41.651  -7.671  12.058  1.00  0.00     0.165 C 
HETATM    8  S   UNL     1      39.009  -7.651   9.026  1.00  0.00    -0.086 SA
HETATM    9  C   UNL     1      39.450  -5.932   9.433  1.00  0.00     0.135 C 
HETATM   10  C   UNL     1      40.874  -8.674  12.900  1.00  0.00     0.062 C 
ENDROOT
BRANCH   6  11
HETATM   11  C   UNL     1      41.339  -4.749  10.842  1.00  0.00     0.156 C 
BRANCH  11  12
HETATM   12  C   UNL     1      40.556  -3.574  11.392  1.00  0.00     0.223 C 
HETATM   13  N   UNL     1      39.771  -3.875  12.475  1.00  0.00    -0.359 N 
HETATM   14  H   UNL     1      39.721  -4.851  12.760  1.00  0.00     0.162 HD
HETATM   15  O   UNL     1      40.607  -2.462  10.874  1.00  0.00    -0.273 OA
BRANCH  13  16
HETATM   16  C   UNL     1      38.714  -3.046  13.064  1.00  0.00     0.150 C 
BRANCH  16  17
HETATM   17  C   UNL     1      37.251  -3.531  12.985  1.00  0.00     0.253 C 
BRANCH  17  18
HETATM   18  N   UNL     1      36.599  -3.712  14.340  1.00  0.00    -0.077 N 
HETATM   19  H   UNL     1      35.799  -4.359  14.186  1.00  0.00     0.279 HD
HETATM   20  C   UNL     1      37.490  -4.325  15.386  1.00  0.00     0.269 C 
HETATM   21  C   UNL     1      36.006  -2.419  14.839  1.00  0.00     0.269 C 
ENDBRANCH  17  18
ENDBRANCH  16  17
ENDBRANCH  13  16
ENDBRANCH  11  12
ENDBRANCH   6  11
BRANCH   7  22
HETATM   22  C   UNL     1      42.848  -8.256  11.275  1.00  0.00    -0.030 A 
HETATM   23  C   UNL     1      43.201  -7.728  10.017  1.00  0.00     0.010 A 
HETATM   24  C   UNL     1      44.123  -8.373   9.184  1.00  0.00     0.008 A 
HETATM   25  C   UNL     1      44.751  -9.553   9.590  1.00  0.00    -0.055 A 
HETATM   26  C   UNL     1      44.495 -10.024  10.881  1.00  0.00     0.008 A 
HETATM   27  C   UNL     1      43.565  -9.385  11.711  1.00  0.00     0.010 A 
BRANCH  25  28
HETATM   28  C   UNL     1      45.673 -10.296   8.636  1.00  0.00     0.010 C 
HETATM   29  C   UNL     1      44.894 -11.165   7.650  1.00  0.00     0.015 C 
HETATM   30  C   UNL     1      46.605  -9.329   7.896  1.00  0.00     0.015 C 
ENDBRANCH  25  28
ENDBRANCH   7  22
BRANCH  10  31
HETATM   31  C   UNL     1      41.020  -8.442  14.377  1.00  0.00     0.256 C 
HETATM   32  N   UNL     1      40.198  -7.455  14.875  1.00  0.00    -0.323 N 
HETATM   33  H   UNL     1      39.376  -7.190  14.355  1.00  0.00     0.169 HD
HETATM   34  O   UNL     1      41.974  -8.955  14.946  1.00  0.00    -0.267 OA
BRANCH  32  35
HETATM   35  C   UNL     1      40.399  -6.646  16.013  1.00  0.00     0.035 A 
HETATM   36  C   UNL     1      40.126  -7.048  17.319  1.00  0.00     0.029 A 
HETATM   37  C   UNL     1      40.477  -6.223  18.394  1.00  0.00     0.002 A 
HETATM   38  C   UNL     1      41.087  -4.989  18.168  1.00  0.00     0.000 A 
HETATM   39  C   UNL     1      41.338  -4.569  16.867  1.00  0.00     0.002 A 
HETATM   40  C   UNL     1      41.000  -5.396  15.795  1.00  0.00     0.029 A 
ENDBRANCH  32  35
ENDBRANCH  10  31
TORSDOF 9
ENDMDL
MODEL 7
REMARK VINA RESULT:      -7.6      3.579      7.720
REMARK  9 active torsions:
REMARK  status: ('A' for Active; 'I' for Inactive)
REMARK    1  A    between atoms: C_6  and  C_7 
REMARK    2  A    between atoms: C_7  and  C_8 
REMARK       I    between atoms: C_8  and  N_9 
REMARK    3  A    between atoms: N_9  and  C_10 
REMARK    4  A    between atoms: C_10  and  C_11 
REMARK    5  A    between atoms: C_11  and  N_12 
REMARK    6  A    between atoms: C_17  and  C_18 
REMARK    7  A    between atoms: C_21  and  C_22 
REMARK    8  A    between atoms: C_29  and  C_30 
REMARK       I    between atoms: C_30  and  N_31 
REMARK    9  A    between atoms: N_31  and  C_32 
ROOT
HETATM    1  C   UNL     1      39.586 -11.563   6.435  1.00  0.00     0.071 C 
HETATM    2  C   UNL     1      40.049 -11.608   4.996  1.00  0.00     0.047 C 
HETATM    3  N   UNL     1      39.039 -11.976   4.119  1.00  0.00    -0.229 NA
HETATM    4  C   UNL     1      39.263 -11.819   2.860  1.00  0.00     0.170 C 
HETATM    5  N   UNL     1      40.643 -11.455   2.250  1.00  0.00    -0.319 N 
HETATM    6  C   UNL     1      40.540 -11.076   1.019  1.00  0.00     0.011 C 
HETATM    7  C   UNL     1      41.748 -11.772   3.182  1.00  0.00     0.165 C 
HETATM    8  S   UNL     1      38.033 -11.884   1.645  1.00  0.00    -0.086 SA
HETATM    9  C   UNL     1      39.130 -11.024   0.472  1.00  0.00     0.135 C 
HETATM   10  C   UNL     1      41.302 -11.321   4.566  1.00  0.00     0.062 C 
ENDROOT
BRANCH   6  11
HETATM   11  C   UNL     1      41.735 -10.760   0.167  1.00  0.00     0.156 C 
BRANCH  11  12
HETATM   12  C   UNL     1      41.623  -9.489  -0.650  1.00  0.00     0.223 C 
HETATM   13  N   UNL     1      41.728  -8.336   0.084  1.00  0.00    -0.359 N 
HETATM   14  H   UNL     1      41.791  -8.428   1.096  1.00  0.00     0.162 HD
HETATM   15  O   UNL     1      41.419  -9.512  -1.860  1.00  0.00    -0.273 OA
BRANCH  13  16
HETATM   16  C   UNL     1      41.406  -6.973  -0.354  1.00  0.00     0.150 C 
BRANCH  16  17
HETATM   17  C   UNL     1      42.090  -5.780   0.348  1.00  0.00     0.253 C 
BRANCH  17  18
HETATM   18  N   UNL     1      43.576  -5.684   0.070  1.00  0.00    -0.077 N 
HETATM   19  H   UNL     1      44.001  -6.528   0.503  1.00  0.00     0.279 HD
HETATM   20  C   UNL     1      43.940  -5.684  -1.389  1.00  0.00     0.269 C 
HETATM   21  C   UNL     1      44.187  -4.498   0.771  1.00  0.00     0.269 C 
ENDBRANCH  17  18
ENDBRANCH  16  17
ENDBRANCH  13  16
ENDBRANCH  11  12
ENDBRANCH   6  11
BRANCH   7  22
HETATM   22  C   UNL     1      42.064 -13.279   3.050  1.00  0.00    -0.030 A 
HETATM   23  C   UNL     1      41.984 -14.123   4.175  1.00  0.00     0.010 A 
HETATM   24  C   UNL     1      42.480 -15.432   4.145  1.00  0.00     0.008 A 
HETATM   25  C   UNL     1      43.043 -15.958   2.980  1.00  0.00    -0.055 A 
HETATM   26  C   UNL     1      43.023 -15.169   1.826  1.00  0.00     0.008 A 
HETATM   27  C   UNL     1      42.538 -13.856   1.858  1.00  0.00     0.010 A 
BRANCH  25  28
HETATM   28  C   UNL     1      43.667 -17.345   2.990  1.00  0.00     0.010 C 
HETATM   29  C   UNL     1      43.880 -17.864   4.412  1.00  0.00     0.015 C 
HETATM   30  C   UNL     1      42.837 -18.335   2.165  1.00  0.00     0.015 C 
ENDBRANCH  25  28
ENDBRANCH   7  22
BRANCH  10  31
HETATM   31  C   UNL     1      42.301 -10.430   5.247  1.00  0.00     0.256 C 
HETATM   32  N   UNL     1      43.208 -11.101   6.036  1.00  0.00    -0.323 N 
HETATM   33  H   UNL     1      43.367 -12.084   5.877  1.00  0.00     0.169 HD
HETATM   34  O   UNL     1      42.093  -9.223   5.236  1.00  0.00    -0.267 OA
BRANCH  32  35
HETATM   35  C   UNL     1      43.910 -10.618   7.160  1.00  0.00     0.035 A 
HETATM   36  C   UNL     1      43.303 -10.063   8.285  1.00  0.00     0.029 A 
HETATM   37  C   UNL     1      44.075  -9.729   9.405  1.00  0.00     0.002 A 
HETATM   38  C   UNL     1      45.455  -9.932   9.398  1.00  0.00     0.000 A 
HETATM   39  C   UNL     1      46.071 -10.459   8.269  1.00  0.00     0.002 A 
HETATM   40  C   UNL     1      45.302 -10.805   7.158  1.00  0.00     0.029 A 
ENDBRANCH  32  35
ENDBRANCH  10  31
TORSDOF 9
ENDMDL
MODEL 8
REMARK VINA RESULT:      -7.6      2.982      6.296
REMARK  9 active torsions:
REMARK  status: ('A' for Active; 'I' for Inactive)
REMARK    1  A    between atoms: C_6  and  C_7 
REMARK    2  A    between atoms: C_7  and  C_8 
REMARK       I    between atoms: C_8  and  N_9 
REMARK    3  A    between atoms: N_9  and  C_10 
REMARK    4  A    between atoms: C_10  and  C_11 
REMARK    5  A    between atoms: C_11  and  N_12 
REMARK    6  A    between atoms: C_17  and  C_18 
REMARK    7  A    between atoms: C_21  and  C_22 
REMARK    8  A    between atoms: C_29  and  C_30 
REMARK       I    between atoms: C_30  and  N_31 
REMARK    9  A    between atoms: N_31  and  C_32 
ROOT
HETATM    1  C   UNL     1      45.863  -8.878   7.960  1.00  0.00     0.071 C 
HETATM    2  C   UNL     1      44.379  -8.750   8.217  1.00  0.00     0.047 C 
HETATM    3  N   UNL     1      43.971  -7.431   8.357  1.00  0.00    -0.229 NA
HETATM    4  C   UNL     1      42.703  -7.201   8.344  1.00  0.00     0.170 C 
HETATM    5  N   UNL     1      41.608  -8.299   8.401  1.00  0.00    -0.319 N 
HETATM    6  C   UNL     1      40.444  -7.835   8.087  1.00  0.00     0.011 C 
HETATM    7  C   UNL     1      42.141  -9.569   8.943  1.00  0.00     0.165 C 
HETATM    8  S   UNL     1      42.009  -5.628   8.154  1.00  0.00    -0.086 SA
HETATM    9  C   UNL     1      40.413  -6.374   7.693  1.00  0.00     0.135 C 
HETATM   10  C   UNL     1      43.506  -9.783   8.304  1.00  0.00     0.062 C 
ENDROOT
BRANCH   6  11
HETATM   11  C   UNL     1      39.195  -8.666   8.156  1.00  0.00     0.156 C 
BRANCH  11  12
HETATM   12  C   UNL     1      39.117  -9.792   7.145  1.00  0.00     0.223 C 
HETATM   13  N   UNL     1      39.571  -9.460   5.894  1.00  0.00    -0.359 N 
HETATM   14  H   UNL     1      39.840  -8.491   5.735  1.00  0.00     0.162 HD
HETATM   15  O   UNL     1      38.649 -10.890   7.432  1.00  0.00    -0.273 OA
BRANCH  13  16
HETATM   16  C   UNL     1      39.390 -10.221   4.653  1.00  0.00     0.150 C 
BRANCH  16  17
HETATM   17  C   UNL     1      40.523 -10.223   3.605  1.00  0.00     0.253 C 
BRANCH  17  18
HETATM   18  N   UNL     1      40.697 -11.554   2.904  1.00  0.00    -0.077 N 
HETATM   19  H   UNL     1      41.153 -12.183   3.596  1.00  0.00     0.279 HD
HETATM   20  C   UNL     1      39.412 -12.205   2.470  1.00  0.00     0.269 C 
HETATM   21  C   UNL     1      41.654 -11.440   1.744  1.00  0.00     0.269 C 
ENDBRANCH  17  18
ENDBRANCH  16  17
ENDBRANCH  13  16
ENDBRANCH  11  12
ENDBRANCH   6  11
BRANCH   7  22
HETATM   22  C   UNL     1      42.145  -9.463  10.485  1.00  0.00    -0.030 A 
HETATM   23  C   UNL     1      40.938  -9.277  11.188  1.00  0.00     0.010 A 
HETATM   24  C   UNL     1      40.927  -8.949  12.550  1.00  0.00     0.008 A 
HETATM   25  C   UNL     1      42.119  -8.827  13.267  1.00  0.00    -0.055 A 
HETATM   26  C   UNL     1      43.316  -9.123  12.608  1.00  0.00     0.008 A 
HETATM   27  C   UNL     1      43.330  -9.440  11.244  1.00  0.00     0.010 A 
BRANCH  25  28
HETATM   28  C   UNL     1      42.096  -8.374  14.718  1.00  0.00     0.010 C 
HETATM   29  C   UNL     1      42.833  -7.050  14.914  1.00  0.00     0.015 C 
HETATM   30  C   UNL     1      40.662  -8.286  15.251  1.00  0.00     0.015 C 
ENDBRANCH  25  28
ENDBRANCH   7  22
BRANCH  10  31
HETATM   31  C   UNL     1      43.655 -11.137   7.671  1.00  0.00     0.256 C 
HETATM   32  N   UNL     1      42.945 -11.293   6.502  1.00  0.00    -0.323 N 
HETATM   33  H   UNL     1      42.656 -10.475   5.988  1.00  0.00     0.169 HD
HETATM   34  O   UNL     1      44.177 -12.024   8.334  1.00  0.00    -0.267 OA
BRANCH  32  35
HETATM   35  C   UNL     1      42.445 -12.486   5.938  1.00  0.00     0.035 A 
HETATM   36  C   UNL     1      41.191 -13.023   6.223  1.00  0.00     0.029 A 
HETATM   37  C   UNL     1      40.732 -14.142   5.518  1.00  0.00     0.002 A 
HETATM   38  C   UNL     1      41.528 -14.738   4.540  1.00  0.00     0.000 A 
HETATM   39  C   UNL     1      42.791 -14.224   4.270  1.00  0.00     0.002 A 
HETATM   40  C   UNL     1      43.245 -13.101   4.962  1.00  0.00     0.029 A 
ENDBRANCH  32  35
ENDBRANCH  10  31
TORSDOF 9
ENDMDL
MODEL 9
REMARK VINA RESULT:      -7.5      4.325      6.775
REMARK  9 active torsions:
REMARK  status: ('A' for Active; 'I' for Inactive)
REMARK    1  A    between atoms: C_6  and  C_7 
REMARK    2  A    between atoms: C_7  and  C_8 
REMARK       I    between atoms: C_8  and  N_9 
REMARK    3  A    between atoms: N_9  and  C_10 
REMARK    4  A    between atoms: C_10  and  C_11 
REMARK    5  A    between atoms: C_11  and  N_12 
REMARK    6  A    between atoms: C_17  and  C_18 
REMARK    7  A    between atoms: C_21  and  C_22 
REMARK    8  A    between atoms: C_29  and  C_30 
REMARK       I    between atoms: C_30  and  N_31 
REMARK    9  A    between atoms: N_31  and  C_32 
ROOT
HETATM    1  C   UNL     1      37.539 -12.983  -2.189  1.00  0.00     0.071 C 
HETATM    2  C   UNL     1      38.174 -12.145  -1.103  1.00  0.00     0.047 C 
HETATM    3  N   UNL     1      37.453 -10.993  -0.824  1.00  0.00    -0.229 NA
HETATM    4  C   UNL     1      37.778 -10.335   0.235  1.00  0.00     0.170 C 
HETATM    5  N   UNL     1      39.040 -10.615   1.094  1.00  0.00    -0.319 N 
HETATM    6  C   UNL     1      38.984 -10.022   2.240  1.00  0.00     0.011 C 
HETATM    7  C   UNL     1      40.059 -11.369   0.329  1.00  0.00     0.165 C 
HETATM    8  S   UNL     1      36.799  -9.095   0.940  1.00  0.00    -0.086 SA
HETATM    9  C   UNL     1      37.712  -9.247   2.508  1.00  0.00     0.135 C 
HETATM   10  C   UNL     1      39.318 -12.451  -0.444  1.00  0.00     0.062 C 
ENDROOT
BRANCH   6  11
HETATM   11  C   UNL     1      40.119 -10.050   3.222  1.00  0.00     0.156 C 
BRANCH  11  12
HETATM   12  C   UNL     1      40.283 -11.353   3.977  1.00  0.00     0.223 C 
HETATM   13  N   UNL     1      41.359 -11.382   4.826  1.00  0.00    -0.359 N 
HETATM   14  H   UNL     1      41.984 -10.578   4.818  1.00  0.00     0.162 HD
HETATM   15  O   UNL     1      39.526 -12.304   3.802  1.00  0.00    -0.273 OA
BRANCH  13  16
HETATM   16  C   UNL     1      41.937 -12.557   5.488  1.00  0.00     0.150 C 
BRANCH  16  17
HETATM   17  C   UNL     1      43.459 -12.600   5.742  1.00  0.00     0.253 C 
BRANCH  17  18
HETATM   18  N   UNL     1      44.032 -11.280   6.213  1.00  0.00    -0.077 N 
HETATM   19  H   UNL     1      43.698 -10.566   5.535  1.00  0.00     0.279 HD
HETATM   20  C   UNL     1      43.581 -10.855   7.584  1.00  0.00     0.269 C 
HETATM   21  C   UNL     1      45.537 -11.275   6.124  1.00  0.00     0.269 C 
ENDBRANCH  17  18
ENDBRANCH  16  17
ENDBRANCH  13  16
ENDBRANCH  11  12
ENDBRANCH   6  11
BRANCH   7  22
HETATM   22  C   UNL     1      40.846 -10.361  -0.538  1.00  0.00    -0.030 A 
HETATM   23  C   UNL     1      41.619  -9.352   0.070  1.00  0.00     0.010 A 
HETATM   24  C   UNL     1      42.154  -8.292  -0.672  1.00  0.00     0.008 A 
HETATM   25  C   UNL     1      41.963  -8.217  -2.053  1.00  0.00    -0.055 A 
HETATM   26  C   UNL     1      41.296  -9.272  -2.683  1.00  0.00     0.008 A 
HETATM   27  C   UNL     1      40.752 -10.327  -1.941  1.00  0.00     0.010 A 
BRANCH  25  28
HETATM   28  C   UNL     1      42.464  -7.010  -2.830  1.00  0.00     0.010 C 
HETATM   29  C   UNL     1      43.705  -6.392  -2.186  1.00  0.00     0.015 C 
HETATM   30  C   UNL     1      42.728  -7.362  -4.298  1.00  0.00     0.015 C 
ENDBRANCH  25  28
ENDBRANCH   7  22
BRANCH  10  31
HETATM   31  C   UNL     1      39.890 -13.824  -0.232  1.00  0.00     0.256 C 
HETATM   32  N   UNL     1      40.203 -14.107   1.079  1.00  0.00    -0.323 N 
HETATM   33  H   UNL     1      39.769 -13.572   1.815  1.00  0.00     0.169 HD
HETATM   34  O   UNL     1      40.235 -14.459  -1.220  1.00  0.00    -0.267 OA
BRANCH  32  35
HETATM   35  C   UNL     1      41.169 -15.011   1.568  1.00  0.00     0.035 A 
HETATM   36  C   UNL     1      40.871 -16.266   2.096  1.00  0.00     0.029 A 
HETATM   37  C   UNL     1      41.906 -17.145   2.439  1.00  0.00     0.002 A 
HETATM   38  C   UNL     1      43.238 -16.768   2.272  1.00  0.00     0.000 A 
HETATM   39  C   UNL     1      43.543 -15.508   1.772  1.00  0.00     0.002 A 
HETATM   40  C   UNL     1      42.513 -14.636   1.417  1.00  0.00     0.029 A 
ENDBRANCH  32  35
ENDBRANCH  10  31
TORSDOF 9
ENDMDL
MODEL 10
REMARK VINA RESULT:      -7.1      3.717      6.551
REMARK  9 active torsions:
REMARK  status: ('A' for Active; 'I' for Inactive)
REMARK    1  A    between atoms: C_6  and  C_7 
REMARK    2  A    between atoms: C_7  and  C_8 
REMARK       I    between atoms: C_8  and  N_9 
REMARK    3  A    between atoms: N_9  and  C_10 
REMARK    4  A    between atoms: C_10  and  C_11 
REMARK    5  A    between atoms: C_11  and  N_12 
REMARK    6  A    between atoms: C_17  and  C_18 
REMARK    7  A    between atoms: C_21  and  C_22 
REMARK    8  A    between atoms: C_29  and  C_30 
REMARK       I    between atoms: C_30  and  N_31 
REMARK    9  A    between atoms: N_31  and  C_32 
ROOT
HETATM    1  C   UNL     1      36.858 -11.462   0.708  1.00  0.00     0.071 C 
HETATM    2  C   UNL     1      38.063 -10.893   1.422  1.00  0.00     0.047 C 
HETATM    3  N   UNL     1      37.775  -9.723   2.111  1.00  0.00    -0.229 NA
HETATM    4  C   UNL     1      38.665  -9.290   2.935  1.00  0.00     0.170 C 
HETATM    5  N   UNL     1      40.106  -9.854   3.054  1.00  0.00    -0.319 N 
HETATM    6  C   UNL     1      40.693  -9.453   4.133  1.00  0.00     0.011 C 
HETATM    7  C   UNL     1      40.501 -10.592   1.833  1.00  0.00     0.165 C 
HETATM    8  S   UNL     1      38.365  -8.071   4.127  1.00  0.00    -0.086 SA
HETATM    9  C   UNL     1      39.853  -8.585   5.044  1.00  0.00     0.135 C 
HETATM   10  C   UNL     1      39.304 -11.437   1.421  1.00  0.00     0.062 C 
ENDROOT
BRANCH   6  11
HETATM   11  C   UNL     1      42.126  -9.775   4.442  1.00  0.00     0.156 C 
BRANCH  11  12
HETATM   12  C   UNL     1      42.331 -10.878   5.461  1.00  0.00     0.223 C 
HETATM   13  N   UNL     1      41.905 -12.114   5.047  1.00  0.00    -0.359 N 
HETATM   14  H   UNL     1      41.429 -12.170   4.148  1.00  0.00     0.162 HD
HETATM   15  O   UNL     1      42.805 -10.657   6.571  1.00  0.00    -0.273 OA
BRANCH  13  16
HETATM   16  C   UNL     1      41.722 -13.313   5.873  1.00  0.00     0.150 C 
BRANCH  16  17
HETATM   17  C   UNL     1      42.668 -14.514   5.669  1.00  0.00     0.253 C 
BRANCH  17  18
HETATM   18  N   UNL     1      42.011 -15.854   5.927  1.00  0.00    -0.077 N 
HETATM   19  H   UNL     1      41.934 -16.317   4.999  1.00  0.00     0.279 HD
HETATM   20  C   UNL     1      42.790 -16.769   6.832  1.00  0.00     0.269 C 
HETATM   21  C   UNL     1      40.600 -15.683   6.431  1.00  0.00     0.269 C 
ENDBRANCH  17  18
ENDBRANCH  16  17
ENDBRANCH  13  16
ENDBRANCH  11  12
ENDBRANCH   6  11
BRANCH   7  22
HETATM   22  C   UNL     1      40.970  -9.558   0.785  1.00  0.00    -0.030 A 
HETATM   23  C   UNL     1      41.632  -9.981  -0.385  1.00  0.00     0.010 A 
HETATM   24  C   UNL     1      42.268  -9.069  -1.237  1.00  0.00     0.008 A 
HETATM   25  C   UNL     1      42.239  -7.699  -0.970  1.00  0.00    -0.055 A 
HETATM   26  C   UNL     1      41.488  -7.258   0.124  1.00  0.00     0.008 A 
HETATM   27  C   UNL     1      40.861  -8.169   0.982  1.00  0.00     0.010 A 
BRANCH  25  28
HETATM   28  C   UNL     1      43.017  -6.732  -1.848  1.00  0.00     0.010 C 
HETATM   29  C   UNL     1      42.732  -6.954  -3.333  1.00  0.00     0.015 C 
HETATM   30  C   UNL     1      42.746  -5.276  -1.451  1.00  0.00     0.015 C 
ENDBRANCH  25  28
ENDBRANCH   7  22
BRANCH  10  31
HETATM   31  C   UNL     1      39.648 -12.884   1.214  1.00  0.00     0.256 C 
HETATM   32  N   UNL     1      40.271 -13.474   2.291  1.00  0.00    -0.323 N 
HETATM   33  H   UNL     1      40.176 -13.057   3.204  1.00  0.00     0.169 HD
HETATM   34  O   UNL     1      39.566 -13.335   0.079  1.00  0.00    -0.267 OA
BRANCH  32  35
HETATM   35  C   UNL     1      41.152 -14.577   2.292  1.00  0.00     0.035 A 
HETATM   36  C   UNL     1      40.765 -15.889   2.555  1.00  0.00     0.029 A 
HETATM   37  C   UNL     1      41.685 -16.934   2.408  1.00  0.00     0.002 A 
HETATM   38  C   UNL     1      42.997 -16.670   2.014  1.00  0.00     0.000 A 
HETATM   39  C   UNL     1      43.397 -15.360   1.776  1.00  0.00     0.002 A 
HETATM   40  C   UNL     1      42.478 -14.319   1.910  1.00  0.00     0.029 A 
ENDBRANCH  32  35
ENDBRANCH  10  31
TORSDOF 9
ENDMDL
