MODEL 1
REMARK VINA RESULT:      -8.3      0.000      0.000
REMARK  8 active torsions:
REMARK  status: ('A' for Active; 'I' for Inactive)
REMARK    1  A    between atoms: C_2  and  O_3 
REMARK    2  A    between atoms: O_3  and  C_4 
REMARK    3  A    between atoms: C_4  and  C_5 
REMARK    4  A    between atoms: C_5  and  C_6 
REMARK    5  A    between atoms: C_6  and  N_7 
REMARK    6  A    between atoms: C_12  and  C_13 
REMARK    7  A    between atoms: C_23  and  C_24 
REMARK    8  A    between atoms: C_25  and  O_26 
ROOT
HETATM    1  N   UNL     1      40.762 -12.439   4.710  1.00  0.00    -0.334 N 
HETATM    2  C   UNL     1      40.098 -12.921   5.841  1.00  0.00     0.273 A 
HETATM    3  O   UNL     1      39.381 -12.318   6.620  1.00  0.00    -0.266 OA
HETATM    4  C   UNL     1      40.493 -14.277   5.898  1.00  0.00     0.129 A 
HETATM    5  C   UNL     1      41.342 -14.632   4.892  1.00  0.00     0.034 A 
HETATM    6  C   UNL     1      41.594 -13.460   4.017  1.00  0.00     0.159 A 
HETATM    7  N   UNL     1      40.288 -15.349   6.671  1.00  0.00    -0.272 N 
HETATM    8  H   UNL     1      39.713 -15.440   7.505  1.00  0.00     0.189 HD
HETATM    9  N   UNL     1      40.976 -16.426   6.214  1.00  0.00    -0.173 NA
HETATM   10  C   UNL     1      41.650 -15.988   5.115  1.00  0.00     0.101 A 
ENDROOT
BRANCH  10  11
HETATM   11  C   UNL     1      42.517 -16.910   4.361  1.00  0.00     0.028 A 
HETATM   12  C   UNL     1      43.579 -17.596   4.982  1.00  0.00     0.078 A 
HETATM   13  C   UNL     1      44.387 -18.488   4.276  1.00  0.00     0.037 A 
HETATM   14  C   UNL     1      44.153 -18.712   2.923  1.00  0.00     0.003 A 
HETATM   15  C   UNL     1      43.118 -18.037   2.280  1.00  0.00     0.001 A 
HETATM   16  C   UNL     1      42.312 -17.140   2.991  1.00  0.00     0.017 A 
BRANCH  12  17
HETATM   17  O   UNL     1      43.894 -17.435   6.308  1.00  0.00    -0.360 OA
HETATM   18  H   UNL     1      43.707 -16.491   6.518  1.00  0.00     0.217 HD
ENDBRANCH  12  17
ENDBRANCH  10  11
BRANCH   6  19
HETATM   19  C   UNL     1      41.112 -13.762   2.614  1.00  0.00    -0.031 A 
HETATM   20  C   UNL     1      40.146 -14.741   2.316  1.00  0.00     0.011 A 
HETATM   21  C   UNL     1      39.737 -14.968   0.999  1.00  0.00     0.024 A 
HETATM   22  C   UNL     1      40.269 -14.205  -0.036  1.00  0.00     0.034 A 
HETATM   23 CL   UNL     1      39.763 -14.482  -1.656  1.00  0.00    -0.084 Cl
HETATM   24  C   UNL     1      41.204 -13.210   0.236  1.00  0.00     0.024 A 
HETATM   25  C   UNL     1      41.618 -12.989   1.552  1.00  0.00     0.011 A 
ENDBRANCH   6  19
BRANCH   1  26
HETATM   26  C   UNL     1      40.778 -11.039   4.330  1.00  0.00     0.129 C 
BRANCH  26  27
HETATM   27  C   UNL     1      42.181 -10.428   4.298  1.00  0.00     0.046 C 
BRANCH  27  28
HETATM   28  C   UNL     1      42.967 -10.600   5.593  1.00  0.00     0.169 C 
BRANCH  28  29
HETATM   29  O   UNL     1      44.271 -11.097   5.295  1.00  0.00    -0.387 OA
BRANCH  29  30
HETATM   30  C   UNL     1      44.846 -11.891   6.339  1.00  0.00     0.113 C 
HETATM   31  C   UNL     1      43.831 -12.837   6.974  1.00  0.00     0.039 C 
HETATM   32  C   UNL     1      45.377 -10.918   7.388  1.00  0.00     0.039 C 
ENDBRANCH  29  30
ENDBRANCH  28  29
ENDBRANCH  27  28
ENDBRANCH  26  27
ENDBRANCH   1  26
TORSDOF 8
ENDMDL
MODEL 2
REMARK VINA RESULT:      -8.2      2.304      2.969
REMARK  8 active torsions:
REMARK  status: ('A' for Active; 'I' for Inactive)
REMARK    1  A    between atoms: C_2  and  O_3 
REMARK    2  A    between atoms: O_3  and  C_4 
REMARK    3  A    between atoms: C_4  and  C_5 
REMARK    4  A    between atoms: C_5  and  C_6 
REMARK    5  A    between atoms: C_6  and  N_7 
REMARK    6  A    between atoms: C_12  and  C_13 
REMARK    7  A    between atoms: C_23  and  C_24 
REMARK    8  A    between atoms: C_25  and  O_26 
ROOT
HETATM    1  N   UNL     1      43.546 -14.276   5.857  1.00  0.00    -0.334 N 
HETATM    2  C   UNL     1      43.279 -14.846   7.105  1.00  0.00     0.273 A 
HETATM    3  O   UNL     1      43.140 -14.295   8.182  1.00  0.00    -0.266 OA
HETATM    4  C   UNL     1      43.255 -16.233   6.831  1.00  0.00     0.129 A 
HETATM    5  C   UNL     1      43.490 -16.526   5.520  1.00  0.00     0.034 A 
HETATM    6  C   UNL     1      43.699 -15.269   4.760  1.00  0.00     0.159 A 
HETATM    7  N   UNL     1      43.075 -17.382   7.491  1.00  0.00    -0.272 N 
HETATM    8  H   UNL     1      42.881 -17.533   8.478  1.00  0.00     0.189 HD
HETATM    9  N   UNL     1      43.181 -18.450   6.661  1.00  0.00    -0.173 NA
HETATM   10  C   UNL     1      43.455 -17.932   5.432  1.00  0.00     0.101 A 
ENDROOT
BRANCH  10  11
HETATM   11  C   UNL     1      43.643 -18.823   4.276  1.00  0.00     0.028 A 
HETATM   12  C   UNL     1      44.065 -20.159   4.435  1.00  0.00     0.078 A 
HETATM   13  C   UNL     1      44.220 -21.013   3.344  1.00  0.00     0.037 A 
HETATM   14  C   UNL     1      43.962 -20.548   2.058  1.00  0.00     0.003 A 
HETATM   15  C   UNL     1      43.557 -19.229   1.869  1.00  0.00     0.001 A 
HETATM   16  C   UNL     1      43.406 -18.374   2.967  1.00  0.00     0.017 A 
BRANCH  12  17
HETATM   17  O   UNL     1      44.352 -20.706   5.661  1.00  0.00    -0.360 OA
HETATM   18  H   UNL     1      43.542 -21.196   5.935  1.00  0.00     0.217 HD
ENDBRANCH  12  17
ENDBRANCH  10  11
BRANCH   6  19
HETATM   19  C   UNL     1      42.634 -15.139   3.692  1.00  0.00    -0.031 A 
HETATM   20  C   UNL     1      41.267 -15.385   3.922  1.00  0.00     0.011 A 
HETATM   21  C   UNL     1      40.329 -15.242   2.895  1.00  0.00     0.024 A 
HETATM   22  C   UNL     1      40.739 -14.827   1.632  1.00  0.00     0.034 A 
HETATM   23 CL   UNL     1      39.584 -14.646   0.371  1.00  0.00    -0.084 Cl
HETATM   24  C   UNL     1      42.080 -14.548   1.387  1.00  0.00     0.024 A 
HETATM   25  C   UNL     1      43.019 -14.700   2.411  1.00  0.00     0.011 A 
ENDBRANCH   6  19
BRANCH   1  26
HETATM   26  C   UNL     1      43.813 -12.863   5.666  1.00  0.00     0.129 C 
BRANCH  26  27
HETATM   27  C   UNL     1      44.913 -12.317   6.579  1.00  0.00     0.046 C 
BRANCH  27  28
HETATM   28  C   UNL     1      44.501 -11.094   7.392  1.00  0.00     0.169 C 
BRANCH  28  29
HETATM   29  O   UNL     1      44.968 -11.237   8.732  1.00  0.00    -0.387 OA
BRANCH  29  30
HETATM   30  C   UNL     1      45.463 -10.024   9.311  1.00  0.00     0.113 C 
HETATM   31  C   UNL     1      44.373  -9.242  10.040  1.00  0.00     0.039 C 
HETATM   32  C   UNL     1      46.022  -9.187   8.164  1.00  0.00     0.039 C 
ENDBRANCH  29  30
ENDBRANCH  28  29
ENDBRANCH  27  28
ENDBRANCH  26  27
ENDBRANCH   1  26
TORSDOF 8
ENDMDL
MODEL 3
REMARK VINA RESULT:      -8.0      2.717      5.767
REMARK  8 active torsions:
REMARK  status: ('A' for Active; 'I' for Inactive)
REMARK    1  A    between atoms: C_2  and  O_3 
REMARK    2  A    between atoms: O_3  and  C_4 
REMARK    3  A    between atoms: C_4  and  C_5 
REMARK    4  A    between atoms: C_5  and  C_6 
REMARK    5  A    between atoms: C_6  and  N_7 
REMARK    6  A    between atoms: C_12  and  C_13 
REMARK    7  A    between atoms: C_23  and  C_24 
REMARK    8  A    between atoms: C_25  and  O_26 
ROOT
HETATM    1  N   UNL     1      41.680 -12.159   4.114  1.00  0.00    -0.334 N 
HETATM    2  C   UNL     1      42.225 -10.962   3.643  1.00  0.00     0.273 A 
HETATM    3  O   UNL     1      42.865 -10.122   4.251  1.00  0.00    -0.266 OA
HETATM    4  C   UNL     1      41.817 -10.928   2.290  1.00  0.00     0.129 A 
HETATM    5  C   UNL     1      41.070 -12.010   1.927  1.00  0.00     0.034 A 
HETATM    6  C   UNL     1      40.914 -12.919   3.090  1.00  0.00     0.159 A 
HETATM    7  N   UNL     1      41.937 -10.126   1.226  1.00  0.00    -0.272 N 
HETATM    8  H   UNL     1      42.425  -9.238   1.142  1.00  0.00     0.189 HD
HETATM    9  N   UNL     1      41.290 -10.637   0.148  1.00  0.00    -0.173 NA
HETATM   10  C   UNL     1      40.732 -11.803   0.575  1.00  0.00     0.101 A 
ENDROOT
BRANCH  10  11
HETATM   11  C   UNL     1      39.938 -12.629  -0.351  1.00  0.00     0.028 A 
HETATM   12  C   UNL     1      38.907 -12.074  -1.135  1.00  0.00     0.078 A 
HETATM   13  C   UNL     1      38.170 -12.849  -2.030  1.00  0.00     0.037 A 
HETATM   14  C   UNL     1      38.444 -14.206  -2.160  1.00  0.00     0.003 A 
HETATM   15  C   UNL     1      39.449 -14.785  -1.388  1.00  0.00     0.001 A 
HETATM   16  C   UNL     1      40.184 -14.004  -0.488  1.00  0.00     0.017 A 
BRANCH  12  17
HETATM   17  O   UNL     1      38.557 -10.748  -1.071  1.00  0.00    -0.360 OA
HETATM   18  H   UNL     1      38.147 -10.534  -1.941  1.00  0.00     0.217 HD
ENDBRANCH  12  17
ENDBRANCH  10  11
BRANCH   6  19
HETATM   19  C   UNL     1      41.531 -14.263   2.768  1.00  0.00    -0.031 A 
HETATM   20  C   UNL     1      42.844 -14.423   2.287  1.00  0.00     0.011 A 
HETATM   21  C   UNL     1      43.359 -15.694   2.014  1.00  0.00     0.024 A 
HETATM   22  C   UNL     1      42.579 -16.823   2.242  1.00  0.00     0.034 A 
HETATM   23 CL   UNL     1      43.215 -18.387   1.910  1.00  0.00    -0.084 Cl
HETATM   24  C   UNL     1      41.289 -16.694   2.745  1.00  0.00     0.024 A 
HETATM   25  C   UNL     1      40.771 -15.424   3.010  1.00  0.00     0.011 A 
ENDBRANCH   6  19
BRANCH   1  26
HETATM   26  C   UNL     1      41.711 -12.555   5.510  1.00  0.00     0.129 C 
BRANCH  26  27
HETATM   27  C   UNL     1      43.115 -12.876   6.026  1.00  0.00     0.046 C 
BRANCH  27  28
HETATM   28  C   UNL     1      43.159 -13.986   7.070  1.00  0.00     0.169 C 
BRANCH  28  29
HETATM   29  O   UNL     1      44.024 -15.028   6.621  1.00  0.00    -0.387 OA
BRANCH  29  30
HETATM   30  C   UNL     1      43.402 -15.960   5.730  1.00  0.00     0.113 C 
HETATM   31  C   UNL     1      42.136 -16.572   6.323  1.00  0.00     0.039 C 
HETATM   32  C   UNL     1      44.428 -17.056   5.456  1.00  0.00     0.039 C 
ENDBRANCH  29  30
ENDBRANCH  28  29
ENDBRANCH  27  28
ENDBRANCH  26  27
ENDBRANCH   1  26
TORSDOF 8
ENDMDL
MODEL 4
REMARK VINA RESULT:      -7.6      2.909      4.322
REMARK  8 active torsions:
REMARK  status: ('A' for Active; 'I' for Inactive)
REMARK    1  A    between atoms: C_2  and  O_3 
REMARK    2  A    between atoms: O_3  and  C_4 
REMARK    3  A    between atoms: C_4  and  C_5 
REMARK    4  A    between atoms: C_5  and  C_6 
REMARK    5  A    between atoms: C_6  and  N_7 
REMARK    6  A    between atoms: C_12  and  C_13 
REMARK    7  A    between atoms: C_23  and  C_24 
REMARK    8  A    between atoms: C_25  and  O_26 
ROOT
HETATM    1  N   UNL     1      39.677 -12.443   4.114  1.00  0.00    -0.334 N 
HETATM    2  C   UNL     1      39.312 -12.808   2.816  1.00  0.00     0.273 A 
HETATM    3  O   UNL     1      38.569 -12.232   2.042  1.00  0.00    -0.266 OA
HETATM    4  C   UNL     1      39.978 -14.040   2.624  1.00  0.00     0.129 A 
HETATM    5  C   UNL     1      40.704 -14.433   3.710  1.00  0.00     0.034 A 
HETATM    6  C   UNL     1      40.577 -13.420   4.786  1.00  0.00     0.159 A 
HETATM    7  N   UNL     1      40.107 -14.973   1.674  1.00  0.00    -0.272 N 
HETATM    8  H   UNL     1      39.702 -15.001   0.741  1.00  0.00     0.189 HD
HETATM    9  N   UNL     1      40.905 -15.990   2.086  1.00  0.00    -0.173 NA
HETATM   10  C   UNL     1      41.271 -15.674   3.359  1.00  0.00     0.101 A 
ENDROOT
BRANCH  10  11
HETATM   11  C   UNL     1      42.146 -16.578   4.125  1.00  0.00     0.028 A 
HETATM   12  C   UNL     1      43.156 -17.333   3.497  1.00  0.00     0.078 A 
HETATM   13  C   UNL     1      44.002 -18.171   4.223  1.00  0.00     0.037 A 
HETATM   14  C   UNL     1      43.854 -18.279   5.602  1.00  0.00     0.003 A 
HETATM   15  C   UNL     1      42.856 -17.553   6.248  1.00  0.00     0.001 A 
HETATM   16  C   UNL     1      42.006 -16.716   5.515  1.00  0.00     0.017 A 
BRANCH  12  17
HETATM   17  O   UNL     1      43.374 -17.302   2.142  1.00  0.00    -0.360 OA
HETATM   18  H   UNL     1      44.241 -17.747   1.997  1.00  0.00     0.217 HD
ENDBRANCH  12  17
ENDBRANCH  10  11
BRANCH   6  19
HETATM   19  C   UNL     1      41.940 -12.846   5.105  1.00  0.00    -0.031 A 
HETATM   20  C   UNL     1      42.606 -11.916   4.284  1.00  0.00     0.011 A 
HETATM   21  C   UNL     1      43.863 -11.416   4.637  1.00  0.00     0.024 A 
HETATM   22  C   UNL     1      44.462 -11.820   5.826  1.00  0.00     0.034 A 
HETATM   23 CL   UNL     1      46.007 -11.202   6.262  1.00  0.00    -0.084 Cl
HETATM   24  C   UNL     1      43.812 -12.715   6.670  1.00  0.00     0.024 A 
HETATM   25  C   UNL     1      42.559 -13.220   6.313  1.00  0.00     0.011 A 
ENDBRANCH   6  19
BRANCH   1  26
HETATM   26  C   UNL     1      39.110 -11.305   4.814  1.00  0.00     0.129 C 
BRANCH  26  27
HETATM   27  C   UNL     1      38.987 -11.512   6.325  1.00  0.00     0.046 C 
BRANCH  27  28
HETATM   28  C   UNL     1      39.449 -10.322   7.159  1.00  0.00     0.169 C 
BRANCH  28  29
HETATM   29  O   UNL     1      40.874 -10.286   7.187  1.00  0.00    -0.387 OA
BRANCH  29  30
HETATM   30  C   UNL     1      41.429  -8.977   7.013  1.00  0.00     0.113 C 
HETATM   31  C   UNL     1      41.510  -8.571   5.545  1.00  0.00     0.039 C 
HETATM   32  C   UNL     1      42.829  -9.010   7.620  1.00  0.00     0.039 C 
ENDBRANCH  29  30
ENDBRANCH  28  29
ENDBRANCH  27  28
ENDBRANCH  26  27
ENDBRANCH   1  26
TORSDOF 8
ENDMDL
MODEL 5
REMARK VINA RESULT:      -7.5      1.912      3.438
REMARK  8 active torsions:
REMARK  status: ('A' for Active; 'I' for Inactive)
REMARK    1  A    between atoms: C_2  and  O_3 
REMARK    2  A    between atoms: O_3  and  C_4 
REMARK    3  A    between atoms: C_4  and  C_5 
REMARK    4  A    between atoms: C_5  and  C_6 
REMARK    5  A    between atoms: C_6  and  N_7 
REMARK    6  A    between atoms: C_12  and  C_13 
REMARK    7  A    between atoms: C_23  and  C_24 
REMARK    8  A    between atoms: C_25  and  O_26 
ROOT
HETATM    1  N   UNL     1      42.840 -12.332   4.621  1.00  0.00    -0.334 N 
HETATM    2  C   UNL     1      42.403 -12.340   5.948  1.00  0.00     0.273 A 
HETATM    3  O   UNL     1      42.084 -11.399   6.653  1.00  0.00    -0.266 OA
HETATM    4  C   UNL     1      42.461 -13.708   6.302  1.00  0.00     0.129 A 
HETATM    5  C   UNL     1      42.902 -14.506   5.288  1.00  0.00     0.034 A 
HETATM    6  C   UNL     1      43.188 -13.677   4.091  1.00  0.00     0.159 A 
HETATM    7  N   UNL     1      42.217 -14.479   7.367  1.00  0.00    -0.272 N 
HETATM    8  H   UNL     1      41.879 -14.214   8.289  1.00  0.00     0.189 HD
HETATM    9  N   UNL     1      42.480 -15.784   7.102  1.00  0.00    -0.173 NA
HETATM   10  C   UNL     1      42.923 -15.813   5.815  1.00  0.00     0.101 A 
ENDROOT
BRANCH  10  11
HETATM   11  C   UNL     1      43.312 -17.090   5.192  1.00  0.00     0.028 A 
HETATM   12  C   UNL     1      43.521 -18.251   5.962  1.00  0.00     0.078 A 
HETATM   13  C   UNL     1      43.865 -19.468   5.373  1.00  0.00     0.037 A 
HETATM   14  C   UNL     1      44.015 -19.552   3.993  1.00  0.00     0.003 A 
HETATM   15  C   UNL     1      43.827 -18.416   3.208  1.00  0.00     0.001 A 
HETATM   16  C   UNL     1      43.485 -17.196   3.803  1.00  0.00     0.017 A 
BRANCH  12  17
HETATM   17  O   UNL     1      43.407 -18.267   7.330  1.00  0.00    -0.360 OA
HETATM   18  H   UNL     1      43.763 -19.138   7.622  1.00  0.00     0.217 HD
ENDBRANCH  12  17
ENDBRANCH  10  11
BRANCH   6  19
HETATM   19  C   UNL     1      42.294 -14.112   2.949  1.00  0.00    -0.031 A 
HETATM   20  C   UNL     1      42.780 -14.541   1.699  1.00  0.00     0.011 A 
HETATM   21  C   UNL     1      41.903 -14.937   0.685  1.00  0.00     0.024 A 
HETATM   22  C   UNL     1      40.530 -14.935   0.914  1.00  0.00     0.034 A 
HETATM   23 CL   UNL     1      39.451 -15.426  -0.332  1.00  0.00    -0.084 Cl
HETATM   24  C   UNL     1      40.026 -14.544   2.151  1.00  0.00     0.024 A 
HETATM   25  C   UNL     1      40.903 -14.140   3.161  1.00  0.00     0.011 A 
ENDBRANCH   6  19
BRANCH   1  26
HETATM   26  C   UNL     1      43.091 -11.115   3.871  1.00  0.00     0.129 C 
BRANCH  26  27
HETATM   27  C   UNL     1      41.820 -10.448   3.340  1.00  0.00     0.046 C 
BRANCH  27  28
HETATM   28  C   UNL     1      41.549 -10.707   1.862  1.00  0.00     0.169 C 
BRANCH  28  29
HETATM   29  O   UNL     1      40.145 -10.859   1.656  1.00  0.00    -0.387 OA
BRANCH  29  30
HETATM   30  C   UNL     1      39.762 -10.950   0.280  1.00  0.00     0.113 C 
HETATM   31  C   UNL     1      38.552 -11.855   0.072  1.00  0.00     0.039 C 
HETATM   32  C   UNL     1      40.965 -11.511  -0.474  1.00  0.00     0.039 C 
ENDBRANCH  29  30
ENDBRANCH  28  29
ENDBRANCH  27  28
ENDBRANCH  26  27
ENDBRANCH   1  26
TORSDOF 8
ENDMDL
MODEL 6
REMARK VINA RESULT:      -7.5      2.717      5.451
REMARK  8 active torsions:
REMARK  status: ('A' for Active; 'I' for Inactive)
REMARK    1  A    between atoms: C_2  and  O_3 
REMARK    2  A    between atoms: O_3  and  C_4 
REMARK    3  A    between atoms: C_4  and  C_5 
REMARK    4  A    between atoms: C_5  and  C_6 
REMARK    5  A    between atoms: C_6  and  N_7 
REMARK    6  A    between atoms: C_12  and  C_13 
REMARK    7  A    between atoms: C_23  and  C_24 
REMARK    8  A    between atoms: C_25  and  O_26 
ROOT
HETATM    1  N   UNL     1      41.272 -12.058   4.138  1.00  0.00    -0.334 N 
HETATM    2  C   UNL     1      41.895 -10.893   3.683  1.00  0.00     0.273 A 
HETATM    3  O   UNL     1      42.501 -10.052   4.321  1.00  0.00    -0.266 OA
HETATM    4  C   UNL     1      41.617 -10.895   2.296  1.00  0.00     0.129 A 
HETATM    5  C   UNL     1      40.874 -11.968   1.899  1.00  0.00     0.034 A 
HETATM    6  C   UNL     1      40.582 -12.831   3.070  1.00  0.00     0.159 A 
HETATM    7  N   UNL     1      41.860 -10.133   1.224  1.00  0.00    -0.272 N 
HETATM    8  H   UNL     1      42.381  -9.262   1.158  1.00  0.00     0.189 HD
HETATM    9  N   UNL     1      41.302 -10.663   0.106  1.00  0.00    -0.173 NA
HETATM   10  C   UNL     1      40.671 -11.798   0.515  1.00  0.00     0.101 A 
ENDROOT
BRANCH  10  11
HETATM   11  C   UNL     1      39.942 -12.633  -0.454  1.00  0.00     0.028 A 
HETATM   12  C   UNL     1      39.028 -12.072  -1.369  1.00  0.00     0.078 A 
HETATM   13  C   UNL     1      38.355 -12.857  -2.305  1.00  0.00     0.037 A 
HETATM   14  C   UNL     1      38.576 -14.230  -2.346  1.00  0.00     0.003 A 
HETATM   15  C   UNL     1      39.464 -14.813  -1.445  1.00  0.00     0.001 A 
HETATM   16  C   UNL     1      40.135 -14.022  -0.504  1.00  0.00     0.017 A 
BRANCH  12  17
HETATM   17  O   UNL     1      38.736 -10.731  -1.401  1.00  0.00    -0.360 OA
HETATM   18  H   UNL     1      38.473 -10.534  -2.330  1.00  0.00     0.217 HD
ENDBRANCH  12  17
ENDBRANCH  10  11
BRANCH   6  19
HETATM   19  C   UNL     1      41.185 -14.202   2.850  1.00  0.00    -0.031 A 
HETATM   20  C   UNL     1      40.464 -15.403   2.996  1.00  0.00     0.011 A 
HETATM   21  C   UNL     1      41.076 -16.640   2.772  1.00  0.00     0.024 A 
HETATM   22  C   UNL     1      42.409 -16.693   2.376  1.00  0.00     0.034 A 
HETATM   23 CL   UNL     1      43.160 -18.216   2.097  1.00  0.00    -0.084 Cl
HETATM   24  C   UNL     1      43.135 -15.520   2.196  1.00  0.00     0.024 A 
HETATM   25  C   UNL     1      42.525 -14.285   2.428  1.00  0.00     0.011 A 
ENDBRANCH   6  19
BRANCH   1  26
HETATM   26  C   UNL     1      41.160 -12.407   5.542  1.00  0.00     0.129 C 
BRANCH  26  27
HETATM   27  C   UNL     1      42.124 -13.512   5.978  1.00  0.00     0.046 C 
BRANCH  27  28
HETATM   28  C   UNL     1      43.571 -13.056   6.129  1.00  0.00     0.169 C 
BRANCH  28  29
HETATM   29  O   UNL     1      43.612 -11.845   6.882  1.00  0.00    -0.387 OA
BRANCH  29  30
HETATM   30  C   UNL     1      44.893 -11.552   7.450  1.00  0.00     0.113 C 
HETATM   31  C   UNL     1      44.847 -10.360   8.401  1.00  0.00     0.039 C 
HETATM   32  C   UNL     1      45.831 -11.251   6.285  1.00  0.00     0.039 C 
ENDBRANCH  29  30
ENDBRANCH  28  29
ENDBRANCH  27  28
ENDBRANCH  26  27
ENDBRANCH   1  26
TORSDOF 8
ENDMDL
MODEL 7
REMARK VINA RESULT:      -7.4      3.856      7.244
REMARK  8 active torsions:
REMARK  status: ('A' for Active; 'I' for Inactive)
REMARK    1  A    between atoms: C_2  and  O_3 
REMARK    2  A    between atoms: O_3  and  C_4 
REMARK    3  A    between atoms: C_4  and  C_5 
REMARK    4  A    between atoms: C_5  and  C_6 
REMARK    5  A    between atoms: C_6  and  N_7 
REMARK    6  A    between atoms: C_12  and  C_13 
REMARK    7  A    between atoms: C_23  and  C_24 
REMARK    8  A    between atoms: C_25  and  O_26 
ROOT
HETATM    1  N   UNL     1      41.165 -14.487   2.105  1.00  0.00    -0.334 N 
HETATM    2  C   UNL     1      40.352 -15.462   1.522  1.00  0.00     0.273 A 
HETATM    3  O   UNL     1      40.089 -16.580   1.927  1.00  0.00    -0.266 OA
HETATM    4  C   UNL     1      39.937 -14.860   0.312  1.00  0.00     0.129 A 
HETATM    5  C   UNL     1      40.445 -13.606   0.135  1.00  0.00     0.034 A 
HETATM    6  C   UNL     1      41.294 -13.245   1.297  1.00  0.00     0.159 A 
HETATM    7  N   UNL     1      39.182 -15.160  -0.751  1.00  0.00    -0.272 N 
HETATM    8  H   UNL     1      38.657 -16.008  -0.947  1.00  0.00     0.189 HD
HETATM    9  N   UNL     1      39.162 -14.140  -1.646  1.00  0.00    -0.173 NA
HETATM   10  C   UNL     1      39.958 -13.172  -1.114  1.00  0.00     0.101 A 
ENDROOT
BRANCH  10  11
HETATM   11  C   UNL     1      40.172 -11.907  -1.837  1.00  0.00     0.028 A 
HETATM   12  C   UNL     1      40.948 -11.851  -3.012  1.00  0.00     0.078 A 
HETATM   13  C   UNL     1      41.131 -10.659  -3.712  1.00  0.00     0.037 A 
HETATM   14  C   UNL     1      40.544  -9.486  -3.249  1.00  0.00     0.003 A 
HETATM   15  C   UNL     1      39.783  -9.509  -2.083  1.00  0.00     0.001 A 
HETATM   16  C   UNL     1      39.604 -10.707  -1.381  1.00  0.00     0.017 A 
BRANCH  12  17
HETATM   17  O   UNL     1      41.575 -12.952  -3.542  1.00  0.00    -0.360 OA
HETATM   18  H   UNL     1      42.355 -13.123  -2.965  1.00  0.00     0.217 HD
ENDBRANCH  12  17
ENDBRANCH  10  11
BRANCH   6  19
HETATM   19  C   UNL     1      40.717 -12.028   1.986  1.00  0.00    -0.031 A 
HETATM   20  C   UNL     1      39.499 -12.035   2.690  1.00  0.00     0.011 A 
HETATM   21  C   UNL     1      39.021 -10.878   3.313  1.00  0.00     0.024 A 
HETATM   22  C   UNL     1      39.766  -9.704   3.262  1.00  0.00     0.034 A 
HETATM   23 CL   UNL     1      39.180  -8.282   4.031  1.00  0.00    -0.084 Cl
HETATM   24  C   UNL     1      40.988  -9.678   2.597  1.00  0.00     0.024 A 
HETATM   25  C   UNL     1      41.461 -10.832   1.969  1.00  0.00     0.011 A 
ENDBRANCH   6  19
BRANCH   1  26
HETATM   26  C   UNL     1      41.946 -14.713   3.308  1.00  0.00     0.129 C 
BRANCH  26  27
HETATM   27  C   UNL     1      43.270 -15.436   3.052  1.00  0.00     0.046 C 
BRANCH  27  28
HETATM   28  C   UNL     1      43.363 -16.817   3.691  1.00  0.00     0.169 C 
BRANCH  28  29
HETATM   29  O   UNL     1      43.124 -17.815   2.701  1.00  0.00    -0.387 OA
BRANCH  29  30
HETATM   30  C   UNL     1      43.978 -18.960   2.807  1.00  0.00     0.113 C 
HETATM   31  C   UNL     1      43.371 -20.199   2.154  1.00  0.00     0.039 C 
HETATM   32  C   UNL     1      44.192 -19.211   4.296  1.00  0.00     0.039 C 
ENDBRANCH  29  30
ENDBRANCH  28  29
ENDBRANCH  27  28
ENDBRANCH  26  27
ENDBRANCH   1  26
TORSDOF 8
ENDMDL
MODEL 8
REMARK VINA RESULT:      -7.2      3.432      7.028
REMARK  8 active torsions:
REMARK  status: ('A' for Active; 'I' for Inactive)
REMARK    1  A    between atoms: C_2  and  O_3 
REMARK    2  A    between atoms: O_3  and  C_4 
REMARK    3  A    between atoms: C_4  and  C_5 
REMARK    4  A    between atoms: C_5  and  C_6 
REMARK    5  A    between atoms: C_6  and  N_7 
REMARK    6  A    between atoms: C_12  and  C_13 
REMARK    7  A    between atoms: C_23  and  C_24 
REMARK    8  A    between atoms: C_25  and  O_26 
ROOT
HETATM    1  N   UNL     1      42.541 -15.501   2.606  1.00  0.00    -0.334 N 
HETATM    2  C   UNL     1      41.418 -16.147   2.085  1.00  0.00     0.273 A 
HETATM    3  O   UNL     1      41.042 -17.292   2.266  1.00  0.00    -0.266 OA
HETATM    4  C   UNL     1      40.835 -15.167   1.249  1.00  0.00     0.129 A 
HETATM    5  C   UNL     1      41.530 -13.993   1.234  1.00  0.00     0.034 A 
HETATM    6  C   UNL     1      42.711 -14.103   2.126  1.00  0.00     0.159 A 
HETATM    7  N   UNL     1      39.781 -15.040   0.435  1.00  0.00    -0.272 N 
HETATM    8  H   UNL     1      39.057 -15.718   0.211  1.00  0.00     0.189 HD
HETATM    9  N   UNL     1      39.741 -13.808  -0.132  1.00  0.00    -0.173 NA
HETATM   10  C   UNL     1      40.834 -13.150   0.345  1.00  0.00     0.101 A 
ENDROOT
BRANCH  10  11
HETATM   11  C   UNL     1      41.110 -11.767  -0.077  1.00  0.00     0.028 A 
HETATM   12  C   UNL     1      41.349 -11.442  -1.427  1.00  0.00     0.078 A 
HETATM   13  C   UNL     1      41.586 -10.129  -1.833  1.00  0.00     0.037 A 
HETATM   14  C   UNL     1      41.597  -9.104  -0.892  1.00  0.00     0.003 A 
HETATM   15  C   UNL     1      41.377  -9.398   0.451  1.00  0.00     0.001 A 
HETATM   16  C   UNL     1      41.143 -10.718   0.855  1.00  0.00     0.017 A 
BRANCH  12  17
HETATM   17  O   UNL     1      41.368 -12.383  -2.427  1.00  0.00    -0.360 OA
HETATM   18  H   UNL     1      40.550 -12.919  -2.308  1.00  0.00     0.217 HD
ENDBRANCH  12  17
ENDBRANCH  10  11
BRANCH   6  19
HETATM   19  C   UNL     1      42.605 -13.080   3.236  1.00  0.00    -0.031 A 
HETATM   20  C   UNL     1      43.540 -12.047   3.436  1.00  0.00     0.011 A 
HETATM   21  C   UNL     1      43.383 -11.127   4.477  1.00  0.00     0.024 A 
HETATM   22  C   UNL     1      42.276 -11.211   5.316  1.00  0.00     0.034 A 
HETATM   23 CL   UNL     1      42.081 -10.076   6.594  1.00  0.00    -0.084 Cl
HETATM   24  C   UNL     1      41.321 -12.204   5.121  1.00  0.00     0.024 A 
HETATM   25  C   UNL     1      41.483 -13.128   4.086  1.00  0.00     0.011 A 
ENDBRANCH   6  19
BRANCH   1  26
HETATM   26  C   UNL     1      43.545 -16.170   3.412  1.00  0.00     0.129 C 
BRANCH  26  27
HETATM   27  C   UNL     1      43.024 -16.648   4.769  1.00  0.00     0.046 C 
BRANCH  27  28
HETATM   28  C   UNL     1      43.892 -17.711   5.433  1.00  0.00     0.169 C 
BRANCH  28  29
HETATM   29  O   UNL     1      44.702 -18.348   4.447  1.00  0.00    -0.387 OA
BRANCH  29  30
HETATM   30  C   UNL     1      44.491 -19.760   4.340  1.00  0.00     0.113 C 
HETATM   31  C   UNL     1      43.662 -20.132   3.114  1.00  0.00     0.039 C 
HETATM   32  C   UNL     1      43.762 -20.192   5.609  1.00  0.00     0.039 C 
ENDBRANCH  29  30
ENDBRANCH  28  29
ENDBRANCH  27  28
ENDBRANCH  26  27
ENDBRANCH   1  26
TORSDOF 8
ENDMDL
MODEL 9
REMARK VINA RESULT:      -7.1     16.081     18.322
REMARK  8 active torsions:
REMARK  status: ('A' for Active; 'I' for Inactive)
REMARK    1  A    between atoms: C_2  and  O_3 
REMARK    2  A    between atoms: O_3  and  C_4 
REMARK    3  A    between atoms: C_4  and  C_5 
REMARK    4  A    between atoms: C_5  and  C_6 
REMARK    5  A    between atoms: C_6  and  N_7 
REMARK    6  A    between atoms: C_12  and  C_13 
REMARK    7  A    between atoms: C_23  and  C_24 
REMARK    8  A    between atoms: C_25  and  O_26 
ROOT
HETATM    1  N   UNL     1      44.879 -30.258  -2.474  1.00  0.00    -0.334 N 
HETATM    2  C   UNL     1      45.466 -29.130  -3.051  1.00  0.00     0.273 A 
HETATM    3  O   UNL     1      45.260 -28.637  -4.146  1.00  0.00    -0.266 OA
HETATM    4  C   UNL     1      46.401 -28.713  -2.076  1.00  0.00     0.129 A 
HETATM    5  C   UNL     1      46.414 -29.511  -0.969  1.00  0.00     0.034 A 
HETATM    6  C   UNL     1      45.414 -30.596  -1.127  1.00  0.00     0.159 A 
HETATM    7  N   UNL     1      47.314 -27.750  -1.908  1.00  0.00    -0.272 N 
HETATM    8  H   UNL     1      47.568 -26.989  -2.534  1.00  0.00     0.189 HD
HETATM    9  N   UNL     1      47.946 -27.872  -0.714  1.00  0.00    -0.173 NA
HETATM   10  C   UNL     1      47.407 -28.975  -0.126  1.00  0.00     0.101 A 
ENDROOT
BRANCH  10  11
HETATM   11  C   UNL     1      47.873 -29.412   1.201  1.00  0.00     0.028 A 
HETATM   12  C   UNL     1      49.227 -29.721   1.441  1.00  0.00     0.078 A 
HETATM   13  C   UNL     1      49.676 -30.111   2.702  1.00  0.00     0.037 A 
HETATM   14  C   UNL     1      48.777 -30.207   3.759  1.00  0.00     0.003 A 
HETATM   15  C   UNL     1      47.430 -29.920   3.547  1.00  0.00     0.001 A 
HETATM   16  C   UNL     1      46.983 -29.532   2.279  1.00  0.00     0.017 A 
BRANCH  12  17
HETATM   17  O   UNL     1      50.188 -29.665   0.461  1.00  0.00    -0.360 OA
HETATM   18  H   UNL     1      51.051 -29.782   0.922  1.00  0.00     0.217 HD
ENDBRANCH  12  17
ENDBRANCH  10  11
BRANCH   6  19
HETATM   19  C   UNL     1      44.373 -30.488  -0.033  1.00  0.00    -0.031 A 
HETATM   20  C   UNL     1      43.563 -29.354   0.162  1.00  0.00     0.011 A 
HETATM   21  C   UNL     1      42.614 -29.317   1.188  1.00  0.00     0.024 A 
HETATM   22  C   UNL     1      42.444 -30.422   2.017  1.00  0.00     0.034 A 
HETATM   23 CL   UNL     1      41.273 -30.378   3.276  1.00  0.00    -0.084 Cl
HETATM   24  C   UNL     1      43.211 -31.566   1.825  1.00  0.00     0.024 A 
HETATM   25  C   UNL     1      44.165 -31.599   0.806  1.00  0.00     0.011 A 
ENDBRANCH   6  19
BRANCH   1  26
HETATM   26  C   UNL     1      43.950 -31.124  -3.177  1.00  0.00     0.129 C 
BRANCH  26  27
HETATM   27  C   UNL     1      44.404 -32.583  -3.247  1.00  0.00     0.046 C 
BRANCH  27  28
HETATM   28  C   UNL     1      44.234 -33.227  -4.619  1.00  0.00     0.169 C 
BRANCH  28  29
HETATM   29  O   UNL     1      43.856 -32.230  -5.567  1.00  0.00    -0.387 OA
BRANCH  29  30
HETATM   30  C   UNL     1      44.630 -32.247  -6.772  1.00  0.00     0.113 C 
HETATM   31  C   UNL     1      46.096 -31.904  -6.525  1.00  0.00     0.039 C 
HETATM   32  C   UNL     1      44.006 -31.215  -7.707  1.00  0.00     0.039 C 
ENDBRANCH  29  30
ENDBRANCH  28  29
ENDBRANCH  27  28
ENDBRANCH  26  27
ENDBRANCH   1  26
TORSDOF 8
ENDMDL
MODEL 10
REMARK VINA RESULT:      -7.1     15.521     17.392
REMARK  8 active torsions:
REMARK  status: ('A' for Active; 'I' for Inactive)
REMARK    1  A    between atoms: C_2  and  O_3 
REMARK    2  A    between atoms: O_3  and  C_4 
REMARK    3  A    between atoms: C_4  and  C_5 
REMARK    4  A    between atoms: C_5  and  C_6 
REMARK    5  A    between atoms: C_6  and  N_7 
REMARK    6  A    between atoms: C_12  and  C_13 
REMARK    7  A    between atoms: C_23  and  C_24 
REMARK    8  A    between atoms: C_25  and  O_26 
ROOT
HETATM    1  N   UNL     1      47.376 -29.226   0.344  1.00  0.00    -0.334 N 
HETATM    2  C   UNL     1      46.994 -28.393   1.398  1.00  0.00     0.273 A 
HETATM    3  O   UNL     1      47.576 -27.425   1.856  1.00  0.00    -0.266 OA
HETATM    4  C   UNL     1      45.783 -28.968   1.847  1.00  0.00     0.129 A 
HETATM    5  C   UNL     1      45.423 -30.079   1.142  1.00  0.00     0.034 A 
HETATM    6  C   UNL     1      46.433 -30.348   0.088  1.00  0.00     0.159 A 
HETATM    7  N   UNL     1      44.860 -28.753   2.790  1.00  0.00    -0.272 N 
HETATM    8  H   UNL     1      44.815 -28.017   3.490  1.00  0.00     0.189 HD
HETATM    9  N   UNL     1      43.879 -29.690   2.743  1.00  0.00    -0.173 NA
HETATM   10  C   UNL     1      44.226 -30.531   1.730  1.00  0.00     0.101 A 
ENDROOT
BRANCH  10  11
HETATM   11  C   UNL     1      43.374 -31.686   1.401  1.00  0.00     0.028 A 
HETATM   12  C   UNL     1      41.969 -31.577   1.358  1.00  0.00     0.078 A 
HETATM   13  C   UNL     1      41.161 -32.663   1.022  1.00  0.00     0.037 A 
HETATM   14  C   UNL     1      41.740 -33.893   0.724  1.00  0.00     0.003 A 
HETATM   15  C   UNL     1      43.126 -34.032   0.772  1.00  0.00     0.001 A 
HETATM   16  C   UNL     1      43.933 -32.941   1.113  1.00  0.00     0.017 A 
BRANCH  12  17
HETATM   17  O   UNL     1      41.305 -30.411   1.644  1.00  0.00    -0.360 OA
HETATM   18  H   UNL     1      41.593 -29.761   0.961  1.00  0.00     0.217 HD
ENDBRANCH  12  17
ENDBRANCH  10  11
BRANCH   6  19
HETATM   19  C   UNL     1      45.777 -30.270  -1.274  1.00  0.00    -0.031 A 
HETATM   20  C   UNL     1      44.917 -29.227  -1.666  1.00  0.00     0.011 A 
HETATM   21  C   UNL     1      44.346 -29.208  -2.942  1.00  0.00     0.024 A 
HETATM   22  C   UNL     1      44.647 -30.217  -3.852  1.00  0.00     0.034 A 
HETATM   23 CL   UNL     1      43.947 -30.191  -5.424  1.00  0.00    -0.084 Cl
HETATM   24  C   UNL     1      45.517 -31.243  -3.499  1.00  0.00     0.024 A 
HETATM   25  C   UNL     1      46.081 -31.266  -2.221  1.00  0.00     0.011 A 
ENDBRANCH   6  19
BRANCH   1  26
HETATM   26  C   UNL     1      48.651 -29.115  -0.340  1.00  0.00     0.129 C 
BRANCH  26  27
HETATM   27  C   UNL     1      49.539 -30.352  -0.187  1.00  0.00     0.046 C 
BRANCH  27  28
HETATM   28  C   UNL     1      50.489 -30.297   1.004  1.00  0.00     0.169 C 
BRANCH  28  29
HETATM   29  O   UNL     1      49.822 -30.787   2.166  1.00  0.00    -0.387 OA
BRANCH  29  30
HETATM   30  C   UNL     1      50.090 -30.034   3.354  1.00  0.00     0.113 C 
HETATM   31  C   UNL     1      51.142 -30.699   4.238  1.00  0.00     0.039 C 
HETATM   32  C   UNL     1      48.770 -29.926   4.112  1.00  0.00     0.039 C 
ENDBRANCH  29  30
ENDBRANCH  28  29
ENDBRANCH  27  28
ENDBRANCH  26  27
ENDBRANCH   1  26
TORSDOF 8
ENDMDL
