MODEL 1
REMARK VINA RESULT:      -9.0      0.000      0.000
REMARK  8 active torsions:
REMARK  status: ('A' for Active; 'I' for Inactive)
REMARK    1  A    between atoms: O_2  and  C_3 
REMARK    2  A    between atoms: C_6  and  C_7 
REMARK    3  A    between atoms: C_7  and  C_8 
REMARK    4  A    between atoms: C_8  and  C_9 
REMARK    5  A    between atoms: C_11  and  N_12 
REMARK       I    between atoms: N_12  and  C_13 
REMARK    6  A    between atoms: C_13  and  C_14 
REMARK    7  A    between atoms: C_18  and  C_19 
REMARK    8  A    between atoms: C_20  and  O_21 
ROOT
HETATM    1  N   UNL     1      42.995 -11.119   7.417  1.00  0.00    -0.149 N 
HETATM    2  C   UNL     1      43.985 -10.452   8.095  1.00  0.00     0.290 C 
HETATM    3  O   UNL     1      45.000  -9.950   7.623  1.00  0.00    -0.265 OA
HETATM    4  H   UNL     1      42.226 -11.499   7.950  1.00  0.00     0.188 HD
ENDROOT
BRANCH   1   5
HETATM    5  C   UNL     1      42.967 -11.307   6.068  1.00  0.00     0.747 A 
HETATM    6  N   UNL     1      43.199 -12.563   5.565  1.00  0.00    -0.046 NA
HETATM    7  C   UNL     1      43.089 -12.402   4.262  1.00  0.00     0.140 A 
HETATM    8  N   UNL     1      42.788 -11.095   4.010  1.00  0.00    -0.248 N 
HETATM    9  N   UNL     1      42.724 -10.386   5.137  1.00  0.00     0.020 NA
HETATM   10  H   UNL     1      42.629 -10.631   3.124  1.00  0.00     0.191 HD
BRANCH   7  11
HETATM   11  C   UNL     1      43.219 -13.413   3.176  1.00  0.00     0.085 C 
BRANCH  11  12
HETATM   12  C   UNL     1      42.205 -14.551   3.339  1.00  0.00     0.046 C 
BRANCH  12  13
HETATM   13  C   UNL     1      42.863 -15.880   3.617  1.00  0.00    -0.058 A 
HETATM   14  C   UNL     1      42.976 -16.838   2.600  1.00  0.00     0.010 A 
HETATM   15  C   UNL     1      43.611 -18.063   2.835  1.00  0.00     0.037 A 
HETATM   16  C   UNL     1      44.145 -18.343   4.091  1.00  0.00     0.068 A 
HETATM   17  C   UNL     1      44.013 -17.401   5.113  1.00  0.00     0.037 A 
HETATM   18  C   UNL     1      43.379 -16.177   4.881  1.00  0.00     0.010 A 
BRANCH  16  19
HETATM   19  O   UNL     1      44.802 -19.490   4.444  1.00  0.00    -0.356 OA
HETATM   20  C   UNL     1      44.038 -20.482   5.118  1.00  0.00     0.210 C 
ENDBRANCH  16  19
ENDBRANCH  12  13
ENDBRANCH  11  12
ENDBRANCH   7  11
ENDBRANCH   1   5
BRANCH   2  21
HETATM   21  C   UNL     1      43.727 -10.388   9.545  1.00  0.00     0.147 A 
HETATM   22  N   UNL     1      43.953 -11.419  10.381  1.00  0.00    -0.169 NA
HETATM   23  N   UNL     1      43.578 -10.938  11.585  1.00  0.00    -0.277 N 
HETATM   24  H   UNL     1      43.638 -11.542  12.399  1.00  0.00     0.189 HD
HETATM   25  C   UNL     1      43.141  -9.636  11.579  1.00  0.00     0.065 A 
HETATM   26  C   UNL     1      43.222  -9.266  10.250  1.00  0.00     0.071 A 
BRANCH  25  27
HETATM   27  C   UNL     1      42.711  -8.897  12.781  1.00  0.00     0.025 A 
HETATM   28  C   UNL     1      41.610  -9.286  13.582  1.00  0.00     0.080 A 
HETATM   29  C   UNL     1      41.276  -8.530  14.717  1.00  0.00     0.037 A 
HETATM   30  C   UNL     1      42.012  -7.396  15.064  1.00  0.00     0.003 A 
HETATM   31  C   UNL     1      43.092  -7.005  14.285  1.00  0.00     0.001 A 
HETATM   32  C   UNL     1      43.435  -7.749  13.157  1.00  0.00     0.016 A 
BRANCH  28  33
HETATM   33  O   UNL     1      40.919 -10.412  13.195  1.00  0.00    -0.355 OA
HETATM   34  C   UNL     1      39.533 -10.265  12.903  1.00  0.00     0.210 C 
ENDBRANCH  28  33
ENDBRANCH  25  27
ENDBRANCH   2  21
TORSDOF 8
ENDMDL
MODEL 2
REMARK VINA RESULT:      -8.8      1.993     11.263
REMARK  8 active torsions:
REMARK  status: ('A' for Active; 'I' for Inactive)
REMARK    1  A    between atoms: O_2  and  C_3 
REMARK    2  A    between atoms: C_6  and  C_7 
REMARK    3  A    between atoms: C_7  and  C_8 
REMARK    4  A    between atoms: C_8  and  C_9 
REMARK    5  A    between atoms: C_11  and  N_12 
REMARK       I    between atoms: N_12  and  C_13 
REMARK    6  A    between atoms: C_13  and  C_14 
REMARK    7  A    between atoms: C_18  and  C_19 
REMARK    8  A    between atoms: C_20  and  O_21 
ROOT
HETATM    1  N   UNL     1      43.912 -12.389   7.145  1.00  0.00    -0.149 N 
HETATM    2  C   UNL     1      42.796 -12.314   6.349  1.00  0.00     0.290 C 
HETATM    3  O   UNL     1      42.057 -11.347   6.197  1.00  0.00    -0.265 OA
HETATM    4  H   UNL     1      44.409 -13.267   7.184  1.00  0.00     0.188 HD
ENDROOT
BRANCH   1   5
HETATM    5  C   UNL     1      44.407 -11.362   7.890  1.00  0.00     0.747 A 
HETATM    6  N   UNL     1      43.822 -11.072   9.098  1.00  0.00    -0.046 NA
HETATM    7  C   UNL     1      44.533 -10.060   9.554  1.00  0.00     0.140 A 
HETATM    8  N   UNL     1      45.512  -9.776   8.647  1.00  0.00    -0.248 N 
HETATM    9  N   UNL     1      45.438 -10.576   7.584  1.00  0.00     0.020 NA
HETATM   10  H   UNL     1      46.235  -9.067   8.683  1.00  0.00     0.191 HD
BRANCH   7  11
HETATM   11  C   UNL     1      44.391  -9.314  10.834  1.00  0.00     0.085 C 
BRANCH  11  12
HETATM   12  C   UNL     1      43.290  -9.911  11.718  1.00  0.00     0.046 C 
BRANCH  12  13
HETATM   13  C   UNL     1      42.912  -9.007  12.865  1.00  0.00    -0.058 A 
HETATM   14  C   UNL     1      41.908  -9.391  13.765  1.00  0.00     0.010 A 
HETATM   15  C   UNL     1      41.568  -8.577  14.851  1.00  0.00     0.037 A 
HETATM   16  C   UNL     1      42.232  -7.369  15.053  1.00  0.00     0.068 A 
HETATM   17  C   UNL     1      43.216  -6.972  14.145  1.00  0.00     0.037 A 
HETATM   18  C   UNL     1      43.557  -7.783  13.059  1.00  0.00     0.010 A 
BRANCH  16  19
HETATM   19  O   UNL     1      42.008  -6.494  16.081  1.00  0.00    -0.356 OA
HETATM   20  C   UNL     1      41.552  -7.053  17.306  1.00  0.00     0.210 C 
ENDBRANCH  16  19
ENDBRANCH  12  13
ENDBRANCH  11  12
ENDBRANCH   7  11
ENDBRANCH   1   5
BRANCH   2  21
HETATM   21  C   UNL     1      42.522 -13.579   5.645  1.00  0.00     0.147 A 
HETATM   22  N   UNL     1      41.378 -13.818   4.975  1.00  0.00    -0.169 NA
HETATM   23  N   UNL     1      41.544 -15.072   4.505  1.00  0.00    -0.277 N 
HETATM   24  H   UNL     1      40.796 -15.501   3.967  1.00  0.00     0.189 HD
HETATM   25  C   UNL     1      42.749 -15.654   4.814  1.00  0.00     0.065 A 
HETATM   26  C   UNL     1      43.395 -14.694   5.569  1.00  0.00     0.071 A 
BRANCH  25  27
HETATM   27  C   UNL     1      43.157 -17.003   4.379  1.00  0.00     0.025 A 
HETATM   28  C   UNL     1      43.038 -17.461   3.045  1.00  0.00     0.080 A 
HETATM   29  C   UNL     1      43.462 -18.759   2.715  1.00  0.00     0.037 A 
HETATM   30  C   UNL     1      43.994 -19.606   3.688  1.00  0.00     0.003 A 
HETATM   31  C   UNL     1      44.113 -19.168   4.999  1.00  0.00     0.001 A 
HETATM   32  C   UNL     1      43.699 -17.880   5.339  1.00  0.00     0.016 A 
BRANCH  28  33
HETATM   33  O   UNL     1      42.507 -16.584   2.126  1.00  0.00    -0.355 OA
HETATM   34  C   UNL     1      43.418 -15.802   1.360  1.00  0.00     0.210 C 
ENDBRANCH  28  33
ENDBRANCH  25  27
ENDBRANCH   2  21
TORSDOF 8
ENDMDL
MODEL 3
REMARK VINA RESULT:      -8.8      2.229     10.863
REMARK  8 active torsions:
REMARK  status: ('A' for Active; 'I' for Inactive)
REMARK    1  A    between atoms: O_2  and  C_3 
REMARK    2  A    between atoms: C_6  and  C_7 
REMARK    3  A    between atoms: C_7  and  C_8 
REMARK    4  A    between atoms: C_8  and  C_9 
REMARK    5  A    between atoms: C_11  and  N_12 
REMARK       I    between atoms: N_12  and  C_13 
REMARK    6  A    between atoms: C_13  and  C_14 
REMARK    7  A    between atoms: C_18  and  C_19 
REMARK    8  A    between atoms: C_20  and  O_21 
ROOT
HETATM    1  N   UNL     1      44.367 -12.964   6.513  1.00  0.00    -0.149 N 
HETATM    2  C   UNL     1      43.049 -13.025   6.132  1.00  0.00     0.290 C 
HETATM    3  O   UNL     1      42.213 -12.130   6.206  1.00  0.00    -0.265 OA
HETATM    4  H   UNL     1      44.930 -13.796   6.410  1.00  0.00     0.188 HD
ENDROOT
BRANCH   1   5
HETATM    5  C   UNL     1      44.980 -11.858   7.018  1.00  0.00     0.747 A 
HETATM    6  N   UNL     1      44.601 -11.391   8.253  1.00  0.00    -0.046 NA
HETATM    7  C   UNL     1      45.380 -10.345   8.443  1.00  0.00     0.140 A 
HETATM    8  N   UNL     1      46.199 -10.212   7.360  1.00  0.00    -0.248 N 
HETATM    9  N   UNL     1      45.950 -11.148   6.444  1.00  0.00     0.020 NA
HETATM   10  H   UNL     1      46.921  -9.524   7.180  1.00  0.00     0.191 HD
BRANCH   7  11
HETATM   11  C   UNL     1      45.451  -9.428   9.613  1.00  0.00     0.085 C 
BRANCH  11  12
HETATM   12  C   UNL     1      44.780 -10.036  10.850  1.00  0.00     0.046 C 
BRANCH  12  13
HETATM   13  C   UNL     1      43.528  -9.297  11.254  1.00  0.00    -0.058 A 
HETATM   14  C   UNL     1      43.554  -8.399  12.329  1.00  0.00     0.010 A 
HETATM   15  C   UNL     1      42.409  -7.684  12.696  1.00  0.00     0.037 A 
HETATM   16  C   UNL     1      41.221  -7.857  11.988  1.00  0.00     0.068 A 
HETATM   17  C   UNL     1      41.185  -8.769  10.931  1.00  0.00     0.037 A 
HETATM   18  C   UNL     1      42.328  -9.485  10.563  1.00  0.00     0.010 A 
BRANCH  16  19
HETATM   19  O   UNL     1      40.041  -7.209  12.232  1.00  0.00    -0.356 OA
HETATM   20  C   UNL     1      39.847  -6.713  13.550  1.00  0.00     0.210 C 
ENDBRANCH  16  19
ENDBRANCH  12  13
ENDBRANCH  11  12
ENDBRANCH   7  11
ENDBRANCH   1   5
BRANCH   2  21
HETATM   21  C   UNL     1      42.679 -14.347   5.598  1.00  0.00     0.147 A 
HETATM   22  N   UNL     1      41.404 -14.765   5.478  1.00  0.00    -0.169 NA
HETATM   23  N   UNL     1      41.525 -16.008   4.968  1.00  0.00    -0.277 N 
HETATM   24  H   UNL     1      40.687 -16.556   4.795  1.00  0.00     0.189 HD
HETATM   25  C   UNL     1      42.815 -16.414   4.727  1.00  0.00     0.065 A 
HETATM   26  C   UNL     1      43.582 -15.343   5.145  1.00  0.00     0.071 A 
BRANCH  25  27
HETATM   27  C   UNL     1      43.182 -17.719   4.145  1.00  0.00     0.025 A 
HETATM   28  C   UNL     1      42.973 -18.051   2.785  1.00  0.00     0.080 A 
HETATM   29  C   UNL     1      43.362 -19.315   2.311  1.00  0.00     0.037 A 
HETATM   30  C   UNL     1      43.948 -20.250   3.165  1.00  0.00     0.003 A 
HETATM   31  C   UNL     1      44.155 -19.935   4.501  1.00  0.00     0.001 A 
HETATM   32  C   UNL     1      43.776 -18.683   4.983  1.00  0.00     0.016 A 
BRANCH  28  33
HETATM   33  O   UNL     1      42.392 -17.092   1.986  1.00  0.00    -0.355 OA
HETATM   34  C   UNL     1      43.239 -16.079   1.453  1.00  0.00     0.210 C 
ENDBRANCH  28  33
ENDBRANCH  25  27
ENDBRANCH   2  21
TORSDOF 8
ENDMDL
MODEL 4
REMARK VINA RESULT:      -8.7      1.847     11.008
REMARK  8 active torsions:
REMARK  status: ('A' for Active; 'I' for Inactive)
REMARK    1  A    between atoms: O_2  and  C_3 
REMARK    2  A    between atoms: C_6  and  C_7 
REMARK    3  A    between atoms: C_7  and  C_8 
REMARK    4  A    between atoms: C_8  and  C_9 
REMARK    5  A    between atoms: C_11  and  N_12 
REMARK       I    between atoms: N_12  and  C_13 
REMARK    6  A    between atoms: C_13  and  C_14 
REMARK    7  A    between atoms: C_18  and  C_19 
REMARK    8  A    between atoms: C_20  and  O_21 
ROOT
HETATM    1  N   UNL     1      44.134 -12.550   6.545  1.00  0.00    -0.149 N 
HETATM    2  C   UNL     1      42.976 -12.456   5.814  1.00  0.00     0.290 C 
HETATM    3  O   UNL     1      42.202 -11.506   5.770  1.00  0.00    -0.265 OA
HETATM    4  H   UNL     1      44.659 -13.412   6.496  1.00  0.00     0.188 HD
ENDROOT
BRANCH   1   5
HETATM    5  C   UNL     1      44.638 -11.562   7.335  1.00  0.00     0.747 A 
HETATM    6  N   UNL     1      44.097 -11.362   8.581  1.00  0.00    -0.046 NA
HETATM    7  C   UNL     1      44.804 -10.365   9.073  1.00  0.00     0.140 A 
HETATM    8  N   UNL     1      45.740 -10.001   8.149  1.00  0.00    -0.248 N 
HETATM    9  N   UNL     1      45.640 -10.734   7.040  1.00  0.00     0.020 NA
HETATM   10  H   UNL     1      46.450  -9.280   8.202  1.00  0.00     0.191 HD
BRANCH   7  11
HETATM   11  C   UNL     1      44.700  -9.706  10.403  1.00  0.00     0.085 C 
BRANCH  11  12
HETATM   12  C   UNL     1      43.662 -10.397  11.296  1.00  0.00     0.046 C 
BRANCH  12  13
HETATM   13  C   UNL     1      43.111  -9.481  12.361  1.00  0.00    -0.058 A 
HETATM   14  C   UNL     1      43.622  -8.185  12.511  1.00  0.00     0.010 A 
HETATM   15  C   UNL     1      43.099  -7.314  13.474  1.00  0.00     0.037 A 
HETATM   16  C   UNL     1      42.054  -7.729  14.297  1.00  0.00     0.068 A 
HETATM   17  C   UNL     1      41.558  -9.028  14.166  1.00  0.00     0.037 A 
HETATM   18  C   UNL     1      42.079  -9.900  13.205  1.00  0.00     0.010 A 
BRANCH  16  19
HETATM   19  O   UNL     1      41.445  -6.973  15.261  1.00  0.00    -0.356 OA
HETATM   20  C   UNL     1      41.234  -7.596  16.522  1.00  0.00     0.210 C 
ENDBRANCH  16  19
ENDBRANCH  12  13
ENDBRANCH  11  12
ENDBRANCH   7  11
ENDBRANCH   1   5
BRANCH   2  21
HETATM   21  C   UNL     1      42.702 -13.678   5.036  1.00  0.00     0.147 A 
HETATM   22  N   UNL     1      41.663 -13.795   4.187  1.00  0.00    -0.169 NA
HETATM   23  N   UNL     1      41.785 -15.051   3.710  1.00  0.00    -0.277 N 
HETATM   24  H   UNL     1      41.097 -15.397   3.047  1.00  0.00     0.189 HD
HETATM   25  C   UNL     1      42.865 -15.752   4.188  1.00  0.00     0.065 A 
HETATM   26  C   UNL     1      43.468 -14.871   5.066  1.00  0.00     0.071 A 
BRANCH  25  27
HETATM   27  C   UNL     1      43.210 -17.127   3.783  1.00  0.00     0.025 A 
HETATM   28  C   UNL     1      43.844 -18.057   4.643  1.00  0.00     0.080 A 
HETATM   29  C   UNL     1      44.128 -19.351   4.178  1.00  0.00     0.037 A 
HETATM   30  C   UNL     1      43.798 -19.732   2.877  1.00  0.00     0.003 A 
HETATM   31  C   UNL     1      43.179 -18.829   2.025  1.00  0.00     0.001 A 
HETATM   32  C   UNL     1      42.889 -17.541   2.476  1.00  0.00     0.016 A 
BRANCH  28  33
HETATM   33  O   UNL     1      44.146 -17.628   5.916  1.00  0.00    -0.355 OA
HETATM   34  C   UNL     1      43.409 -18.197   6.993  1.00  0.00     0.210 C 
ENDBRANCH  28  33
ENDBRANCH  25  27
ENDBRANCH   2  21
TORSDOF 8
ENDMDL
MODEL 5
REMARK VINA RESULT:      -8.3      1.410      1.929
REMARK  8 active torsions:
REMARK  status: ('A' for Active; 'I' for Inactive)
REMARK    1  A    between atoms: O_2  and  C_3 
REMARK    2  A    between atoms: C_6  and  C_7 
REMARK    3  A    between atoms: C_7  and  C_8 
REMARK    4  A    between atoms: C_8  and  C_9 
REMARK    5  A    between atoms: C_11  and  N_12 
REMARK       I    between atoms: N_12  and  C_13 
REMARK    6  A    between atoms: C_13  and  C_14 
REMARK    7  A    between atoms: C_18  and  C_19 
REMARK    8  A    between atoms: C_20  and  O_21 
ROOT
HETATM    1  N   UNL     1      42.932 -11.211   7.202  1.00  0.00    -0.149 N 
HETATM    2  C   UNL     1      44.069 -11.144   7.967  1.00  0.00     0.290 C 
HETATM    3  O   UNL     1      45.155 -11.662   7.728  1.00  0.00    -0.265 OA
HETATM    4  H   UNL     1      42.101 -10.748   7.544  1.00  0.00     0.188 HD
ENDROOT
BRANCH   1   5
HETATM    5  C   UNL     1      42.835 -11.854   6.005  1.00  0.00     0.747 A 
HETATM    6  N   UNL     1      42.073 -12.993   5.920  1.00  0.00    -0.046 NA
HETATM    7  C   UNL     1      42.181 -13.346   4.655  1.00  0.00     0.140 A 
HETATM    8  N   UNL     1      42.970 -12.434   4.016  1.00  0.00    -0.248 N 
HETATM    9  N   UNL     1      43.405 -11.495   4.856  1.00  0.00     0.020 NA
HETATM   10  H   UNL     1      43.253 -12.397   3.044  1.00  0.00     0.191 HD
BRANCH   7  11
HETATM   11  C   UNL     1      41.562 -14.499   3.946  1.00  0.00     0.085 C 
BRANCH  11  12
HETATM   12  C   UNL     1      42.516 -15.104   2.910  1.00  0.00     0.046 C 
BRANCH  12  13
HETATM   13  C   UNL     1      43.132 -16.401   3.374  1.00  0.00    -0.058 A 
HETATM   14  C   UNL     1      43.611 -16.525   4.685  1.00  0.00     0.010 A 
HETATM   15  C   UNL     1      44.157 -17.730   5.139  1.00  0.00     0.037 A 
HETATM   16  C   UNL     1      44.228 -18.830   4.286  1.00  0.00     0.068 A 
HETATM   17  C   UNL     1      43.774 -18.702   2.972  1.00  0.00     0.037 A 
HETATM   18  C   UNL     1      43.228 -17.499   2.516  1.00  0.00     0.010 A 
BRANCH  16  19
HETATM   19  O   UNL     1      44.721 -20.065   4.610  1.00  0.00    -0.356 OA
HETATM   20  C   UNL     1      43.861 -20.919   5.352  1.00  0.00     0.210 C 
ENDBRANCH  16  19
ENDBRANCH  12  13
ENDBRANCH  11  12
ENDBRANCH   7  11
ENDBRANCH   1   5
BRANCH   2  21
HETATM   21  C   UNL     1      43.874 -10.357   9.197  1.00  0.00     0.147 A 
HETATM   22  N   UNL     1      44.273 -10.776  10.413  1.00  0.00    -0.169 NA
HETATM   23  N   UNL     1      43.895  -9.774  11.234  1.00  0.00    -0.277 N 
HETATM   24  H   UNL     1      44.073  -9.856  12.230  1.00  0.00     0.189 HD
HETATM   25  C   UNL     1      43.289  -8.710  10.610  1.00  0.00     0.065 A 
HETATM   26  C   UNL     1      43.258  -9.082   9.279  1.00  0.00     0.071 A 
BRANCH  25  27
HETATM   27  C   UNL     1      42.823  -7.495  11.303  1.00  0.00     0.025 A 
HETATM   28  C   UNL     1      42.460  -7.469  12.671  1.00  0.00     0.080 A 
HETATM   29  C   UNL     1      42.035  -6.264  13.254  1.00  0.00     0.037 A 
HETATM   30  C   UNL     1      41.961  -5.092  12.501  1.00  0.00     0.003 A 
HETATM   31  C   UNL     1      42.312  -5.106  11.159  1.00  0.00     0.001 A 
HETATM   32  C   UNL     1      42.738  -6.296  10.568  1.00  0.00     0.016 A 
BRANCH  28  33
HETATM   33  O   UNL     1      42.553  -8.653  13.367  1.00  0.00    -0.355 OA
HETATM   34  C   UNL     1      41.888  -8.731  14.623  1.00  0.00     0.210 C 
ENDBRANCH  28  33
ENDBRANCH  25  27
ENDBRANCH   2  21
TORSDOF 8
ENDMDL
MODEL 6
REMARK VINA RESULT:      -8.1      2.286      2.451
REMARK  8 active torsions:
REMARK  status: ('A' for Active; 'I' for Inactive)
REMARK    1  A    between atoms: O_2  and  C_3 
REMARK    2  A    between atoms: C_6  and  C_7 
REMARK    3  A    between atoms: C_7  and  C_8 
REMARK    4  A    between atoms: C_8  and  C_9 
REMARK    5  A    between atoms: C_11  and  N_12 
REMARK       I    between atoms: N_12  and  C_13 
REMARK    6  A    between atoms: C_13  and  C_14 
REMARK    7  A    between atoms: C_18  and  C_19 
REMARK    8  A    between atoms: C_20  and  O_21 
ROOT
HETATM    1  N   UNL     1      40.717 -11.249   6.830  1.00  0.00    -0.149 N 
HETATM    2  C   UNL     1      40.283  -9.947   6.867  1.00  0.00     0.290 C 
HETATM    3  O   UNL     1      40.011  -9.229   5.911  1.00  0.00    -0.265 OA
HETATM    4  H   UNL     1      40.923 -11.707   7.707  1.00  0.00     0.188 HD
ENDROOT
BRANCH   1   5
HETATM    5  C   UNL     1      40.889 -11.980   5.695  1.00  0.00     0.747 A 
HETATM    6  N   UNL     1      42.163 -12.214   5.237  1.00  0.00    -0.046 NA
HETATM    7  C   UNL     1      41.977 -12.942   4.156  1.00  0.00     0.140 A 
HETATM    8  N   UNL     1      40.637 -13.142   3.992  1.00  0.00    -0.248 N 
HETATM    9  N   UNL     1      39.935 -12.529   4.944  1.00  0.00     0.020 NA
HETATM   10  H   UNL     1      40.148 -13.660   3.272  1.00  0.00     0.191 HD
BRANCH   7  11
HETATM   11  C   UNL     1      42.988 -13.521   3.229  1.00  0.00     0.085 C 
BRANCH  11  12
HETATM   12  C   UNL     1      42.418 -14.705   2.439  1.00  0.00     0.046 C 
BRANCH  12  13
HETATM   13  C   UNL     1      42.902 -16.037   2.958  1.00  0.00    -0.058 A 
HETATM   14  C   UNL     1      42.846 -17.175   2.143  1.00  0.00     0.010 A 
HETATM   15  C   UNL     1      43.318 -18.410   2.600  1.00  0.00     0.037 A 
HETATM   16  C   UNL     1      43.858 -18.521   3.880  1.00  0.00     0.068 A 
HETATM   17  C   UNL     1      43.894 -17.394   4.703  1.00  0.00     0.037 A 
HETATM   18  C   UNL     1      43.422 -16.159   4.249  1.00  0.00     0.010 A 
BRANCH  16  19
HETATM   19  O   UNL     1      44.369 -19.661   4.438  1.00  0.00    -0.356 OA
HETATM   20  C   UNL     1      43.925 -20.895   3.887  1.00  0.00     0.210 C 
ENDBRANCH  16  19
ENDBRANCH  12  13
ENDBRANCH  11  12
ENDBRANCH   7  11
ENDBRANCH   1   5
BRANCH   2  21
HETATM   21  C   UNL     1      40.171  -9.431   8.243  1.00  0.00     0.147 A 
HETATM   22  N   UNL     1      39.046  -8.875   8.733  1.00  0.00    -0.169 NA
HETATM   23  N   UNL     1      39.384  -8.541   9.996  1.00  0.00    -0.277 N 
HETATM   24  H   UNL     1      38.697  -8.080  10.586  1.00  0.00     0.189 HD
HETATM   25  C   UNL     1      40.665  -8.873  10.363  1.00  0.00     0.065 A 
HETATM   26  C   UNL     1      41.196  -9.446   9.222  1.00  0.00     0.071 A 
BRANCH  25  27
HETATM   27  C   UNL     1      41.238  -8.631  11.700  1.00  0.00     0.025 A 
HETATM   28  C   UNL     1      40.603  -9.027  12.902  1.00  0.00     0.080 A 
HETATM   29  C   UNL     1      41.224  -8.765  14.134  1.00  0.00     0.037 A 
HETATM   30  C   UNL     1      42.458  -8.116  14.190  1.00  0.00     0.003 A 
HETATM   31  C   UNL     1      43.088  -7.722  13.018  1.00  0.00     0.001 A 
HETATM   32  C   UNL     1      42.482  -7.978  11.788  1.00  0.00     0.016 A 
BRANCH  28  33
HETATM   33  O   UNL     1      39.388  -9.664  12.790  1.00  0.00    -0.355 OA
HETATM   34  C   UNL     1      39.360 -11.071  13.008  1.00  0.00     0.210 C 
ENDBRANCH  28  33
ENDBRANCH  25  27
ENDBRANCH   2  21
TORSDOF 8
ENDMDL
MODEL 7
REMARK VINA RESULT:      -7.8      2.428      3.639
REMARK  8 active torsions:
REMARK  status: ('A' for Active; 'I' for Inactive)
REMARK    1  A    between atoms: O_2  and  C_3 
REMARK    2  A    between atoms: C_6  and  C_7 
REMARK    3  A    between atoms: C_7  and  C_8 
REMARK    4  A    between atoms: C_8  and  C_9 
REMARK    5  A    between atoms: C_11  and  N_12 
REMARK       I    between atoms: N_12  and  C_13 
REMARK    6  A    between atoms: C_13  and  C_14 
REMARK    7  A    between atoms: C_18  and  C_19 
REMARK    8  A    between atoms: C_20  and  O_21 
ROOT
HETATM    1  N   UNL     1      43.941  -9.131   9.990  1.00  0.00    -0.149 N 
HETATM    2  C   UNL     1      43.657  -9.594  11.250  1.00  0.00     0.290 C 
HETATM    3  O   UNL     1      43.902 -10.706  11.705  1.00  0.00    -0.265 OA
HETATM    4  H   UNL     1      43.654  -8.192   9.753  1.00  0.00     0.188 HD
ENDROOT
BRANCH   1   5
HETATM    5  C   UNL     1      44.588  -9.843   9.026  1.00  0.00     0.747 A 
HETATM    6  N   UNL     1      43.916 -10.849   8.376  1.00  0.00    -0.046 NA
HETATM    7  C   UNL     1      44.804 -11.315   7.521  1.00  0.00     0.140 A 
HETATM    8  N   UNL     1      45.955 -10.594   7.656  1.00  0.00    -0.248 N 
HETATM    9  N   UNL     1      45.843  -9.673   8.612  1.00  0.00     0.020 NA
HETATM   10  H   UNL     1      46.831 -10.680   7.153  1.00  0.00     0.191 HD
BRANCH   7  11
HETATM   11  C   UNL     1      44.661 -12.407   6.520  1.00  0.00     0.085 C 
BRANCH  11  12
HETATM   12  C   UNL     1      43.597 -13.427   6.944  1.00  0.00     0.046 C 
BRANCH  12  13
HETATM   13  C   UNL     1      43.598 -14.662   6.076  1.00  0.00    -0.058 A 
HETATM   14  C   UNL     1      42.946 -14.654   4.836  1.00  0.00     0.010 A 
HETATM   15  C   UNL     1      42.963 -15.782   4.009  1.00  0.00     0.037 A 
HETATM   16  C   UNL     1      43.639 -16.932   4.410  1.00  0.00     0.068 A 
HETATM   17  C   UNL     1      44.270 -16.951   5.656  1.00  0.00     0.037 A 
HETATM   18  C   UNL     1      44.253 -15.826   6.485  1.00  0.00     0.010 A 
BRANCH  16  19
HETATM   19  O   UNL     1      43.747 -18.091   3.690  1.00  0.00    -0.356 OA
HETATM   20  C   UNL     1      43.135 -18.103   2.406  1.00  0.00     0.210 C 
ENDBRANCH  16  19
ENDBRANCH  12  13
ENDBRANCH  11  12
ENDBRANCH   7  11
ENDBRANCH   1   5
BRANCH   2  21
HETATM   21  C   UNL     1      42.971  -8.586  12.078  1.00  0.00     0.147 A 
HETATM   22  N   UNL     1      42.831  -7.298  11.709  1.00  0.00    -0.169 NA
HETATM   23  N   UNL     1      42.167  -6.743  12.744  1.00  0.00    -0.277 N 
HETATM   24  H   UNL     1      41.949  -5.751  12.716  1.00  0.00     0.189 HD
HETATM   25  C   UNL     1      41.845  -7.609  13.760  1.00  0.00     0.065 A 
HETATM   26  C   UNL     1      42.375  -8.817  13.344  1.00  0.00     0.071 A 
BRANCH  25  27
HETATM   27  C   UNL     1      41.096  -7.229  14.972  1.00  0.00     0.025 A 
HETATM   28  C   UNL     1      40.033  -6.293  14.969  1.00  0.00     0.080 A 
HETATM   29  C   UNL     1      39.366  -5.996  16.168  1.00  0.00     0.037 A 
HETATM   30  C   UNL     1      39.740  -6.608  17.366  1.00  0.00     0.003 A 
HETATM   31  C   UNL     1      40.781  -7.526  17.380  1.00  0.00     0.001 A 
HETATM   32  C   UNL     1      41.450  -7.831  16.195  1.00  0.00     0.016 A 
BRANCH  28  33
HETATM   33  O   UNL     1      39.706  -5.720  13.761  1.00  0.00    -0.355 OA
HETATM   34  C   UNL     1      38.920  -4.533  13.788  1.00  0.00     0.210 C 
ENDBRANCH  28  33
ENDBRANCH  25  27
ENDBRANCH   2  21
TORSDOF 8
ENDMDL
MODEL 8
REMARK VINA RESULT:      -7.8      7.985     12.385
REMARK  8 active torsions:
REMARK  status: ('A' for Active; 'I' for Inactive)
REMARK    1  A    between atoms: O_2  and  C_3 
REMARK    2  A    between atoms: C_6  and  C_7 
REMARK    3  A    between atoms: C_7  and  C_8 
REMARK    4  A    between atoms: C_8  and  C_9 
REMARK    5  A    between atoms: C_11  and  N_12 
REMARK       I    between atoms: N_12  and  C_13 
REMARK    6  A    between atoms: C_13  and  C_14 
REMARK    7  A    between atoms: C_18  and  C_19 
REMARK    8  A    between atoms: C_20  and  O_21 
ROOT
HETATM    1  N   UNL     1      39.242 -13.963  -0.518  1.00  0.00    -0.149 N 
HETATM    2  C   UNL     1      40.369 -13.655   0.203  1.00  0.00     0.290 C 
HETATM    3  O   UNL     1      41.103 -12.684   0.054  1.00  0.00    -0.265 OA
HETATM    4  H   UNL     1      38.751 -14.816  -0.291  1.00  0.00     0.188 HD
ENDROOT
BRANCH   1   5
HETATM    5  C   UNL     1      38.728 -13.200  -1.522  1.00  0.00     0.747 A 
HETATM    6  N   UNL     1      37.670 -12.367  -1.253  1.00  0.00    -0.046 NA
HETATM    7  C   UNL     1      37.433 -11.780  -2.408  1.00  0.00     0.140 A 
HETATM    8  N   UNL     1      38.333 -12.244  -3.323  1.00  0.00    -0.248 N 
HETATM    9  N   UNL     1      39.147 -13.152  -2.786  1.00  0.00     0.020 NA
HETATM   10  H   UNL     1      38.441 -12.000  -4.300  1.00  0.00     0.191 HD
BRANCH   7  11
HETATM   11  C   UNL     1      36.409 -10.754  -2.748  1.00  0.00     0.085 C 
BRANCH  11  12
HETATM   12  C   UNL     1      36.161  -9.795  -1.578  1.00  0.00     0.046 C 
BRANCH  12  13
HETATM   13  C   UNL     1      34.703  -9.436  -1.421  1.00  0.00    -0.058 A 
HETATM   14  C   UNL     1      34.274  -8.700  -0.308  1.00  0.00     0.010 A 
HETATM   15  C   UNL     1      32.931  -8.334  -0.164  1.00  0.00     0.037 A 
HETATM   16  C   UNL     1      32.000  -8.698  -1.135  1.00  0.00     0.068 A 
HETATM   17  C   UNL     1      32.420  -9.451  -2.233  1.00  0.00     0.037 A 
HETATM   18  C   UNL     1      33.761  -9.819  -2.379  1.00  0.00     0.010 A 
BRANCH  16  19
HETATM   19  O   UNL     1      30.667  -8.389  -1.123  1.00  0.00    -0.356 OA
HETATM   20  C   UNL     1      29.818  -9.200  -1.925  1.00  0.00     0.210 C 
ENDBRANCH  16  19
ENDBRANCH  12  13
ENDBRANCH  11  12
ENDBRANCH   7  11
ENDBRANCH   1   5
BRANCH   2  21
HETATM   21  C   UNL     1      40.663 -14.659   1.241  1.00  0.00     0.147 A 
HETATM   22  N   UNL     1      39.771 -15.036   2.177  1.00  0.00    -0.169 NA
HETATM   23  N   UNL     1      40.448 -15.945   2.911  1.00  0.00    -0.277 N 
HETATM   24  H   UNL     1      39.989 -16.377   3.707  1.00  0.00     0.189 HD
HETATM   25  C   UNL     1      41.729 -16.196   2.485  1.00  0.00     0.065 A 
HETATM   26  C   UNL     1      41.889 -15.354   1.401  1.00  0.00     0.071 A 
BRANCH  25  27
HETATM   27  C   UNL     1      42.639 -17.171   3.116  1.00  0.00     0.025 A 
HETATM   28  C   UNL     1      43.084 -17.067   4.457  1.00  0.00     0.080 A 
HETATM   29  C   UNL     1      43.943 -18.046   4.981  1.00  0.00     0.037 A 
HETATM   30  C   UNL     1      44.370 -19.118   4.196  1.00  0.00     0.003 A 
HETATM   31  C   UNL     1      43.942 -19.228   2.881  1.00  0.00     0.001 A 
HETATM   32  C   UNL     1      43.086 -18.264   2.349  1.00  0.00     0.016 A 
BRANCH  28  33
HETATM   33  O   UNL     1      42.632 -15.990   5.186  1.00  0.00    -0.355 OA
HETATM   34  C   UNL     1      41.852 -16.261   6.345  1.00  0.00     0.210 C 
ENDBRANCH  28  33
ENDBRANCH  25  27
ENDBRANCH   2  21
TORSDOF 8
ENDMDL
MODEL 9
REMARK VINA RESULT:      -7.7      2.018      2.685
REMARK  8 active torsions:
REMARK  status: ('A' for Active; 'I' for Inactive)
REMARK    1  A    between atoms: O_2  and  C_3 
REMARK    2  A    between atoms: C_6  and  C_7 
REMARK    3  A    between atoms: C_7  and  C_8 
REMARK    4  A    between atoms: C_8  and  C_9 
REMARK    5  A    between atoms: C_11  and  N_12 
REMARK       I    between atoms: N_12  and  C_13 
REMARK    6  A    between atoms: C_13  and  C_14 
REMARK    7  A    between atoms: C_18  and  C_19 
REMARK    8  A    between atoms: C_20  and  O_21 
ROOT
HETATM    1  N   UNL     1      42.605 -10.798   5.920  1.00  0.00    -0.149 N 
HETATM    2  C   UNL     1      43.466 -10.660   6.981  1.00  0.00     0.290 C 
HETATM    3  O   UNL     1      44.465 -11.331   7.217  1.00  0.00    -0.265 OA
HETATM    4  H   UNL     1      41.807 -10.180   5.872  1.00  0.00     0.188 HD
ENDROOT
BRANCH   1   5
HETATM    5  C   UNL     1      42.746 -11.706   4.916  1.00  0.00     0.747 A 
HETATM    6  N   UNL     1      41.897 -12.785   4.867  1.00  0.00    -0.046 NA
HETATM    7  C   UNL     1      42.289 -13.442   3.794  1.00  0.00     0.140 A 
HETATM    8  N   UNL     1      43.326 -12.762   3.224  1.00  0.00    -0.248 N 
HETATM    9  N   UNL     1      43.639 -11.674   3.927  1.00  0.00     0.020 NA
HETATM   10  H   UNL     1      43.856 -12.981   2.389  1.00  0.00     0.191 HD
BRANCH   7  11
HETATM   11  C   UNL     1      41.739 -14.694   3.208  1.00  0.00     0.085 C 
BRANCH  11  12
HETATM   12  C   UNL     1      42.786 -15.431   2.364  1.00  0.00     0.046 C 
BRANCH  12  13
HETATM   13  C   UNL     1      43.330 -16.657   3.055  1.00  0.00    -0.058 A 
HETATM   14  C   UNL     1      43.686 -16.606   4.409  1.00  0.00     0.010 A 
HETATM   15  C   UNL     1      44.163 -17.742   5.070  1.00  0.00     0.037 A 
HETATM   16  C   UNL     1      44.288 -18.949   4.384  1.00  0.00     0.068 A 
HETATM   17  C   UNL     1      43.956 -18.998   3.028  1.00  0.00     0.037 A 
HETATM   18  C   UNL     1      43.480 -17.864   2.365  1.00  0.00     0.010 A 
BRANCH  16  19
HETATM   19  O   UNL     1      44.723 -20.132   4.915  1.00  0.00    -0.356 OA
HETATM   20  C   UNL     1      43.721 -21.032   5.372  1.00  0.00     0.210 C 
ENDBRANCH  16  19
ENDBRANCH  12  13
ENDBRANCH  11  12
ENDBRANCH   7  11
ENDBRANCH   1   5
BRANCH   2  21
HETATM   21  C   UNL     1      43.065  -9.574   7.892  1.00  0.00     0.147 A 
HETATM   22  N   UNL     1      42.321  -8.521   7.504  1.00  0.00    -0.169 NA
HETATM   23  N   UNL     1      42.204  -7.784   8.628  1.00  0.00    -0.277 N 
HETATM   24  H   UNL     1      41.688  -6.909   8.595  1.00  0.00     0.189 HD
HETATM   25  C   UNL     1      42.816  -8.316   9.737  1.00  0.00     0.065 A 
HETATM   26  C   UNL     1      43.393  -9.481   9.269  1.00  0.00     0.071 A 
BRANCH  25  27
HETATM   27  C   UNL     1      42.792  -7.699  11.077  1.00  0.00     0.025 A 
HETATM   28  C   UNL     1      42.419  -6.353  11.308  1.00  0.00     0.080 A 
HETATM   29  C   UNL     1      42.414  -5.849  12.618  1.00  0.00     0.037 A 
HETATM   30  C   UNL     1      42.778  -6.657  13.697  1.00  0.00     0.003 A 
HETATM   31  C   UNL     1      43.146  -7.977  13.482  1.00  0.00     0.001 A 
HETATM   32  C   UNL     1      43.152  -8.490  12.185  1.00  0.00     0.016 A 
BRANCH  28  33
HETATM   33  O   UNL     1      42.070  -5.601  10.208  1.00  0.00    -0.355 OA
HETATM   34  C   UNL     1      41.888  -4.202  10.399  1.00  0.00     0.210 C 
ENDBRANCH  28  33
ENDBRANCH  25  27
ENDBRANCH   2  21
TORSDOF 8
ENDMDL
MODEL 10
REMARK VINA RESULT:      -7.5      2.352      3.520
REMARK  8 active torsions:
REMARK  status: ('A' for Active; 'I' for Inactive)
REMARK    1  A    between atoms: O_2  and  C_3 
REMARK    2  A    between atoms: C_6  and  C_7 
REMARK    3  A    between atoms: C_7  and  C_8 
REMARK    4  A    between atoms: C_8  and  C_9 
REMARK    5  A    between atoms: C_11  and  N_12 
REMARK       I    between atoms: N_12  and  C_13 
REMARK    6  A    between atoms: C_13  and  C_14 
REMARK    7  A    between atoms: C_18  and  C_19 
REMARK    8  A    between atoms: C_20  and  O_21 
ROOT
HETATM    1  N   UNL     1      43.809  -9.703   9.776  1.00  0.00    -0.149 N 
HETATM    2  C   UNL     1      43.603 -10.153  11.057  1.00  0.00     0.290 C 
HETATM    3  O   UNL     1      43.851 -11.269  11.500  1.00  0.00    -0.265 OA
HETATM    4  H   UNL     1      43.531  -8.758   9.554  1.00  0.00     0.188 HD
ENDROOT
BRANCH   1   5
HETATM    5  C   UNL     1      44.366 -10.437   8.774  1.00  0.00     0.747 A 
HETATM    6  N   UNL     1      43.584 -11.335   8.090  1.00  0.00    -0.046 NA
HETATM    7  C   UNL     1      44.408 -11.855   7.203  1.00  0.00     0.140 A 
HETATM    8  N   UNL     1      45.631 -11.269   7.353  1.00  0.00    -0.248 N 
HETATM    9  N   UNL     1      45.628 -10.385   8.349  1.00  0.00     0.020 NA
HETATM   10  H   UNL     1      46.487 -11.426   6.834  1.00  0.00     0.191 HD
BRANCH   7  11
HETATM   11  C   UNL     1      44.138 -12.880   6.158  1.00  0.00     0.085 C 
BRANCH  11  12
HETATM   12  C   UNL     1      43.400 -14.094   6.734  1.00  0.00     0.046 C 
BRANCH  12  13
HETATM   13  C   UNL     1      43.536 -15.322   5.867  1.00  0.00    -0.058 A 
HETATM   14  C   UNL     1      44.033 -16.515   6.407  1.00  0.00     0.010 A 
HETATM   15  C   UNL     1      44.138 -17.670   5.624  1.00  0.00     0.037 A 
HETATM   16  C   UNL     1      43.741 -17.645   4.288  1.00  0.00     0.068 A 
HETATM   17  C   UNL     1      43.267 -16.451   3.740  1.00  0.00     0.037 A 
HETATM   18  C   UNL     1      43.163 -15.296   4.521  1.00  0.00     0.010 A 
BRANCH  16  19
HETATM   19  O   UNL     1      43.774 -18.704   3.423  1.00  0.00    -0.356 OA
HETATM   20  C   UNL     1      42.980 -18.593   2.248  1.00  0.00     0.210 C 
ENDBRANCH  16  19
ENDBRANCH  12  13
ENDBRANCH  11  12
ENDBRANCH   7  11
ENDBRANCH   1   5
BRANCH   2  21
HETATM   21  C   UNL     1      43.006  -9.122  11.925  1.00  0.00     0.147 A 
HETATM   22  N   UNL     1      43.732  -8.189  12.570  1.00  0.00    -0.169 NA
HETATM   23  N   UNL     1      42.804  -7.476  13.242  1.00  0.00    -0.277 N 
HETATM   24  H   UNL     1      43.105  -6.705  13.832  1.00  0.00     0.189 HD
HETATM   25  C   UNL     1      41.507  -7.882  13.048  1.00  0.00     0.065 A 
HETATM   26  C   UNL     1      41.624  -8.966  12.198  1.00  0.00     0.071 A 
BRANCH  25  27
HETATM   27  C   UNL     1      40.331  -7.231  13.657  1.00  0.00     0.025 A 
HETATM   28  C   UNL     1      40.370  -6.562  14.904  1.00  0.00     0.080 A 
HETATM   29  C   UNL     1      39.204  -5.960  15.405  1.00  0.00     0.037 A 
HETATM   30  C   UNL     1      38.006  -6.017  14.693  1.00  0.00     0.003 A 
HETATM   31  C   UNL     1      37.956  -6.672  13.470  1.00  0.00     0.001 A 
HETATM   32  C   UNL     1      39.108  -7.272  12.960  1.00  0.00     0.016 A 
BRANCH  28  33
HETATM   33  O   UNL     1      41.578  -6.535  15.564  1.00  0.00    -0.355 OA
HETATM   34  C   UNL     1      41.628  -5.858  16.815  1.00  0.00     0.210 C 
ENDBRANCH  28  33
ENDBRANCH  25  27
ENDBRANCH   2  21
TORSDOF 8
ENDMDL
