MODEL 1
REMARK VINA RESULT:      -8.4      0.000      0.000
REMARK  3 active torsions:
REMARK  status: ('A' for Active; 'I' for Inactive)
REMARK    1  A    between atoms: O_2  and  C_3 
REMARK    2  A    between atoms: C_7  and  C_8 
REMARK    3  A    between atoms: C_19  and  N_20 
ROOT
HETATM    1  C   UNL     1      43.726 -16.208   5.125  1.00  0.00     0.244 A 
HETATM    2  N   UNL     1      43.651 -17.651   5.170  1.00  0.00    -0.151 N 
HETATM    3  C   UNL     1      43.506 -18.308   6.366  1.00  0.00     0.734 A 
HETATM    4  N   UNL     1      43.502 -19.606   6.157  1.00  0.00    -0.060 NA
HETATM    5  C   UNL     1      43.684 -19.783   4.808  1.00  0.00     0.103 A 
HETATM    6  C   UNL     1      43.793 -18.559   4.156  1.00  0.00     0.083 A 
HETATM    7  C   UNL     1      43.774 -20.970   4.069  1.00  0.00     0.034 A 
HETATM    8  C   UNL     1      43.976 -20.887   2.687  1.00  0.00     0.002 A 
HETATM    9  C   UNL     1      44.083 -19.647   2.054  1.00  0.00     0.002 A 
HETATM   10  C   UNL     1      43.995 -18.450   2.775  1.00  0.00     0.033 A 
HETATM   11  N   UNL     1      43.393 -17.662   7.548  1.00  0.00    -0.033 NA
HETATM   12  C   UNL     1      43.453 -16.380   7.568  1.00  0.00     0.193 A 
HETATM   13  N   UNL     1      43.629 -15.575   6.438  1.00  0.00    -0.339 N 
HETATM   14  H   UNL     1      43.726 -14.577   6.527  1.00  0.00     0.164 HD
ENDROOT
BRANCH   1  15
HETATM   15  C   UNL     1      42.638 -15.590   4.267  1.00  0.00    -0.014 A 
HETATM   16  C   UNL     1      42.768 -14.294   3.742  1.00  0.00     0.033 A 
HETATM   17  C   UNL     1      41.776 -13.757   2.911  1.00  0.00     0.044 A 
HETATM   18  C   UNL     1      40.636 -14.503   2.577  1.00  0.00     0.085 A 
HETATM   19 BR   UNL     1      42.046 -11.998   2.246  1.00  0.00    -0.048 Br
HETATM   20  C   UNL     1      40.504 -15.792   3.099  1.00  0.00     0.039 A 
HETATM   21  C   UNL     1      41.495 -16.332   3.930  1.00  0.00     0.014 A 
BRANCH  18  22
HETATM   22  O   UNL     1      39.725 -13.904   1.750  1.00  0.00    -0.355 OA
HETATM   23  C   UNL     1      39.819 -14.159   0.355  1.00  0.00     0.210 C 
ENDBRANCH  18  22
ENDBRANCH   1  15
BRANCH  12  24
HETATM   24  N   UNL     1      43.357 -15.660   8.704  1.00  0.00    -0.272 NA
HETATM   25  H   UNL     1      42.648 -14.935   8.613  1.00  0.00     0.127 HD
HETATM   26  H   UNL     1      44.220 -15.269   9.061  1.00  0.00     0.127 HD
ENDBRANCH  12  24
TORSDOF 3
ENDMDL
MODEL 2
REMARK VINA RESULT:      -7.9      3.299      4.711
REMARK  3 active torsions:
REMARK  status: ('A' for Active; 'I' for Inactive)
REMARK    1  A    between atoms: O_2  and  C_3 
REMARK    2  A    between atoms: C_7  and  C_8 
REMARK    3  A    between atoms: C_19  and  N_20 
ROOT
HETATM    1  C   UNL     1      41.092 -15.615   4.772  1.00  0.00     0.244 A 
HETATM    2  N   UNL     1      41.730 -16.488   3.814  1.00  0.00    -0.151 N 
HETATM    3  C   UNL     1      41.369 -16.460   2.491  1.00  0.00     0.734 A 
HETATM    4  N   UNL     1      42.055 -17.364   1.828  1.00  0.00    -0.060 NA
HETATM    5  C   UNL     1      42.842 -18.008   2.751  1.00  0.00     0.103 A 
HETATM    6  C   UNL     1      42.650 -17.481   4.024  1.00  0.00     0.083 A 
HETATM    7  C   UNL     1      43.746 -19.064   2.569  1.00  0.00     0.034 A 
HETATM    8  C   UNL     1      44.429 -19.562   3.684  1.00  0.00     0.002 A 
HETATM    9  C   UNL     1      44.219 -19.017   4.953  1.00  0.00     0.002 A 
HETATM   10  C   UNL     1      43.321 -17.962   5.153  1.00  0.00     0.033 A 
HETATM   11  N   UNL     1      40.440 -15.608   2.003  1.00  0.00    -0.033 NA
HETATM   12  C   UNL     1      39.840 -14.809   2.809  1.00  0.00     0.193 A 
HETATM   13  N   UNL     1      40.076 -14.744   4.186  1.00  0.00    -0.339 N 
HETATM   14  H   UNL     1      39.531 -14.135   4.774  1.00  0.00     0.164 HD
ENDROOT
BRANCH   1  15
HETATM   15  C   UNL     1      42.077 -14.707   5.487  1.00  0.00    -0.014 A 
HETATM   16  C   UNL     1      42.691 -13.631   4.827  1.00  0.00     0.033 A 
HETATM   17  C   UNL     1      43.559 -12.773   5.515  1.00  0.00     0.044 A 
HETATM   18  C   UNL     1      43.829 -12.963   6.878  1.00  0.00     0.085 A 
HETATM   19 BR   UNL     1      44.336 -11.342   4.536  1.00  0.00    -0.048 Br
HETATM   20  C   UNL     1      43.219 -14.035   7.536  1.00  0.00     0.039 A 
HETATM   21  C   UNL     1      42.349 -14.894   6.851  1.00  0.00     0.014 A 
BRANCH  18  22
HETATM   22  O   UNL     1      44.679 -12.071   7.471  1.00  0.00    -0.355 OA
HETATM   23  C   UNL     1      44.115 -11.035   8.266  1.00  0.00     0.210 C 
ENDBRANCH  18  22
ENDBRANCH   1  15
BRANCH  12  24
HETATM   24  N   UNL     1      38.895 -13.936   2.406  1.00  0.00    -0.272 NA
HETATM   25  H   UNL     1      38.957 -13.068   2.936  1.00  0.00     0.127 HD
HETATM   26  H   UNL     1      37.943 -14.279   2.397  1.00  0.00     0.127 HD
ENDBRANCH  12  24
TORSDOF 3
ENDMDL
MODEL 3
REMARK VINA RESULT:      -7.8     13.329     15.074
REMARK  3 active torsions:
REMARK  status: ('A' for Active; 'I' for Inactive)
REMARK    1  A    between atoms: O_2  and  C_3 
REMARK    2  A    between atoms: C_7  and  C_8 
REMARK    3  A    between atoms: C_19  and  N_20 
ROOT
HETATM    1  C   UNL     1      46.863 -28.503  -0.283  1.00  0.00     0.244 A 
HETATM    2  N   UNL     1      47.876 -29.438   0.150  1.00  0.00    -0.151 N 
HETATM    3  C   UNL     1      47.853 -29.958   1.420  1.00  0.00     0.734 A 
HETATM    4  N   UNL     1      48.890 -30.748   1.591  1.00  0.00    -0.060 NA
HETATM    5  C   UNL     1      49.609 -30.703   0.422  1.00  0.00     0.103 A 
HETATM    6  C   UNL     1      48.995 -29.871  -0.509  1.00  0.00     0.083 A 
HETATM    7  C   UNL     1      50.807 -31.349   0.088  1.00  0.00     0.034 A 
HETATM    8  C   UNL     1      51.355 -31.132  -1.181  1.00  0.00     0.002 A 
HETATM    9  C   UNL     1      50.722 -30.290  -2.098  1.00  0.00     0.002 A 
HETATM   10  C   UNL     1      49.524 -29.638  -1.783  1.00  0.00     0.033 A 
HETATM   11  N   UNL     1      46.885 -29.662   2.315  1.00  0.00    -0.033 NA
HETATM   12  C   UNL     1      45.959 -28.836   1.985  1.00  0.00     0.193 A 
HETATM   13  N   UNL     1      45.866 -28.202   0.741  1.00  0.00    -0.339 N 
HETATM   14  H   UNL     1      45.147 -27.520   0.565  1.00  0.00     0.164 HD
ENDROOT
BRANCH   1  15
HETATM   15  C   UNL     1      46.097 -28.989  -1.499  1.00  0.00    -0.014 A 
HETATM   16  C   UNL     1      45.542 -30.278  -1.549  1.00  0.00     0.033 A 
HETATM   17  C   UNL     1      44.795 -30.692  -2.659  1.00  0.00     0.044 A 
HETATM   18  C   UNL     1      44.576 -29.829  -3.742  1.00  0.00     0.085 A 
HETATM   19 BR   UNL     1      44.081 -32.452  -2.628  1.00  0.00    -0.048 Br
HETATM   20  C   UNL     1      45.129 -28.546  -3.696  1.00  0.00     0.039 A 
HETATM   21  C   UNL     1      45.875 -28.128  -2.586  1.00  0.00     0.014 A 
BRANCH  18  22
HETATM   22  O   UNL     1      43.826 -30.314  -4.778  1.00  0.00    -0.355 OA
HETATM   23  C   UNL     1      44.506 -30.786  -5.934  1.00  0.00     0.210 C 
ENDBRANCH  18  22
ENDBRANCH   1  15
BRANCH  12  24
HETATM   24  N   UNL     1      44.962 -28.481   2.821  1.00  0.00    -0.272 NA
HETATM   25  H   UNL     1      45.337 -28.056   3.667  1.00  0.00     0.127 HD
HETATM   26  H   UNL     1      44.293 -29.204   3.052  1.00  0.00     0.127 HD
ENDBRANCH  12  24
TORSDOF 3
ENDMDL
MODEL 4
REMARK VINA RESULT:      -7.7      3.097      5.726
REMARK  3 active torsions:
REMARK  status: ('A' for Active; 'I' for Inactive)
REMARK    1  A    between atoms: O_2  and  C_3 
REMARK    2  A    between atoms: C_7  and  C_8 
REMARK    3  A    between atoms: C_19  and  N_20 
ROOT
HETATM    1  C   UNL     1      41.782 -14.939   5.731  1.00  0.00     0.244 A 
HETATM    2  N   UNL     1      41.765 -14.207   4.485  1.00  0.00    -0.151 N 
HETATM    3  C   UNL     1      42.342 -12.966   4.394  1.00  0.00     0.734 A 
HETATM    4  N   UNL     1      42.166 -12.486   3.183  1.00  0.00    -0.060 NA
HETATM    5  C   UNL     1      41.431 -13.422   2.498  1.00  0.00     0.103 A 
HETATM    6  C   UNL     1      41.151 -14.522   3.303  1.00  0.00     0.083 A 
HETATM    7  C   UNL     1      40.958 -13.393   1.178  1.00  0.00     0.034 A 
HETATM    8  C   UNL     1      40.212 -14.480   0.709  1.00  0.00     0.002 A 
HETATM    9  C   UNL     1      39.942 -15.572   1.536  1.00  0.00     0.002 A 
HETATM   10  C   UNL     1      40.406 -15.619   2.856  1.00  0.00     0.033 A 
HETATM   11  N   UNL     1      42.979 -12.376   5.430  1.00  0.00    -0.033 NA
HETATM   12  C   UNL     1      43.025 -12.980   6.561  1.00  0.00     0.193 A 
HETATM   13  N   UNL     1      42.457 -14.233   6.817  1.00  0.00    -0.339 N 
HETATM   14  H   UNL     1      42.478 -14.628   7.743  1.00  0.00     0.164 HD
ENDROOT
BRANCH   1  15
HETATM   15  C   UNL     1      42.461 -16.291   5.609  1.00  0.00    -0.014 A 
HETATM   16  C   UNL     1      42.851 -16.803   4.361  1.00  0.00     0.033 A 
HETATM   17  C   UNL     1      43.522 -18.030   4.271  1.00  0.00     0.044 A 
HETATM   18  C   UNL     1      43.827 -18.770   5.422  1.00  0.00     0.085 A 
HETATM   19 BR   UNL     1      44.013 -18.636   2.539  1.00  0.00    -0.048 Br
HETATM   20  C   UNL     1      43.439 -18.262   6.665  1.00  0.00     0.039 A 
HETATM   21  C   UNL     1      42.769 -17.035   6.759  1.00  0.00     0.014 A 
BRANCH  18  22
HETATM   22  O   UNL     1      44.494 -19.950   5.241  1.00  0.00    -0.355 OA
HETATM   23  C   UNL     1      43.746 -21.158   5.304  1.00  0.00     0.210 C 
ENDBRANCH  18  22
ENDBRANCH   1  15
BRANCH  12  24
HETATM   24  N   UNL     1      43.632 -12.458   7.646  1.00  0.00    -0.272 NA
HETATM   25  H   UNL     1      44.321 -11.760   7.372  1.00  0.00     0.127 HD
HETATM   26  H   UNL     1      44.037 -13.121   8.295  1.00  0.00     0.127 HD
ENDBRANCH  12  24
TORSDOF 3
ENDMDL
MODEL 5
REMARK VINA RESULT:      -7.6      2.790      3.621
REMARK  3 active torsions:
REMARK  status: ('A' for Active; 'I' for Inactive)
REMARK    1  A    between atoms: O_2  and  C_3 
REMARK    2  A    between atoms: C_7  and  C_8 
REMARK    3  A    between atoms: C_19  and  N_20 
ROOT
HETATM    1  C   UNL     1      43.136 -13.990   6.096  1.00  0.00     0.244 A 
HETATM    2  N   UNL     1      43.052 -15.159   5.252  1.00  0.00    -0.151 N 
HETATM    3  C   UNL     1      43.025 -16.417   5.798  1.00  0.00     0.734 A 
HETATM    4  N   UNL     1      42.986 -17.314   4.838  1.00  0.00    -0.060 NA
HETATM    5  C   UNL     1      43.026 -16.618   3.655  1.00  0.00     0.103 A 
HETATM    6  C   UNL     1      43.079 -15.247   3.886  1.00  0.00     0.083 A 
HETATM    7  C   UNL     1      43.028 -17.098   2.338  1.00  0.00     0.034 A 
HETATM    8  C   UNL     1      43.086 -16.175   1.288  1.00  0.00     0.002 A 
HETATM    9  C   UNL     1      43.140 -14.804   1.543  1.00  0.00     0.002 A 
HETATM   10  C   UNL     1      43.139 -14.306   2.852  1.00  0.00     0.033 A 
HETATM   11  N   UNL     1      43.040 -16.637   7.131  1.00  0.00    -0.033 NA
HETATM   12  C   UNL     1      43.115 -15.635   7.930  1.00  0.00     0.193 A 
HETATM   13  N   UNL     1      43.182 -14.298   7.522  1.00  0.00    -0.339 N 
HETATM   14  H   UNL     1      43.297 -13.560   8.198  1.00  0.00     0.164 HD
ENDROOT
BRANCH   1  15
HETATM   15  C   UNL     1      41.971 -13.037   5.898  1.00  0.00    -0.014 A 
HETATM   16  C   UNL     1      42.155 -11.645   5.902  1.00  0.00     0.033 A 
HETATM   17  C   UNL     1      41.077 -10.782   5.668  1.00  0.00     0.044 A 
HETATM   18  C   UNL     1      39.792 -11.285   5.417  1.00  0.00     0.085 A 
HETATM   19 BR   UNL     1      41.428  -8.915   5.688  1.00  0.00    -0.048 Br
HETATM   20  C   UNL     1      39.607 -12.671   5.414  1.00  0.00     0.039 A 
HETATM   21  C   UNL     1      40.684 -13.537   5.646  1.00  0.00     0.014 A 
BRANCH  18  22
HETATM   22  O   UNL     1      38.802 -10.370   5.188  1.00  0.00    -0.355 OA
HETATM   23  C   UNL     1      38.441 -10.097   3.840  1.00  0.00     0.210 C 
ENDBRANCH  18  22
ENDBRANCH   1  15
BRANCH  12  24
HETATM   24  N   UNL     1      43.145 -15.767   9.271  1.00  0.00    -0.272 NA
HETATM   25  H   UNL     1      42.204 -15.717   9.659  1.00  0.00     0.127 HD
HETATM   26  H   UNL     1      43.768 -15.144   9.770  1.00  0.00     0.127 HD
ENDBRANCH  12  24
TORSDOF 3
ENDMDL
MODEL 6
REMARK VINA RESULT:      -7.6      9.186     12.060
REMARK  3 active torsions:
REMARK  status: ('A' for Active; 'I' for Inactive)
REMARK    1  A    between atoms: O_2  and  C_3 
REMARK    2  A    between atoms: C_7  and  C_8 
REMARK    3  A    between atoms: C_19  and  N_20 
ROOT
HETATM    1  C   UNL     1      41.018  -8.983  10.979  1.00  0.00     0.244 A 
HETATM    2  N   UNL     1      41.234  -7.928  11.942  1.00  0.00    -0.151 N 
HETATM    3  C   UNL     1      40.871  -8.093  13.255  1.00  0.00     0.734 A 
HETATM    4  N   UNL     1      41.129  -6.991  13.925  1.00  0.00    -0.060 NA
HETATM    5  C   UNL     1      41.631  -6.093  13.016  1.00  0.00     0.103 A 
HETATM    6  C   UNL     1      41.700  -6.656  11.746  1.00  0.00     0.083 A 
HETATM    7  C   UNL     1      42.045  -4.768  13.209  1.00  0.00     0.034 A 
HETATM    8  C   UNL     1      42.516  -4.045  12.107  1.00  0.00     0.002 A 
HETATM    9  C   UNL     1      42.575  -4.631  10.841  1.00  0.00     0.002 A 
HETATM   10  C   UNL     1      42.167  -5.953  10.629  1.00  0.00     0.033 A 
HETATM   11  N   UNL     1      40.332  -9.238  13.728  1.00  0.00    -0.033 NA
HETATM   12  C   UNL     1      40.117 -10.210  12.916  1.00  0.00     0.193 A 
HETATM   13  N   UNL     1      40.404 -10.179  11.547  1.00  0.00    -0.339 N 
HETATM   14  H   UNL     1      40.158 -10.955  10.953  1.00  0.00     0.164 HD
ENDROOT
BRANCH   1  15
HETATM   15  C   UNL     1      42.301  -9.436  10.306  1.00  0.00    -0.014 A 
HETATM   16  C   UNL     1      42.325  -9.809   8.953  1.00  0.00     0.033 A 
HETATM   17  C   UNL     1      43.527 -10.176   8.334  1.00  0.00     0.044 A 
HETATM   18  C   UNL     1      44.734 -10.172   9.047  1.00  0.00     0.085 A 
HETATM   19 BR   UNL     1      43.457 -10.659   6.498  1.00  0.00    -0.048 Br
HETATM   20  C   UNL     1      44.712  -9.802  10.395  1.00  0.00     0.039 A 
HETATM   21  C   UNL     1      43.512  -9.433  11.016  1.00  0.00     0.014 A 
BRANCH  18  22
HETATM   22  O   UNL     1      45.861 -10.534   8.361  1.00  0.00    -0.355 OA
HETATM   23  C   UNL     1      46.693  -9.501   7.849  1.00  0.00     0.210 C 
ENDBRANCH  18  22
ENDBRANCH   1  15
BRANCH  12  24
HETATM   24  N   UNL     1      39.575 -11.382  13.304  1.00  0.00    -0.272 NA
HETATM   25  H   UNL     1      38.744 -11.594  12.754  1.00  0.00     0.127 HD
HETATM   26  H   UNL     1      39.380 -11.480  14.292  1.00  0.00     0.127 HD
ENDBRANCH  12  24
TORSDOF 3
ENDMDL
MODEL 7
REMARK VINA RESULT:      -7.5      3.617      5.048
REMARK  3 active torsions:
REMARK  status: ('A' for Active; 'I' for Inactive)
REMARK    1  A    between atoms: O_2  and  C_3 
REMARK    2  A    between atoms: C_7  and  C_8 
REMARK    3  A    between atoms: C_19  and  N_20 
ROOT
HETATM    1  C   UNL     1      40.239 -14.884   3.684  1.00  0.00     0.244 A 
HETATM    2  N   UNL     1      41.341 -15.771   3.390  1.00  0.00    -0.151 N 
HETATM    3  C   UNL     1      41.709 -16.025   2.092  1.00  0.00     0.734 A 
HETATM    4  N   UNL     1      42.703 -16.885   2.077  1.00  0.00    -0.060 NA
HETATM    5  C   UNL     1      42.951 -17.215   3.387  1.00  0.00     0.103 A 
HETATM    6  C   UNL     1      42.094 -16.531   4.243  1.00  0.00     0.083 A 
HETATM    7  C   UNL     1      43.895 -18.104   3.918  1.00  0.00     0.034 A 
HETATM    8  C   UNL     1      43.946 -18.280   5.305  1.00  0.00     0.002 A 
HETATM    9  C   UNL     1      43.074 -17.583   6.146  1.00  0.00     0.002 A 
HETATM   10  C   UNL     1      42.125 -16.691   5.633  1.00  0.00     0.033 A 
HETATM   11  N   UNL     1      41.100 -15.449   1.032  1.00  0.00    -0.033 NA
HETATM   12  C   UNL     1      40.114 -14.652   1.234  1.00  0.00     0.193 A 
HETATM   13  N   UNL     1      39.606 -14.321   2.494  1.00  0.00    -0.339 N 
HETATM   14  H   UNL     1      38.792 -13.733   2.583  1.00  0.00     0.164 HD
ENDROOT
BRANCH   1  15
HETATM   15  C   UNL     1      40.647 -13.708   4.552  1.00  0.00    -0.014 A 
HETATM   16  C   UNL     1      41.956 -13.200   4.528  1.00  0.00     0.033 A 
HETATM   17  C   UNL     1      42.303 -12.083   5.298  1.00  0.00     0.044 A 
HETATM   18  C   UNL     1      41.352 -11.439   6.103  1.00  0.00     0.085 A 
HETATM   19 BR   UNL     1      44.098 -11.468   5.193  1.00  0.00    -0.048 Br
HETATM   20  C   UNL     1      40.049 -11.944   6.129  1.00  0.00     0.039 A 
HETATM   21  C   UNL     1      39.698 -13.061   5.359  1.00  0.00     0.014 A 
BRANCH  18  22
HETATM   22  O   UNL     1      41.776 -10.349   6.812  1.00  0.00    -0.355 OA
HETATM   23  C   UNL     1      41.284  -9.071   6.431  1.00  0.00     0.210 C 
ENDBRANCH  18  22
ENDBRANCH   1  15
BRANCH  12  24
HETATM   24  N   UNL     1      39.447 -14.044   0.232  1.00  0.00    -0.272 NA
HETATM   25  H   UNL     1      39.586 -14.540  -0.646  1.00  0.00     0.127 HD
HETATM   26  H   UNL     1      39.624 -13.054   0.113  1.00  0.00     0.127 HD
ENDBRANCH  12  24
TORSDOF 3
ENDMDL
MODEL 8
REMARK VINA RESULT:      -7.5      2.203      3.030
REMARK  3 active torsions:
REMARK  status: ('A' for Active; 'I' for Inactive)
REMARK    1  A    between atoms: O_2  and  C_3 
REMARK    2  A    between atoms: C_7  and  C_8 
REMARK    3  A    between atoms: C_19  and  N_20 
ROOT
HETATM    1  C   UNL     1      43.209 -13.302   4.426  1.00  0.00     0.244 A 
HETATM    2  N   UNL     1      43.272 -14.722   4.688  1.00  0.00    -0.151 N 
HETATM    3  C   UNL     1      43.443 -15.192   5.965  1.00  0.00     0.734 A 
HETATM    4  N   UNL     1      43.509 -16.505   5.947  1.00  0.00    -0.060 NA
HETATM    5  C   UNL     1      43.416 -16.879   4.629  1.00  0.00     0.103 A 
HETATM    6  C   UNL     1      43.276 -15.768   3.804  1.00  0.00     0.083 A 
HETATM    7  C   UNL     1      43.452 -18.161   4.062  1.00  0.00     0.034 A 
HETATM    8  C   UNL     1      43.348 -18.283   2.672  1.00  0.00     0.002 A 
HETATM    9  C   UNL     1      43.209 -17.152   1.864  1.00  0.00     0.002 A 
HETATM   10  C   UNL     1      43.170 -15.865   2.412  1.00  0.00     0.033 A 
HETATM   11  N   UNL     1      43.526 -14.377   7.040  1.00  0.00    -0.033 NA
HETATM   12  C   UNL     1      43.476 -13.106   6.867  1.00  0.00     0.193 A 
HETATM   13  N   UNL     1      43.337 -12.479   5.625  1.00  0.00    -0.339 N 
HETATM   14  H   UNL     1      43.362 -11.475   5.551  1.00  0.00     0.164 HD
ENDROOT
BRANCH   1  15
HETATM   15  C   UNL     1      41.913 -12.887   3.754  1.00  0.00    -0.014 A 
HETATM   16  C   UNL     1      41.887 -12.454   2.419  1.00  0.00     0.033 A 
HETATM   17  C   UNL     1      40.675 -12.122   1.799  1.00  0.00     0.044 A 
HETATM   18  C   UNL     1      39.460 -12.221   2.493  1.00  0.00     0.085 A 
HETATM   19 BR   UNL     1      40.743 -11.553  -0.013  1.00  0.00    -0.048 Br
HETATM   20  C   UNL     1      39.484 -12.649   3.823  1.00  0.00     0.039 A 
HETATM   21  C   UNL     1      40.695 -12.984   4.445  1.00  0.00     0.014 A 
BRANCH  18  22
HETATM   22  O   UNL     1      38.326 -11.887   1.806  1.00  0.00    -0.355 OA
HETATM   23  C   UNL     1      37.798 -10.578   1.981  1.00  0.00     0.210 C 
ENDBRANCH  18  22
ENDBRANCH   1  15
BRANCH  12  24
HETATM   24  N   UNL     1      43.560 -12.225   7.884  1.00  0.00    -0.272 NA
HETATM   25  H   UNL     1      42.663 -11.769   8.041  1.00  0.00     0.127 HD
HETATM   26  H   UNL     1      44.301 -11.538   7.822  1.00  0.00     0.127 HD
ENDBRANCH  12  24
TORSDOF 3
ENDMDL
MODEL 9
REMARK VINA RESULT:      -7.5      3.094      4.429
REMARK  3 active torsions:
REMARK  status: ('A' for Active; 'I' for Inactive)
REMARK    1  A    between atoms: O_2  and  C_3 
REMARK    2  A    between atoms: C_7  and  C_8 
REMARK    3  A    between atoms: C_19  and  N_20 
ROOT
HETATM    1  C   UNL     1      41.369 -12.470   3.922  1.00  0.00     0.244 A 
HETATM    2  N   UNL     1      41.462 -13.910   3.997  1.00  0.00    -0.151 N 
HETATM    3  C   UNL     1      40.898 -14.594   5.044  1.00  0.00     0.734 A 
HETATM    4  N   UNL     1      41.145 -15.879   4.914  1.00  0.00    -0.060 NA
HETATM    5  C   UNL     1      41.914 -16.014   3.784  1.00  0.00     0.103 A 
HETATM    6  C   UNL     1      42.140 -14.779   3.186  1.00  0.00     0.083 A 
HETATM    7  C   UNL     1      42.462 -17.171   3.212  1.00  0.00     0.034 A 
HETATM    8  C   UNL     1      43.228 -17.046   2.049  1.00  0.00     0.002 A 
HETATM    9  C   UNL     1      43.444 -15.795   1.466  1.00  0.00     0.002 A 
HETATM   10  C   UNL     1      42.904 -14.629   2.023  1.00  0.00     0.033 A 
HETATM   11  N   UNL     1      40.205 -13.983   6.030  1.00  0.00    -0.033 NA
HETATM   12  C   UNL     1      40.091 -12.705   6.015  1.00  0.00     0.193 A 
HETATM   13  N   UNL     1      40.636 -11.870   5.033  1.00  0.00    -0.339 N 
HETATM   14  H   UNL     1      40.560 -10.869   5.109  1.00  0.00     0.164 HD
ENDROOT
BRANCH   1  15
HETATM   15  C   UNL     1      40.691 -11.991   2.651  1.00  0.00    -0.014 A 
HETATM   16  C   UNL     1      41.360 -11.170   1.729  1.00  0.00     0.033 A 
HETATM   17  C   UNL     1      40.736 -10.778   0.538  1.00  0.00     0.044 A 
HETATM   18  C   UNL     1      39.434 -11.202   0.233  1.00  0.00     0.085 A 
HETATM   19 BR   UNL     1      41.726  -9.671  -0.648  1.00  0.00    -0.048 Br
HETATM   20  C   UNL     1      38.766 -12.018   1.150  1.00  0.00     0.039 A 
HETATM   21  C   UNL     1      39.388 -12.413   2.342  1.00  0.00     0.014 A 
BRANCH  18  22
HETATM   22  O   UNL     1      38.909 -10.781  -0.957  1.00  0.00    -0.355 OA
HETATM   23  C   UNL     1      38.725 -11.744  -1.987  1.00  0.00     0.210 C 
ENDBRANCH  18  22
ENDBRANCH   1  15
BRANCH  12  24
HETATM   24  N   UNL     1      39.425 -12.017   6.964  1.00  0.00    -0.272 NA
HETATM   25  H   UNL     1      38.422 -12.179   6.889  1.00  0.00     0.127 HD
HETATM   26  H   UNL     1      39.621 -11.026   7.021  1.00  0.00     0.127 HD
ENDBRANCH  12  24
TORSDOF 3
ENDMDL
MODEL 10
REMARK VINA RESULT:      -7.4      3.402      6.405
REMARK  3 active torsions:
REMARK  status: ('A' for Active; 'I' for Inactive)
REMARK    1  A    between atoms: O_2  and  C_3 
REMARK    2  A    between atoms: C_7  and  C_8 
REMARK    3  A    between atoms: C_19  and  N_20 
ROOT
HETATM    1  C   UNL     1      42.277 -13.668   4.222  1.00  0.00     0.244 A 
HETATM    2  N   UNL     1      42.088 -12.778   3.100  1.00  0.00    -0.151 N 
HETATM    3  C   UNL     1      42.742 -11.573   3.043  1.00  0.00     0.734 A 
HETATM    4  N   UNL     1      42.382 -10.927   1.956  1.00  0.00    -0.060 NA
HETATM    5  C   UNL     1      41.452 -11.717   1.325  1.00  0.00     0.103 A 
HETATM    6  C   UNL     1      41.237 -12.895   2.034  1.00  0.00     0.083 A 
HETATM    7  C   UNL     1      40.743 -11.484   0.139  1.00  0.00     0.034 A 
HETATM    8  C   UNL     1      39.830 -12.450  -0.298  1.00  0.00     0.002 A 
HETATM    9  C   UNL     1      39.629 -13.625   0.431  1.00  0.00     0.002 A 
HETATM   10  C   UNL     1      40.329 -13.875   1.617  1.00  0.00     0.033 A 
HETATM   11  N   UNL     1      43.611 -11.166   3.994  1.00  0.00    -0.033 NA
HETATM   12  C   UNL     1      43.819 -11.917   5.014  1.00  0.00     0.193 A 
HETATM   13  N   UNL     1      43.204 -13.156   5.227  1.00  0.00    -0.339 N 
HETATM   14  H   UNL     1      43.366 -13.671   6.078  1.00  0.00     0.164 HD
ENDROOT
BRANCH   1  15
HETATM   15  C   UNL     1      42.802 -15.031   3.808  1.00  0.00    -0.014 A 
HETATM   16  C   UNL     1      43.000 -16.055   4.748  1.00  0.00     0.033 A 
HETATM   17  C   UNL     1      43.437 -17.323   4.342  1.00  0.00     0.044 A 
HETATM   18  C   UNL     1      43.680 -17.601   2.989  1.00  0.00     0.085 A 
HETATM   19 BR   UNL     1      43.669 -18.644   5.687  1.00  0.00    -0.048 Br
HETATM   20  C   UNL     1      43.485 -16.582   2.052  1.00  0.00     0.039 A 
HETATM   21  C   UNL     1      43.046 -15.314   2.455  1.00  0.00     0.014 A 
BRANCH  18  22
HETATM   22  O   UNL     1      44.093 -18.868   2.682  1.00  0.00    -0.355 OA
HETATM   23  C   UNL     1      43.145 -19.762   2.111  1.00  0.00     0.210 C 
ENDBRANCH  18  22
ENDBRANCH   1  15
BRANCH  12  24
HETATM   24  N   UNL     1      44.663 -11.582   6.011  1.00  0.00    -0.272 NA
HETATM   25  H   UNL     1      44.701 -12.319   6.714  1.00  0.00     0.127 HD
HETATM   26  H   UNL     1      44.507 -10.683   6.447  1.00  0.00     0.127 HD
ENDBRANCH  12  24
TORSDOF 3
ENDMDL
