MODEL 1
REMARK VINA RESULT:     -10.3      0.000      0.000
REMARK  6 active torsions:
REMARK  status: ('A' for Active; 'I' for Inactive)
REMARK    1  A    between atoms: C_5  and  C_6 
REMARK    2  A    between atoms: C_6  and  N_7 
REMARK       I    between atoms: N_7  and  C_8 
REMARK    3  A    between atoms: C_8  and  C_9 
REMARK    4  A    between atoms: C_10  and  N_11 
REMARK    5  A    between atoms: N_12  and  C_13 
REMARK    6  A    between atoms: C_16  and  N_17 
REMARK       I    between atoms: N_17  and  C_18 
ROOT
HETATM    1  C   UNL     1      42.901 -15.289   6.554  1.00  0.00     0.103 C 
HETATM    2  C   UNL     1      41.703 -15.445   5.860  1.00  0.00     0.105 C 
HETATM    3  N   UNL     1      41.581 -14.293   5.076  1.00  0.00    -0.284 N 
HETATM    4  C   UNL     1      42.115 -13.273   5.856  1.00  0.00     0.166 A 
HETATM    5  C   UNL     1      43.042 -13.884   6.703  1.00  0.00     0.123 A 
HETATM    6  N   UNL     1      43.887 -13.143   7.464  1.00  0.00    -0.242 NA
HETATM    7  C   UNL     1      43.690 -11.818   7.404  1.00  0.00     0.086 A 
HETATM    8  C   UNL     1      42.704 -11.224   6.572  1.00  0.00     0.088 A 
HETATM    9  N   UNL     1      41.914 -11.939   5.754  1.00  0.00    -0.226 NA
HETATM   10  C   UNL     1      44.479 -10.997   8.198  1.00  0.00     0.034 A 
HETATM   11  C   UNL     1      44.314  -9.611   8.210  1.00  0.00     0.002 A 
HETATM   12  C   UNL     1      43.339  -9.032   7.409  1.00  0.00     0.002 A 
HETATM   13  C   UNL     1      42.548  -9.844   6.596  1.00  0.00     0.034 A 
ENDROOT
BRANCH   1  14
HETATM   14  C   UNL     1      43.787 -16.359   6.996  1.00  0.00     0.257 C 
HETATM   15  N   UNL     1      43.118 -17.552   7.194  1.00  0.00    -0.352 N 
HETATM   16  H   UNL     1      42.122 -17.528   7.011  1.00  0.00     0.163 HD
HETATM   17  O   UNL     1      45.006 -16.264   7.056  1.00  0.00    -0.267 OA
BRANCH  15  18
HETATM   18  C   UNL     1      43.769 -18.825   6.998  1.00  0.00     0.161 C 
BRANCH  18  19
HETATM   19  C   UNL     1      43.760 -19.206   5.534  1.00  0.00    -0.041 A 
HETATM   20  C   UNL     1      43.684 -18.225   4.531  1.00  0.00     0.009 A 
HETATM   21  C   UNL     1      43.618 -18.582   3.182  1.00  0.00     0.007 A 
HETATM   22  C   UNL     1      43.648 -19.928   2.806  1.00  0.00    -0.062 A 
HETATM   23  C   UNL     1      43.585 -20.306   1.356  1.00  0.00     0.048 C 
HETATM   24  C   UNL     1      43.782 -20.906   3.797  1.00  0.00     0.007 A 
HETATM   25  C   UNL     1      43.831 -20.550   5.149  1.00  0.00     0.009 A 
ENDBRANCH  18  19
ENDBRANCH  15  18
ENDBRANCH   1  14
BRANCH   2  26
HETATM   26  N   UNL     1      40.865 -16.519   5.774  1.00  0.00    -0.287 NA
HETATM   27  H   UNL     1      40.027 -16.513   6.362  1.00  0.00     0.125 HD
HETATM   28  H   UNL     1      40.618 -16.855   4.840  1.00  0.00     0.125 HD
ENDBRANCH   2  26
BRANCH   3  29
HETATM   29  C   UNL     1      41.269 -14.250   3.673  1.00  0.00     0.042 A 
HETATM   30  C   UNL     1      40.113 -13.589   3.230  1.00  0.00     0.032 A 
HETATM   31  C   UNL     1      39.622 -13.774   1.933  1.00  0.00     0.032 A 
HETATM   32  C   UNL     1      40.263 -14.637   1.051  1.00  0.00     0.034 A 
HETATM   33  C   UNL     1      41.465 -15.229   1.455  1.00  0.00     0.032 A 
HETATM   34  C   UNL     1      41.966 -15.038   2.751  1.00  0.00     0.032 A 
BRANCH  32  35
HETATM   35  N   UNL     1      39.725 -15.016  -0.195  1.00  0.00    -0.328 N 
HETATM   36  C   UNL     1      39.750 -14.284  -1.370  1.00  0.00     0.218 C 
HETATM   37  C   UNL     1      38.852 -14.872  -2.428  1.00  0.00     0.117 C 
HETATM   38  O   UNL     1      40.401 -13.269  -1.598  1.00  0.00    -0.274 OA
HETATM   39  H   UNL     1      39.187 -15.873  -0.203  1.00  0.00     0.169 HD
ENDBRANCH  32  35
ENDBRANCH   3  29
TORSDOF 6
ENDMDL
MODEL 2
REMARK VINA RESULT:     -10.0      2.805      8.662
REMARK  6 active torsions:
REMARK  status: ('A' for Active; 'I' for Inactive)
REMARK    1  A    between atoms: C_5  and  C_6 
REMARK    2  A    between atoms: C_6  and  N_7 
REMARK       I    between atoms: N_7  and  C_8 
REMARK    3  A    between atoms: C_8  and  C_9 
REMARK    4  A    between atoms: C_10  and  N_11 
REMARK    5  A    between atoms: N_12  and  C_13 
REMARK    6  A    between atoms: C_16  and  N_17 
REMARK       I    between atoms: N_17  and  C_18 
ROOT
HETATM    1  C   UNL     1      40.880 -15.254   2.562  1.00  0.00     0.103 C 
HETATM    2  C   UNL     1      40.797 -14.551   3.762  1.00  0.00     0.105 C 
HETATM    3  N   UNL     1      42.011 -14.793   4.413  1.00  0.00    -0.284 N 
HETATM    4  C   UNL     1      42.336 -16.105   4.088  1.00  0.00     0.166 A 
HETATM    5  C   UNL     1      41.726 -16.355   2.856  1.00  0.00     0.123 A 
HETATM    6  N   UNL     1      42.003 -17.485   2.156  1.00  0.00    -0.242 NA
HETATM    7  C   UNL     1      42.811 -18.354   2.780  1.00  0.00     0.086 A 
HETATM    8  C   UNL     1      43.377 -18.098   4.057  1.00  0.00     0.088 A 
HETATM    9  N   UNL     1      43.176 -16.951   4.726  1.00  0.00    -0.226 NA
HETATM   10  C   UNL     1      43.097 -19.559   2.151  1.00  0.00     0.034 A 
HETATM   11  C   UNL     1      43.907 -20.525   2.750  1.00  0.00     0.002 A 
HETATM   12  C   UNL     1      44.446 -20.281   4.006  1.00  0.00     0.002 A 
HETATM   13  C   UNL     1      44.179 -19.069   4.644  1.00  0.00     0.034 A 
ENDROOT
BRANCH   1  14
HETATM   14  C   UNL     1      40.237 -14.892   1.305  1.00  0.00     0.257 C 
HETATM   15  N   UNL     1      40.479 -13.579   0.945  1.00  0.00    -0.352 N 
HETATM   16  H   UNL     1      41.057 -13.052   1.588  1.00  0.00     0.163 HD
HETATM   17  O   UNL     1      39.662 -15.686   0.571  1.00  0.00    -0.267 OA
BRANCH  15  18
HETATM   18  C   UNL     1      40.532 -13.172  -0.438  1.00  0.00     0.161 C 
BRANCH  18  19
HETATM   19  C   UNL     1      40.948 -11.722  -0.549  1.00  0.00    -0.041 A 
HETATM   20  C   UNL     1      41.066 -11.098  -1.802  1.00  0.00     0.009 A 
HETATM   21  C   UNL     1      41.505  -9.776  -1.907  1.00  0.00     0.007 A 
HETATM   22  C   UNL     1      41.815  -9.043  -0.758  1.00  0.00    -0.062 A 
HETATM   23  C   UNL     1      42.278  -7.620  -0.875  1.00  0.00     0.048 C 
HETATM   24  C   UNL     1      41.643  -9.641   0.495  1.00  0.00     0.007 A 
HETATM   25  C   UNL     1      41.219 -10.970   0.599  1.00  0.00     0.009 A 
ENDBRANCH  18  19
ENDBRANCH  15  18
ENDBRANCH   1  14
BRANCH   2  26
HETATM   26  N   UNL     1      39.856 -13.667   4.205  1.00  0.00    -0.287 NA
HETATM   27  H   UNL     1      38.873 -13.944   4.127  1.00  0.00     0.125 HD
HETATM   28  H   UNL     1      40.010 -13.227   5.115  1.00  0.00     0.125 HD
ENDBRANCH   2  26
BRANCH   3  29
HETATM   29  C   UNL     1      42.866 -13.803   5.011  1.00  0.00     0.042 A 
HETATM   30  C   UNL     1      43.196 -13.888   6.372  1.00  0.00     0.032 A 
HETATM   31  C   UNL     1      43.768 -12.806   7.050  1.00  0.00     0.032 A 
HETATM   32  C   UNL     1      44.008 -11.606   6.391  1.00  0.00     0.034 A 
HETATM   33  C   UNL     1      43.766 -11.543   5.014  1.00  0.00     0.032 A 
HETATM   34  C   UNL     1      43.202 -12.629   4.328  1.00  0.00     0.032 A 
BRANCH  32  35
HETATM   35  N   UNL     1      44.402 -10.423   7.048  1.00  0.00    -0.328 N 
HETATM   36  C   UNL     1      45.640 -10.152   7.606  1.00  0.00     0.218 C 
HETATM   37  C   UNL     1      45.623  -8.908   8.455  1.00  0.00     0.117 C 
HETATM   38  O   UNL     1      46.672 -10.801   7.469  1.00  0.00    -0.274 OA
HETATM   39  H   UNL     1      43.671  -9.740   7.205  1.00  0.00     0.169 HD
ENDBRANCH  32  35
ENDBRANCH   3  29
TORSDOF 6
ENDMDL
MODEL 3
REMARK VINA RESULT:     -10.0      1.413      2.044
REMARK  6 active torsions:
REMARK  status: ('A' for Active; 'I' for Inactive)
REMARK    1  A    between atoms: C_5  and  C_6 
REMARK    2  A    between atoms: C_6  and  N_7 
REMARK       I    between atoms: N_7  and  C_8 
REMARK    3  A    between atoms: C_8  and  C_9 
REMARK    4  A    between atoms: C_10  and  N_11 
REMARK    5  A    between atoms: N_12  and  C_13 
REMARK    6  A    between atoms: C_16  and  N_17 
REMARK       I    between atoms: N_17  and  C_18 
ROOT
HETATM    1  C   UNL     1      41.984 -14.083   5.655  1.00  0.00     0.103 C 
HETATM    2  C   UNL     1      40.942 -14.623   4.904  1.00  0.00     0.105 C 
HETATM    3  N   UNL     1      40.628 -13.642   3.957  1.00  0.00    -0.284 N 
HETATM    4  C   UNL     1      40.810 -12.434   4.619  1.00  0.00     0.166 A 
HETATM    5  C   UNL     1      41.763 -12.682   5.611  1.00  0.00     0.123 A 
HETATM    6  N   UNL     1      42.316 -11.664   6.318  1.00  0.00    -0.242 NA
HETATM    7  C   UNL     1      41.809 -10.450   6.055  1.00  0.00     0.086 A 
HETATM    8  C   UNL     1      40.803 -10.232   5.077  1.00  0.00     0.088 A 
HETATM    9  N   UNL     1      40.303 -11.218   4.313  1.00  0.00    -0.226 NA
HETATM   10  C   UNL     1      42.286  -9.365   6.778  1.00  0.00     0.034 A 
HETATM   11  C   UNL     1      41.788  -8.076   6.580  1.00  0.00     0.002 A 
HETATM   12  C   UNL     1      40.792  -7.867   5.636  1.00  0.00     0.002 A 
HETATM   13  C   UNL     1      40.314  -8.945   4.892  1.00  0.00     0.034 A 
ENDROOT
BRANCH   1  14
HETATM   14  C   UNL     1      43.052 -14.830   6.309  1.00  0.00     0.257 C 
HETATM   15  N   UNL     1      42.805 -16.190   6.338  1.00  0.00    -0.352 N 
HETATM   16  H   UNL     1      41.934 -16.483   5.912  1.00  0.00     0.163 HD
HETATM   17  O   UNL     1      44.114 -14.341   6.671  1.00  0.00    -0.267 OA
BRANCH  15  18
HETATM   18  C   UNL     1      43.878 -17.154   6.317  1.00  0.00     0.161 C 
BRANCH  18  19
HETATM   19  C   UNL     1      43.779 -18.032   5.090  1.00  0.00    -0.041 A 
HETATM   20  C   UNL     1      44.016 -19.415   5.170  1.00  0.00     0.009 A 
HETATM   21  C   UNL     1      43.980 -20.216   4.026  1.00  0.00     0.007 A 
HETATM   22  C   UNL     1      43.685 -19.655   2.780  1.00  0.00    -0.062 A 
HETATM   23  C   UNL     1      43.639 -20.521   1.556  1.00  0.00     0.048 C 
HETATM   24  C   UNL     1      43.391 -18.289   2.704  1.00  0.00     0.007 A 
HETATM   25  C   UNL     1      43.444 -17.484   3.847  1.00  0.00     0.009 A 
ENDBRANCH  18  19
ENDBRANCH  15  18
ENDBRANCH   1  14
BRANCH   2  26
HETATM   26  N   UNL     1      40.404 -15.877   4.912  1.00  0.00    -0.287 NA
HETATM   27  H   UNL     1      40.814 -16.564   5.551  1.00  0.00     0.125 HD
HETATM   28  H   UNL     1      39.385 -15.957   4.942  1.00  0.00     0.125 HD
ENDBRANCH   2  26
BRANCH   3  29
HETATM   29  C   UNL     1      40.466 -13.849   2.543  1.00  0.00     0.042 A 
HETATM   30  C   UNL     1      40.001 -12.805   1.728  1.00  0.00     0.032 A 
HETATM   31  C   UNL     1      39.553 -13.045   0.425  1.00  0.00     0.032 A 
HETATM   32  C   UNL     1      39.542 -14.335  -0.092  1.00  0.00     0.034 A 
HETATM   33  C   UNL     1      40.087 -15.367   0.680  1.00  0.00     0.032 A 
HETATM   34  C   UNL     1      40.546 -15.129   1.984  1.00  0.00     0.032 A 
BRANCH  32  35
HETATM   35  N   UNL     1      38.933 -14.677  -1.317  1.00  0.00    -0.328 N 
HETATM   36  C   UNL     1      39.401 -14.389  -2.588  1.00  0.00     0.218 C 
HETATM   37  C   UNL     1      38.369 -14.666  -3.652  1.00  0.00     0.117 C 
HETATM   38  O   UNL     1      40.510 -13.960  -2.891  1.00  0.00    -0.274 OA
HETATM   39  H   UNL     1      38.014 -15.096  -1.253  1.00  0.00     0.169 HD
ENDBRANCH  32  35
ENDBRANCH   3  29
TORSDOF 6
ENDMDL
MODEL 4
REMARK VINA RESULT:     -10.0      2.482      8.755
REMARK  6 active torsions:
REMARK  status: ('A' for Active; 'I' for Inactive)
REMARK    1  A    between atoms: C_5  and  C_6 
REMARK    2  A    between atoms: C_6  and  N_7 
REMARK       I    between atoms: N_7  and  C_8 
REMARK    3  A    between atoms: C_8  and  C_9 
REMARK    4  A    between atoms: C_10  and  N_11 
REMARK    5  A    between atoms: N_12  and  C_13 
REMARK    6  A    between atoms: C_16  and  N_17 
REMARK       I    between atoms: N_17  and  C_18 
ROOT
HETATM    1  C   UNL     1      40.714 -14.967   2.318  1.00  0.00     0.103 C 
HETATM    2  C   UNL     1      40.464 -14.261   3.493  1.00  0.00     0.105 C 
HETATM    3  N   UNL     1      41.609 -14.439   4.278  1.00  0.00    -0.284 N 
HETATM    4  C   UNL     1      42.030 -15.736   4.006  1.00  0.00     0.166 A 
HETATM    5  C   UNL     1      41.574 -16.024   2.718  1.00  0.00     0.123 A 
HETATM    6  N   UNL     1      41.980 -17.144   2.067  1.00  0.00    -0.242 NA
HETATM    7  C   UNL     1      42.755 -17.968   2.788  1.00  0.00     0.086 A 
HETATM    8  C   UNL     1      43.162 -17.675   4.116  1.00  0.00     0.088 A 
HETATM    9  N   UNL     1      42.833 -16.535   4.745  1.00  0.00    -0.226 NA
HETATM   10  C   UNL     1      43.165 -19.162   2.210  1.00  0.00     0.034 A 
HETATM   11  C   UNL     1      43.949 -20.083   2.907  1.00  0.00     0.002 A 
HETATM   12  C   UNL     1      44.333 -19.804   4.211  1.00  0.00     0.002 A 
HETATM   13  C   UNL     1      43.939 -18.602   4.800  1.00  0.00     0.034 A 
ENDROOT
BRANCH   1  14
HETATM   14  C   UNL     1      40.198 -14.646   0.993  1.00  0.00     0.257 C 
HETATM   15  N   UNL     1      40.402 -13.322   0.653  1.00  0.00    -0.352 N 
HETATM   16  H   UNL     1      40.871 -12.760   1.353  1.00  0.00     0.163 HD
HETATM   17  O   UNL     1      39.759 -15.474   0.206  1.00  0.00    -0.267 OA
BRANCH  15  18
HETATM   18  C   UNL     1      40.588 -12.914  -0.718  1.00  0.00     0.161 C 
BRANCH  18  19
HETATM   19  C   UNL     1      39.307 -12.340  -1.281  1.00  0.00    -0.041 A 
HETATM   20  C   UNL     1      38.397 -13.150  -1.981  1.00  0.00     0.009 A 
HETATM   21  C   UNL     1      37.242 -12.607  -2.548  1.00  0.00     0.007 A 
HETATM   22  C   UNL     1      36.962 -11.244  -2.410  1.00  0.00    -0.062 A 
HETATM   23  C   UNL     1      35.716 -10.667  -3.015  1.00  0.00     0.048 C 
HETATM   24  C   UNL     1      37.835 -10.445  -1.664  1.00  0.00     0.007 A 
HETATM   25  C   UNL     1      38.999 -10.985  -1.110  1.00  0.00     0.009 A 
ENDBRANCH  18  19
ENDBRANCH  15  18
ENDBRANCH   1  14
BRANCH   2  26
HETATM   26  N   UNL     1      39.439 -13.421   3.818  1.00  0.00    -0.287 NA
HETATM   27  H   UNL     1      38.631 -13.825   4.299  1.00  0.00     0.125 HD
HETATM   28  H   UNL     1      39.678 -12.528   4.255  1.00  0.00     0.125 HD
ENDBRANCH   2  26
BRANCH   3  29
HETATM   29  C   UNL     1      42.344 -13.404   4.954  1.00  0.00     0.042 A 
HETATM   30  C   UNL     1      42.991 -12.402   4.214  1.00  0.00     0.032 A 
HETATM   31  C   UNL     1      43.945 -11.566   4.802  1.00  0.00     0.032 A 
HETATM   32  C   UNL     1      44.292 -11.720   6.139  1.00  0.00     0.034 A 
HETATM   33  C   UNL     1      43.588 -12.655   6.905  1.00  0.00     0.032 A 
HETATM   34  C   UNL     1      42.623 -13.489   6.322  1.00  0.00     0.032 A 
BRANCH  32  35
HETATM   35  N   UNL     1      45.371 -11.046   6.745  1.00  0.00    -0.328 N 
HETATM   36  C   UNL     1      45.298 -10.047   7.700  1.00  0.00     0.218 C 
HETATM   37  C   UNL     1      46.628  -9.373   7.924  1.00  0.00     0.117 C 
HETATM   38  O   UNL     1      44.306  -9.696   8.332  1.00  0.00    -0.274 OA
HETATM   39  H   UNL     1      46.289 -11.256   6.373  1.00  0.00     0.169 HD
ENDBRANCH  32  35
ENDBRANCH   3  29
TORSDOF 6
ENDMDL
MODEL 5
REMARK VINA RESULT:      -9.7      3.391      7.573
REMARK  6 active torsions:
REMARK  status: ('A' for Active; 'I' for Inactive)
REMARK    1  A    between atoms: C_5  and  C_6 
REMARK    2  A    between atoms: C_6  and  N_7 
REMARK       I    between atoms: N_7  and  C_8 
REMARK    3  A    between atoms: C_8  and  C_9 
REMARK    4  A    between atoms: C_10  and  N_11 
REMARK    5  A    between atoms: N_12  and  C_13 
REMARK    6  A    between atoms: C_16  and  N_17 
REMARK       I    between atoms: N_17  and  C_18 
ROOT
HETATM    1  C   UNL     1      40.372 -10.756   6.062  1.00  0.00     0.103 C 
HETATM    2  C   UNL     1      40.318 -11.159   4.729  1.00  0.00     0.105 C 
HETATM    3  N   UNL     1      41.406 -12.023   4.564  1.00  0.00    -0.284 N 
HETATM    4  C   UNL     1      42.409 -11.493   5.369  1.00  0.00     0.166 A 
HETATM    5  C   UNL     1      41.752 -10.798   6.388  1.00  0.00     0.123 A 
HETATM    6  N   UNL     1      42.436 -10.321   7.459  1.00  0.00    -0.242 NA
HETATM    7  C   UNL     1      43.766 -10.485   7.402  1.00  0.00     0.086 A 
HETATM    8  C   UNL     1      44.413 -11.150   6.328  1.00  0.00     0.088 A 
HETATM    9  N   UNL     1      43.744 -11.698   5.300  1.00  0.00    -0.226 NA
HETATM   10  C   UNL     1      44.539  -9.973   8.436  1.00  0.00     0.034 A 
HETATM   11  C   UNL     1      45.931 -10.081   8.433  1.00  0.00     0.002 A 
HETATM   12  C   UNL     1      46.564 -10.716   7.374  1.00  0.00     0.002 A 
HETATM   13  C   UNL     1      45.799 -11.247   6.335  1.00  0.00     0.034 A 
ENDROOT
BRANCH   1  14
HETATM   14  C   UNL     1      39.235 -10.396   6.899  1.00  0.00     0.257 C 
HETATM   15  N   UNL     1      39.456 -10.664   8.237  1.00  0.00    -0.352 N 
HETATM   16  H   UNL     1      40.359 -11.068   8.456  1.00  0.00     0.163 HD
HETATM   17  O   UNL     1      38.245  -9.796   6.498  1.00  0.00    -0.267 OA
BRANCH  15  18
HETATM   18  C   UNL     1      38.845  -9.874   9.278  1.00  0.00     0.161 C 
BRANCH  18  19
HETATM   19  C   UNL     1      39.797  -9.698  10.440  1.00  0.00    -0.041 A 
HETATM   20  C   UNL     1      39.504 -10.239  11.703  1.00  0.00     0.009 A 
HETATM   21  C   UNL     1      40.357 -10.027  12.789  1.00  0.00     0.007 A 
HETATM   22  C   UNL     1      41.532  -9.287  12.630  1.00  0.00    -0.062 A 
HETATM   23  C   UNL     1      42.448  -9.069  13.798  1.00  0.00     0.048 C 
HETATM   24  C   UNL     1      41.857  -8.796  11.361  1.00  0.00     0.007 A 
HETATM   25  C   UNL     1      40.996  -8.993  10.277  1.00  0.00     0.009 A 
ENDBRANCH  18  19
ENDBRANCH  15  18
ENDBRANCH   1  14
BRANCH   2  26
HETATM   26  N   UNL     1      39.362 -10.946   3.779  1.00  0.00    -0.287 NA
HETATM   27  H   UNL     1      39.296 -10.006   3.378  1.00  0.00     0.125 HD
HETATM   28  H   UNL     1      39.274 -11.637   3.031  1.00  0.00     0.125 HD
ENDBRANCH   2  26
BRANCH   3  29
HETATM   29  C   UNL     1      41.373 -13.324   3.952  1.00  0.00     0.042 A 
HETATM   30  C   UNL     1      40.772 -14.401   4.623  1.00  0.00     0.032 A 
HETATM   31  C   UNL     1      40.975 -15.721   4.207  1.00  0.00     0.032 A 
HETATM   32  C   UNL     1      41.798 -16.001   3.123  1.00  0.00     0.034 A 
HETATM   33  C   UNL     1      42.329 -14.930   2.395  1.00  0.00     0.032 A 
HETATM   34  C   UNL     1      42.119 -13.604   2.802  1.00  0.00     0.032 A 
BRANCH  32  35
HETATM   35  N   UNL     1      42.199 -17.305   2.767  1.00  0.00    -0.328 N 
HETATM   36  C   UNL     1      43.301 -17.996   3.242  1.00  0.00     0.218 C 
HETATM   37  C   UNL     1      43.573 -19.249   2.450  1.00  0.00     0.117 C 
HETATM   38  O   UNL     1      44.016 -17.689   4.190  1.00  0.00    -0.274 OA
HETATM   39  H   UNL     1      41.675 -17.740   2.018  1.00  0.00     0.169 HD
ENDBRANCH  32  35
ENDBRANCH   3  29
TORSDOF 6
ENDMDL
MODEL 6
REMARK VINA RESULT:      -9.7      3.067      7.399
REMARK  6 active torsions:
REMARK  status: ('A' for Active; 'I' for Inactive)
REMARK    1  A    between atoms: C_5  and  C_6 
REMARK    2  A    between atoms: C_6  and  N_7 
REMARK       I    between atoms: N_7  and  C_8 
REMARK    3  A    between atoms: C_8  and  C_9 
REMARK    4  A    between atoms: C_10  and  N_11 
REMARK    5  A    between atoms: N_12  and  C_13 
REMARK    6  A    between atoms: C_16  and  N_17 
REMARK       I    between atoms: N_17  and  C_18 
ROOT
HETATM    1  C   UNL     1      43.075 -11.783   6.376  1.00  0.00     0.103 C 
HETATM    2  C   UNL     1      42.599 -13.092   6.410  1.00  0.00     0.105 C 
HETATM    3  N   UNL     1      41.817 -13.227   5.258  1.00  0.00    -0.284 N 
HETATM    4  C   UNL     1      41.210 -11.987   5.091  1.00  0.00     0.166 A 
HETATM    5  C   UNL     1      42.068 -11.059   5.687  1.00  0.00     0.123 A 
HETATM    6  N   UNL     1      41.870  -9.725   5.531  1.00  0.00    -0.242 NA
HETATM    7  C   UNL     1      40.758  -9.392   4.860  1.00  0.00     0.086 A 
HETATM    8  C   UNL     1      39.874 -10.357   4.309  1.00  0.00     0.088 A 
HETATM    9  N   UNL     1      40.098 -11.679   4.385  1.00  0.00    -0.226 NA
HETATM   10  C   UNL     1      40.457  -8.045   4.709  1.00  0.00     0.034 A 
HETATM   11  C   UNL     1      39.303  -7.621   4.047  1.00  0.00     0.002 A 
HETATM   12  C   UNL     1      38.431  -8.565   3.523  1.00  0.00     0.002 A 
HETATM   13  C   UNL     1      38.727  -9.922   3.656  1.00  0.00     0.034 A 
ENDROOT
BRANCH   1  14
HETATM   14  C   UNL     1      44.340 -11.312   6.927  1.00  0.00     0.257 C 
HETATM   15  N   UNL     1      44.183 -10.209   7.745  1.00  0.00    -0.352 N 
HETATM   16  H   UNL     1      43.231  -9.879   7.852  1.00  0.00     0.163 HD
HETATM   17  O   UNL     1      45.408 -11.898   6.801  1.00  0.00    -0.267 OA
BRANCH  15  18
HETATM   18  C   UNL     1      45.070  -9.958   8.855  1.00  0.00     0.161 C 
BRANCH  18  19
HETATM   19  C   UNL     1      44.281  -9.722  10.123  1.00  0.00    -0.041 A 
HETATM   20  C   UNL     1      43.882  -8.428  10.496  1.00  0.00     0.009 A 
HETATM   21  C   UNL     1      43.203  -8.204  11.696  1.00  0.00     0.007 A 
HETATM   22  C   UNL     1      42.890  -9.274  12.540  1.00  0.00    -0.062 A 
HETATM   23  C   UNL     1      42.153  -9.030  13.824  1.00  0.00     0.048 C 
HETATM   24  C   UNL     1      43.234 -10.572  12.145  1.00  0.00     0.007 A 
HETATM   25  C   UNL     1      43.928 -10.794  10.952  1.00  0.00     0.009 A 
ENDBRANCH  18  19
ENDBRANCH  15  18
ENDBRANCH   1  14
BRANCH   2  26
HETATM   26  N   UNL     1      42.911 -14.125   7.245  1.00  0.00    -0.287 NA
HETATM   27  H   UNL     1      42.692 -14.012   8.239  1.00  0.00     0.125 HD
HETATM   28  H   UNL     1      42.653 -15.069   6.950  1.00  0.00     0.125 HD
ENDBRANCH   2  26
BRANCH   3  29
HETATM   29  C   UNL     1      41.887 -14.301   4.305  1.00  0.00     0.042 A 
HETATM   30  C   UNL     1      40.887 -15.286   4.279  1.00  0.00     0.032 A 
HETATM   31  C   UNL     1      41.066 -16.487   3.586  1.00  0.00     0.032 A 
HETATM   32  C   UNL     1      42.256 -16.744   2.915  1.00  0.00     0.034 A 
HETATM   33  C   UNL     1      43.221 -15.733   2.860  1.00  0.00     0.032 A 
HETATM   34  C   UNL     1      43.042 -14.522   3.546  1.00  0.00     0.032 A 
BRANCH  32  35
HETATM   35  N   UNL     1      42.580 -17.998   2.359  1.00  0.00    -0.328 N 
HETATM   36  C   UNL     1      43.483 -18.921   2.857  1.00  0.00     0.218 C 
HETATM   37  C   UNL     1      43.776 -20.023   1.871  1.00  0.00     0.117 C 
HETATM   38  O   UNL     1      44.022 -18.911   3.960  1.00  0.00    -0.274 OA
HETATM   39  H   UNL     1      42.175 -18.199   1.453  1.00  0.00     0.169 HD
ENDBRANCH  32  35
ENDBRANCH   3  29
TORSDOF 6
ENDMDL
MODEL 7
REMARK VINA RESULT:      -9.6      3.022      6.861
REMARK  6 active torsions:
REMARK  status: ('A' for Active; 'I' for Inactive)
REMARK    1  A    between atoms: C_5  and  C_6 
REMARK    2  A    between atoms: C_6  and  N_7 
REMARK       I    between atoms: N_7  and  C_8 
REMARK    3  A    between atoms: C_8  and  C_9 
REMARK    4  A    between atoms: C_10  and  N_11 
REMARK    5  A    between atoms: N_12  and  C_13 
REMARK    6  A    between atoms: C_16  and  N_17 
REMARK       I    between atoms: N_17  and  C_18 
ROOT
HETATM    1  C   UNL     1      43.232 -13.052   6.175  1.00  0.00     0.103 C 
HETATM    2  C   UNL     1      43.681 -11.891   6.802  1.00  0.00     0.105 C 
HETATM    3  N   UNL     1      42.859 -10.870   6.312  1.00  0.00    -0.284 N 
HETATM    4  C   UNL     1      42.612 -11.214   4.988  1.00  0.00     0.166 A 
HETATM    5  C   UNL     1      42.722 -12.605   4.928  1.00  0.00     0.123 A 
HETATM    6  N   UNL     1      42.349 -13.287   3.815  1.00  0.00    -0.242 NA
HETATM    7  C   UNL     1      41.971 -12.522   2.781  1.00  0.00     0.086 A 
HETATM    8  C   UNL     1      41.918 -11.105   2.852  1.00  0.00     0.088 A 
HETATM    9  N   UNL     1      42.208 -10.420   3.971  1.00  0.00    -0.226 NA
HETATM   10  C   UNL     1      41.628 -13.146   1.589  1.00  0.00     0.034 A 
HETATM   11  C   UNL     1      41.251 -12.415   0.461  1.00  0.00     0.002 A 
HETATM   12  C   UNL     1      41.215 -11.029   0.526  1.00  0.00     0.002 A 
HETATM   13  C   UNL     1      41.545 -10.389   1.721  1.00  0.00     0.034 A 
ENDROOT
BRANCH   1  14
HETATM   14  C   UNL     1      43.281 -14.401   6.724  1.00  0.00     0.257 C 
HETATM   15  N   UNL     1      43.442 -15.365   5.746  1.00  0.00    -0.352 N 
HETATM   16  H   UNL     1      43.502 -15.015   4.797  1.00  0.00     0.163 HD
HETATM   17  O   UNL     1      43.317 -14.658   7.921  1.00  0.00    -0.267 OA
BRANCH  15  18
HETATM   18  C   UNL     1      44.132 -16.603   6.012  1.00  0.00     0.161 C 
BRANCH  18  19
HETATM   19  C   UNL     1      43.917 -17.585   4.881  1.00  0.00    -0.041 A 
HETATM   20  C   UNL     1      44.185 -18.953   5.050  1.00  0.00     0.009 A 
HETATM   21  C   UNL     1      44.041 -19.849   3.988  1.00  0.00     0.007 A 
HETATM   22  C   UNL     1      43.605 -19.399   2.739  1.00  0.00    -0.062 A 
HETATM   23  C   UNL     1      43.443 -20.367   1.604  1.00  0.00     0.048 C 
HETATM   24  C   UNL     1      43.281 -18.047   2.581  1.00  0.00     0.007 A 
HETATM   25  C   UNL     1      43.441 -17.147   3.640  1.00  0.00     0.009 A 
ENDBRANCH  18  19
ENDBRANCH  15  18
ENDBRANCH   1  14
BRANCH   2  26
HETATM   26  N   UNL     1      44.592 -11.723   7.803  1.00  0.00    -0.287 NA
HETATM   27  H   UNL     1      45.555 -12.019   7.621  1.00  0.00     0.125 HD
HETATM   28  H   UNL     1      44.604 -10.823   8.289  1.00  0.00     0.125 HD
ENDBRANCH   2  26
BRANCH   3  29
HETATM   29  C   UNL     1      42.180  -9.876   7.099  1.00  0.00     0.042 A 
HETATM   30  C   UNL     1      42.916  -8.988   7.900  1.00  0.00     0.032 A 
HETATM   31  C   UNL     1      42.297  -8.219   8.890  1.00  0.00     0.032 A 
HETATM   32  C   UNL     1      40.931  -8.329   9.119  1.00  0.00     0.034 A 
HETATM   33  C   UNL     1      40.176  -9.143   8.267  1.00  0.00     0.032 A 
HETATM   34  C   UNL     1      40.791  -9.909   7.266  1.00  0.00     0.032 A 
BRANCH  32  35
HETATM   35  N   UNL     1      40.275  -7.732  10.215  1.00  0.00    -0.328 N 
HETATM   36  C   UNL     1      39.881  -8.354  11.388  1.00  0.00     0.218 C 
HETATM   37  C   UNL     1      38.975  -7.482  12.219  1.00  0.00     0.117 C 
HETATM   38  O   UNL     1      40.193  -9.477  11.773  1.00  0.00    -0.274 OA
HETATM   39  H   UNL     1      39.984  -6.771  10.088  1.00  0.00     0.169 HD
ENDBRANCH  32  35
ENDBRANCH   3  29
TORSDOF 6
ENDMDL
MODEL 8
REMARK VINA RESULT:      -9.5      2.925      6.352
REMARK  6 active torsions:
REMARK  status: ('A' for Active; 'I' for Inactive)
REMARK    1  A    between atoms: C_5  and  C_6 
REMARK    2  A    between atoms: C_6  and  N_7 
REMARK       I    between atoms: N_7  and  C_8 
REMARK    3  A    between atoms: C_8  and  C_9 
REMARK    4  A    between atoms: C_10  and  N_11 
REMARK    5  A    between atoms: N_12  and  C_13 
REMARK    6  A    between atoms: C_16  and  N_17 
REMARK       I    between atoms: N_17  and  C_18 
ROOT
HETATM    1  C   UNL     1      42.552 -13.952   6.134  1.00  0.00     0.103 C 
HETATM    2  C   UNL     1      42.927 -12.627   6.349  1.00  0.00     0.105 C 
HETATM    3  N   UNL     1      41.969 -11.861   5.678  1.00  0.00    -0.284 N 
HETATM    4  C   UNL     1      41.653 -12.599   4.542  1.00  0.00     0.166 A 
HETATM    5  C   UNL     1      41.901 -13.933   4.873  1.00  0.00     0.123 A 
HETATM    6  N   UNL     1      41.512 -14.940   4.049  1.00  0.00    -0.242 NA
HETATM    7  C   UNL     1      40.976 -14.545   2.885  1.00  0.00     0.086 A 
HETATM    8  C   UNL     1      40.782 -13.178   2.552  1.00  0.00     0.088 A 
HETATM    9  N   UNL     1      41.089 -12.174   3.389  1.00  0.00    -0.226 NA
HETATM   10  C   UNL     1      40.604 -15.517   1.966  1.00  0.00     0.034 A 
HETATM   11  C   UNL     1      40.065 -15.183   0.723  1.00  0.00     0.002 A 
HETATM   12  C   UNL     1      39.892 -13.846   0.391  1.00  0.00     0.002 A 
HETATM   13  C   UNL     1      40.248 -12.859   1.310  1.00  0.00     0.034 A 
ENDROOT
BRANCH   1  14
HETATM   14  C   UNL     1      42.784 -15.071   7.038  1.00  0.00     0.257 C 
HETATM   15  N   UNL     1      42.525 -16.293   6.446  1.00  0.00    -0.352 N 
HETATM   16  H   UNL     1      42.215 -16.251   5.482  1.00  0.00     0.163 HD
HETATM   17  O   UNL     1      43.282 -14.966   8.152  1.00  0.00    -0.267 OA
BRANCH  15  18
HETATM   18  C   UNL     1      43.237 -17.486   6.833  1.00  0.00     0.161 C 
BRANCH  18  19
HETATM   19  C   UNL     1      43.506 -18.360   5.628  1.00  0.00    -0.041 A 
HETATM   20  C   UNL     1      43.572 -17.810   4.337  1.00  0.00     0.009 A 
HETATM   21  C   UNL     1      43.763 -18.626   3.219  1.00  0.00     0.007 A 
HETATM   22  C   UNL     1      43.914 -20.008   3.371  1.00  0.00    -0.062 A 
HETATM   23  C   UNL     1      44.127 -20.878   2.168  1.00  0.00     0.048 C 
HETATM   24  C   UNL     1      43.906 -20.553   4.660  1.00  0.00     0.007 A 
HETATM   25  C   UNL     1      43.698 -19.738   5.778  1.00  0.00     0.009 A 
ENDBRANCH  18  19
ENDBRANCH  15  18
ENDBRANCH   1  14
BRANCH   2  26
HETATM   26  N   UNL     1      43.894 -12.103   7.157  1.00  0.00    -0.287 NA
HETATM   27  H   UNL     1      44.135 -12.623   8.006  1.00  0.00     0.125 HD
HETATM   28  H   UNL     1      44.752 -11.767   6.715  1.00  0.00     0.125 HD
ENDBRANCH   2  26
BRANCH   3  29
HETATM   29  C   UNL     1      41.255 -10.733   6.214  1.00  0.00     0.042 A 
HETATM   30  C   UNL     1      41.887  -9.484   6.314  1.00  0.00     0.032 A 
HETATM   31  C   UNL     1      41.344  -8.454   7.089  1.00  0.00     0.032 A 
HETATM   32  C   UNL     1      40.165  -8.651   7.798  1.00  0.00     0.034 A 
HETATM   33  C   UNL     1      39.483  -9.861   7.634  1.00  0.00     0.032 A 
HETATM   34  C   UNL     1      40.019 -10.893   6.849  1.00  0.00     0.032 A 
BRANCH  32  35
HETATM   35  N   UNL     1      39.663  -7.732   8.742  1.00  0.00    -0.328 N 
HETATM   36  C   UNL     1      38.652  -6.807   8.547  1.00  0.00     0.218 C 
HETATM   37  C   UNL     1      38.560  -5.814   9.677  1.00  0.00     0.117 C 
HETATM   38  O   UNL     1      37.881  -6.740   7.594  1.00  0.00    -0.274 OA
HETATM   39  H   UNL     1      40.159  -7.687   9.624  1.00  0.00     0.169 HD
ENDBRANCH  32  35
ENDBRANCH   3  29
TORSDOF 6
ENDMDL
MODEL 9
REMARK VINA RESULT:      -9.4     15.079     19.380
REMARK  6 active torsions:
REMARK  status: ('A' for Active; 'I' for Inactive)
REMARK    1  A    between atoms: C_5  and  C_6 
REMARK    2  A    between atoms: C_6  and  N_7 
REMARK       I    between atoms: N_7  and  C_8 
REMARK    3  A    between atoms: C_8  and  C_9 
REMARK    4  A    between atoms: C_10  and  N_11 
REMARK    5  A    between atoms: N_12  and  C_13 
REMARK    6  A    between atoms: C_16  and  N_17 
REMARK       I    between atoms: N_17  and  C_18 
ROOT
HETATM    1  C   UNL     1      48.165 -29.976   1.481  1.00  0.00     0.103 C 
HETATM    2  C   UNL     1      47.990 -30.909   2.501  1.00  0.00     0.105 C 
HETATM    3  N   UNL     1      49.271 -31.407   2.764  1.00  0.00    -0.284 N 
HETATM    4  C   UNL     1      49.902 -31.443   1.526  1.00  0.00     0.166 A 
HETATM    5  C   UNL     1      49.289 -30.452   0.756  1.00  0.00     0.123 A 
HETATM    6  N   UNL     1      49.799 -30.089  -0.449  1.00  0.00    -0.242 NA
HETATM    7  C   UNL     1      50.850 -30.813  -0.860  1.00  0.00     0.086 A 
HETATM    8  C   UNL     1      51.423 -31.851  -0.079  1.00  0.00     0.088 A 
HETATM    9  N   UNL     1      50.979 -32.169   1.148  1.00  0.00    -0.226 NA
HETATM   10  C   UNL     1      51.393 -30.537  -2.109  1.00  0.00     0.034 A 
HETATM   11  C   UNL     1      52.469 -31.266  -2.617  1.00  0.00     0.002 A 
HETATM   12  C   UNL     1      53.018 -32.292  -1.860  1.00  0.00     0.002 A 
HETATM   13  C   UNL     1      52.492 -32.571  -0.598  1.00  0.00     0.034 A 
ENDROOT
BRANCH   1  14
HETATM   14  C   UNL     1      47.358 -28.783   1.256  1.00  0.00     0.257 C 
HETATM   15  N   UNL     1      47.021 -28.615  -0.074  1.00  0.00    -0.352 N 
HETATM   16  H   UNL     1      47.372 -29.326  -0.704  1.00  0.00     0.163 HD
HETATM   17  O   UNL     1      46.906 -28.078   2.150  1.00  0.00    -0.267 OA
BRANCH  15  18
HETATM   18  C   UNL     1      45.793 -27.968  -0.466  1.00  0.00     0.161 C 
BRANCH  18  19
HETATM   19  C   UNL     1      45.270 -28.558  -1.757  1.00  0.00    -0.041 A 
HETATM   20  C   UNL     1      44.522 -29.748  -1.757  1.00  0.00     0.009 A 
HETATM   21  C   UNL     1      44.089 -30.322  -2.955  1.00  0.00     0.007 A 
HETATM   22  C   UNL     1      44.375 -29.706  -4.177  1.00  0.00    -0.062 A 
HETATM   23  C   UNL     1      43.900 -30.323  -5.460  1.00  0.00     0.048 C 
HETATM   24  C   UNL     1      45.068 -28.491  -4.178  1.00  0.00     0.007 A 
HETATM   25  C   UNL     1      45.517 -27.925  -2.980  1.00  0.00     0.009 A 
ENDBRANCH  18  19
ENDBRANCH  15  18
ENDBRANCH   1  14
BRANCH   2  26
HETATM   26  N   UNL     1      46.887 -31.206   3.247  1.00  0.00    -0.287 NA
HETATM   27  H   UNL     1      46.881 -32.100   3.746  1.00  0.00     0.125 HD
HETATM   28  H   UNL     1      46.518 -30.476   3.861  1.00  0.00     0.125 HD
ENDBRANCH   2  26
BRANCH   3  29
HETATM   29  C   UNL     1      49.879 -31.541   4.061  1.00  0.00     0.042 A 
HETATM   30  C   UNL     1      50.847 -30.616   4.483  1.00  0.00     0.032 A 
HETATM   31  C   UNL     1      51.665 -30.872   5.588  1.00  0.00     0.032 A 
HETATM   32  C   UNL     1      51.550 -32.067   6.289  1.00  0.00     0.034 A 
HETATM   33  C   UNL     1      50.530 -32.955   5.930  1.00  0.00     0.032 A 
HETATM   34  C   UNL     1      49.701 -32.697   4.829  1.00  0.00     0.032 A 
BRANCH  32  35
HETATM   35  N   UNL     1      52.460 -32.474   7.286  1.00  0.00    -0.328 N 
HETATM   36  C   UNL     1      53.674 -33.111   7.095  1.00  0.00     0.218 C 
HETATM   37  C   UNL     1      54.253 -33.635   8.385  1.00  0.00     0.117 C 
HETATM   38  O   UNL     1      54.271 -33.267   6.034  1.00  0.00    -0.274 OA
HETATM   39  H   UNL     1      52.145 -32.369   8.243  1.00  0.00     0.169 HD
ENDBRANCH  32  35
ENDBRANCH   3  29
TORSDOF 6
ENDMDL
MODEL 10
REMARK VINA RESULT:      -9.3      2.136      7.200
REMARK  6 active torsions:
REMARK  status: ('A' for Active; 'I' for Inactive)
REMARK    1  A    between atoms: C_5  and  C_6 
REMARK    2  A    between atoms: C_6  and  N_7 
REMARK       I    between atoms: N_7  and  C_8 
REMARK    3  A    between atoms: C_8  and  C_9 
REMARK    4  A    between atoms: C_10  and  N_11 
REMARK    5  A    between atoms: N_12  and  C_13 
REMARK    6  A    between atoms: C_16  and  N_17 
REMARK       I    between atoms: N_17  and  C_18 
ROOT
HETATM    1  C   UNL     1      42.482 -13.035   4.431  1.00  0.00     0.103 C 
HETATM    2  C   UNL     1      42.675 -12.598   3.122  1.00  0.00     0.105 C 
HETATM    3  N   UNL     1      42.380 -13.705   2.319  1.00  0.00    -0.284 N 
HETATM    4  C   UNL     1      42.834 -14.802   3.043  1.00  0.00     0.166 A 
HETATM    5  C   UNL     1      42.778 -14.423   4.387  1.00  0.00     0.123 A 
HETATM    6  N   UNL     1      42.969 -15.331   5.377  1.00  0.00    -0.242 NA
HETATM    7  C   UNL     1      43.303 -16.562   4.960  1.00  0.00     0.086 A 
HETATM    8  C   UNL     1      43.403 -16.908   3.587  1.00  0.00     0.088 A 
HETATM    9  N   UNL     1      43.139 -16.042   2.596  1.00  0.00    -0.226 NA
HETATM   10  C   UNL     1      43.569 -17.533   5.917  1.00  0.00     0.034 A 
HETATM   11  C   UNL     1      43.949 -18.828   5.561  1.00  0.00     0.002 A 
HETATM   12  C   UNL     1      44.063 -19.161   4.218  1.00  0.00     0.002 A 
HETATM   13  C   UNL     1      43.786 -18.200   3.246  1.00  0.00     0.034 A 
ENDROOT
BRANCH   1  14
HETATM   14  C   UNL     1      42.057 -12.217   5.559  1.00  0.00     0.257 C 
HETATM   15  N   UNL     1      42.737 -11.015   5.627  1.00  0.00    -0.352 N 
HETATM   16  H   UNL     1      43.427 -10.864   4.901  1.00  0.00     0.163 HD
HETATM   17  O   UNL     1      41.112 -12.487   6.289  1.00  0.00    -0.267 OA
BRANCH  15  18
HETATM   18  C   UNL     1      42.124  -9.830   6.177  1.00  0.00     0.161 C 
BRANCH  18  19
HETATM   19  C   UNL     1      42.558  -9.625   7.611  1.00  0.00    -0.041 A 
HETATM   20  C   UNL     1      41.619  -9.344   8.618  1.00  0.00     0.009 A 
HETATM   21  C   UNL     1      42.027  -9.098   9.931  1.00  0.00     0.007 A 
HETATM   22  C   UNL     1      43.383  -9.149  10.270  1.00  0.00    -0.062 A 
HETATM   23  C   UNL     1      43.815  -8.892  11.684  1.00  0.00     0.048 C 
HETATM   24  C   UNL     1      44.316  -9.485   9.284  1.00  0.00     0.007 A 
HETATM   25  C   UNL     1      43.909  -9.715   7.966  1.00  0.00     0.009 A 
ENDBRANCH  18  19
ENDBRANCH  15  18
ENDBRANCH   1  14
BRANCH   2  26
HETATM   26  N   UNL     1      42.926 -11.348   2.636  1.00  0.00    -0.287 NA
HETATM   27  H   UNL     1      42.959 -10.577   3.308  1.00  0.00     0.125 HD
HETATM   28  H   UNL     1      43.693 -11.244   1.967  1.00  0.00     0.125 HD
ENDBRANCH   2  26
BRANCH   3  29
HETATM   29  C   UNL     1      41.521 -13.713   1.166  1.00  0.00     0.042 A 
HETATM   30  C   UNL     1      41.150 -12.504   0.557  1.00  0.00     0.032 A 
HETATM   31  C   UNL     1      40.099 -12.447  -0.364  1.00  0.00     0.032 A 
HETATM   32  C   UNL     1      39.380 -13.591  -0.688  1.00  0.00     0.034 A 
HETATM   33  C   UNL     1      39.801 -14.815  -0.155  1.00  0.00     0.032 A 
HETATM   34  C   UNL     1      40.861 -14.879   0.762  1.00  0.00     0.032 A 
BRANCH  32  35
HETATM   35  N   UNL     1      38.198 -13.577  -1.455  1.00  0.00    -0.328 N 
HETATM   36  C   UNL     1      38.101 -13.620  -2.835  1.00  0.00     0.218 C 
HETATM   37  C   UNL     1      36.706 -13.317  -3.319  1.00  0.00     0.117 C 
HETATM   38  O   UNL     1      38.998 -13.870  -3.634  1.00  0.00    -0.274 OA
HETATM   39  H   UNL     1      37.338 -13.427  -0.941  1.00  0.00     0.169 HD
ENDBRANCH  32  35
ENDBRANCH   3  29
TORSDOF 6
ENDMDL
