MODEL 1
REMARK VINA RESULT:     -10.0      0.000      0.000
REMARK  7 active torsions:
REMARK  status: ('A' for Active; 'I' for Inactive)
REMARK    1  A    between atoms: C_3  and  C_4 
REMARK    2  A    between atoms: C_4  and  C_5 
REMARK    3  A    between atoms: C_5  and  C_6 
REMARK       I    between atoms: C_6  and  N_7 
REMARK    4  A    between atoms: N_7  and  C_8 
REMARK    5  A    between atoms: C_8  and  C_9 
REMARK    6  A    between atoms: C_9  and  C_10 
REMARK    7  A    between atoms: C_29  and  O_30 
ROOT
HETATM    1  C   UNL     1      44.294 -13.262   6.728  1.00  0.00     0.107 C 
ENDROOT
BRANCH   1   2
HETATM    2  C   UNL     1      43.129 -14.255   6.633  1.00  0.00     0.055 C 
BRANCH   2   3
HETATM    3  C   UNL     1      43.326 -15.614   5.968  1.00  0.00     0.025 A 
HETATM    4  C   UNL     1      43.081 -15.799   4.648  1.00  0.00    -0.037 A 
HETATM    5  C   UNL     1      42.533 -14.718   3.742  1.00  0.00     0.050 C 
HETATM    6  C   UNL     1      43.315 -17.121   4.028  1.00  0.00     0.005 A 
HETATM    7  C   UNL     1      43.726 -18.189   4.827  1.00  0.00     0.099 A 
HETATM    8  C   UNL     1      43.145 -17.372   2.659  1.00  0.00     0.017 A 
HETATM    9  O   UNL     1      43.934 -17.983   6.203  1.00  0.00    -0.274 OA
HETATM   10  C   UNL     1      43.952 -19.488   4.328  1.00  0.00     0.006 A 
HETATM   11  C   UNL     1      43.766 -16.754   6.820  1.00  0.00     0.295 A 
HETATM   12  O   UNL     1      43.965 -16.647   8.024  1.00  0.00    -0.259 OA
HETATM   13  C   UNL     1      44.383 -20.609   5.229  1.00  0.00     0.054 C 
HETATM   14  C   UNL     1      43.759 -19.691   2.958  1.00  0.00     0.074 A 
HETATM   15  C   UNL     1      43.363 -18.646   2.130  1.00  0.00     0.038 A 
BRANCH  14  16
HETATM   16  O   UNL     1      43.945 -20.897   2.345  1.00  0.00    -0.360 OA
HETATM   17  H   UNL     1      44.720 -20.856   1.766  1.00  0.00     0.217 HD
ENDBRANCH  14  16
ENDBRANCH   2   3
ENDBRANCH   1   2
BRANCH   1  18
HETATM   18  C   UNL     1      43.786 -11.863   7.026  1.00  0.00     0.217 C 
HETATM   19  N   UNL     1      44.606 -11.154   7.881  1.00  0.00    -0.361 N 
HETATM   20  H   UNL     1      45.283 -11.680   8.422  1.00  0.00     0.162 HD
HETATM   21  O   UNL     1      42.750 -11.406   6.556  1.00  0.00    -0.274 OA
BRANCH  19  22
HETATM   22  C   UNL     1      44.187  -9.852   8.371  1.00  0.00     0.127 C 
BRANCH  22  23
HETATM   23  C   UNL     1      44.883  -9.460   9.674  1.00  0.00     0.060 C 
BRANCH  23  24
HETATM   24  C   UNL     1      44.079  -9.847  10.874  1.00  0.00    -0.029 A 
HETATM   25  C   UNL     1      43.375  -8.963  11.753  1.00  0.00    -0.000 A 
HETATM   26  C   UNL     1      42.739  -9.747  12.716  1.00  0.00     0.043 A 
HETATM   27  C   UNL     1      43.214  -7.562  11.811  1.00  0.00     0.038 A 
HETATM   28  C   UNL     1      41.947  -9.206  13.736  1.00  0.00     0.032 A 
HETATM   29  N   UNL     1      43.050 -11.057  12.438  1.00  0.00    -0.365 N 
HETATM   30  C   UNL     1      41.802  -7.816  13.774  1.00  0.00     0.026 A 
HETATM   31  C   UNL     1      42.428  -7.010  12.827  1.00  0.00     0.035 A 
HETATM   32 CL   UNL     1      42.231  -5.300  12.905  1.00  0.00    -0.084 Cl
HETATM   33  H   UNL     1      42.721 -11.850  12.973  1.00  0.00     0.165 HD
HETATM   34  C   UNL     1      43.856 -11.130  11.335  1.00  0.00     0.096 A 
ENDBRANCH  23  24
ENDBRANCH  22  23
ENDBRANCH  19  22
ENDBRANCH   1  18
TORSDOF 7
ENDMDL
MODEL 2
REMARK VINA RESULT:     -10.0      5.777      8.644
REMARK  7 active torsions:
REMARK  status: ('A' for Active; 'I' for Inactive)
REMARK    1  A    between atoms: C_3  and  C_4 
REMARK    2  A    between atoms: C_4  and  C_5 
REMARK    3  A    between atoms: C_5  and  C_6 
REMARK       I    between atoms: C_6  and  N_7 
REMARK    4  A    between atoms: N_7  and  C_8 
REMARK    5  A    between atoms: C_8  and  C_9 
REMARK    6  A    between atoms: C_9  and  C_10 
REMARK    7  A    between atoms: C_29  and  O_30 
ROOT
HETATM    1  C   UNL     1      41.946 -13.782   6.563  1.00  0.00     0.107 C 
ENDROOT
BRANCH   1   2
HETATM    2  C   UNL     1      43.299 -14.268   6.028  1.00  0.00     0.055 C 
BRANCH   2   3
HETATM    3  C   UNL     1      43.462 -15.699   5.526  1.00  0.00     0.025 A 
HETATM    4  C   UNL     1      43.273 -16.019   4.222  1.00  0.00    -0.037 A 
HETATM    5  C   UNL     1      42.824 -15.022   3.176  1.00  0.00     0.050 C 
HETATM    6  C   UNL     1      43.472 -17.410   3.763  1.00  0.00     0.005 A 
HETATM    7  C   UNL     1      43.790 -18.399   4.695  1.00  0.00     0.099 A 
HETATM    8  C   UNL     1      43.357 -17.804   2.423  1.00  0.00     0.017 A 
HETATM    9  O   UNL     1      43.941 -18.051   6.049  1.00  0.00    -0.274 OA
HETATM   10  C   UNL     1      43.976 -19.755   4.352  1.00  0.00     0.006 A 
HETATM   11  C   UNL     1      43.803 -16.756   6.519  1.00  0.00     0.295 A 
HETATM   12  O   UNL     1      43.948 -16.525   7.714  1.00  0.00    -0.259 OA
HETATM   13  C   UNL     1      44.307 -20.786   5.392  1.00  0.00     0.054 C 
HETATM   14  C   UNL     1      43.842 -20.099   3.004  1.00  0.00     0.074 A 
HETATM   15  C   UNL     1      43.538 -19.137   2.048  1.00  0.00     0.038 A 
BRANCH  14  16
HETATM   16  O   UNL     1      43.997 -21.374   2.537  1.00  0.00    -0.360 OA
HETATM   17  H   UNL     1      43.274 -21.592   1.930  1.00  0.00     0.217 HD
ENDBRANCH  14  16
ENDBRANCH   2   3
ENDBRANCH   1   2
BRANCH   1  18
HETATM   18  C   UNL     1      41.264 -12.873   5.558  1.00  0.00     0.217 C 
HETATM   19  N   UNL     1      40.139 -13.435   4.988  1.00  0.00    -0.361 N 
HETATM   20  H   UNL     1      40.025 -14.438   5.070  1.00  0.00     0.162 HD
HETATM   21  O   UNL     1      41.670 -11.750   5.278  1.00  0.00    -0.274 OA
BRANCH  19  22
HETATM   22  C   UNL     1      39.455 -12.745   3.907  1.00  0.00     0.127 C 
BRANCH  22  23
HETATM   23  C   UNL     1      39.489 -13.526   2.594  1.00  0.00     0.060 C 
BRANCH  23  24
HETATM   24  C   UNL     1      40.176 -12.762   1.508  1.00  0.00    -0.029 A 
HETATM   25  C   UNL     1      40.111 -13.028   0.102  1.00  0.00    -0.000 A 
HETATM   26  C   UNL     1      40.874 -12.055  -0.545  1.00  0.00     0.043 A 
HETATM   27  C   UNL     1      39.462 -14.006  -0.680  1.00  0.00     0.038 A 
HETATM   28  C   UNL     1      41.024 -12.005  -1.936  1.00  0.00     0.032 A 
HETATM   29  N   UNL     1      41.390 -11.233   0.430  1.00  0.00    -0.365 N 
HETATM   30  C   UNL     1      40.372 -12.986  -2.692  1.00  0.00     0.026 A 
HETATM   31  C   UNL     1      39.606 -13.969  -2.071  1.00  0.00     0.035 A 
HETATM   32 CL   UNL     1      38.819 -15.163  -3.032  1.00  0.00    -0.084 Cl
HETATM   33  H   UNL     1      41.982 -10.434   0.250  1.00  0.00     0.165 HD
HETATM   34  C   UNL     1      40.980 -11.649   1.667  1.00  0.00     0.096 A 
ENDBRANCH  23  24
ENDBRANCH  22  23
ENDBRANCH  19  22
ENDBRANCH   1  18
TORSDOF 7
ENDMDL
MODEL 3
REMARK VINA RESULT:      -9.9      5.264      7.409
REMARK  7 active torsions:
REMARK  status: ('A' for Active; 'I' for Inactive)
REMARK    1  A    between atoms: C_3  and  C_4 
REMARK    2  A    between atoms: C_4  and  C_5 
REMARK    3  A    between atoms: C_5  and  C_6 
REMARK       I    between atoms: C_6  and  N_7 
REMARK    4  A    between atoms: N_7  and  C_8 
REMARK    5  A    between atoms: C_8  and  C_9 
REMARK    6  A    between atoms: C_9  and  C_10 
REMARK    7  A    between atoms: C_29  and  O_30 
ROOT
HETATM    1  C   UNL     1      44.220 -13.177   6.205  1.00  0.00     0.107 C 
ENDROOT
BRANCH   1   2
HETATM    2  C   UNL     1      43.043 -14.160   6.154  1.00  0.00     0.055 C 
BRANCH   2   3
HETATM    3  C   UNL     1      43.250 -15.584   5.648  1.00  0.00     0.025 A 
HETATM    4  C   UNL     1      43.147 -15.891   4.331  1.00  0.00    -0.037 A 
HETATM    5  C   UNL     1      42.757 -14.885   3.269  1.00  0.00     0.050 C 
HETATM    6  C   UNL     1      43.387 -17.275   3.870  1.00  0.00     0.005 A 
HETATM    7  C   UNL     1      43.654 -18.272   4.810  1.00  0.00     0.099 A 
HETATM    8  C   UNL     1      43.361 -17.654   2.521  1.00  0.00     0.017 A 
HETATM    9  O   UNL     1      43.715 -17.938   6.175  1.00  0.00    -0.274 OA
HETATM   10  C   UNL     1      43.873 -19.622   4.465  1.00  0.00     0.006 A 
HETATM   11  C   UNL     1      43.536 -16.650   6.649  1.00  0.00     0.295 A 
HETATM   12  O   UNL     1      43.603 -16.431   7.853  1.00  0.00    -0.259 OA
HETATM   13  C   UNL     1      44.146 -20.663   5.513  1.00  0.00     0.054 C 
HETATM   14  C   UNL     1      43.827 -19.952   3.107  1.00  0.00     0.074 A 
HETATM   15  C   UNL     1      43.577 -18.982   2.144  1.00  0.00     0.038 A 
BRANCH  14  16
HETATM   16  O   UNL     1      44.023 -21.220   2.637  1.00  0.00    -0.360 OA
HETATM   17  H   UNL     1      44.134 -21.200   1.675  1.00  0.00     0.217 HD
ENDBRANCH  14  16
ENDBRANCH   2   3
ENDBRANCH   1   2
BRANCH   1  18
HETATM   18  C   UNL     1      43.943 -11.959   5.344  1.00  0.00     0.217 C 
HETATM   19  N   UNL     1      42.604 -11.790   5.050  1.00  0.00    -0.361 N 
HETATM   20  H   UNL     1      41.993 -12.585   5.186  1.00  0.00     0.162 HD
HETATM   21  O   UNL     1      44.819 -11.198   4.947  1.00  0.00    -0.274 OA
BRANCH  19  22
HETATM   22  C   UNL     1      42.194 -10.749   4.122  1.00  0.00     0.127 C 
BRANCH  22  23
HETATM   23  C   UNL     1      40.684 -10.728   3.890  1.00  0.00     0.060 C 
BRANCH  23  24
HETATM   24  C   UNL     1      40.208 -11.967   3.199  1.00  0.00    -0.029 A 
HETATM   25  C   UNL     1      40.344 -12.275   1.807  1.00  0.00    -0.000 A 
HETATM   26  C   UNL     1      39.790 -13.539   1.601  1.00  0.00     0.043 A 
HETATM   27  C   UNL     1      40.898 -11.593   0.703  1.00  0.00     0.038 A 
HETATM   28  C   UNL     1      39.761 -14.162   0.347  1.00  0.00     0.032 A 
HETATM   29  N   UNL     1      39.329 -13.980   2.819  1.00  0.00    -0.365 N 
HETATM   30  C   UNL     1      40.315 -13.468  -0.733  1.00  0.00     0.026 A 
HETATM   31  C   UNL     1      40.872 -12.204  -0.555  1.00  0.00     0.035 A 
HETATM   32 CL   UNL     1      41.543 -11.375  -1.908  1.00  0.00    -0.084 Cl
HETATM   33  H   UNL     1      38.880 -14.873   2.972  1.00  0.00     0.165 HD
HETATM   34  C   UNL     1      39.572 -13.043   3.786  1.00  0.00     0.096 A 
ENDBRANCH  23  24
ENDBRANCH  22  23
ENDBRANCH  19  22
ENDBRANCH   1  18
TORSDOF 7
ENDMDL
MODEL 4
REMARK VINA RESULT:      -9.8      3.533      4.808
REMARK  7 active torsions:
REMARK  status: ('A' for Active; 'I' for Inactive)
REMARK    1  A    between atoms: C_3  and  C_4 
REMARK    2  A    between atoms: C_4  and  C_5 
REMARK    3  A    between atoms: C_5  and  C_6 
REMARK       I    between atoms: C_6  and  N_7 
REMARK    4  A    between atoms: N_7  and  C_8 
REMARK    5  A    between atoms: C_8  and  C_9 
REMARK    6  A    between atoms: C_9  and  C_10 
REMARK    7  A    between atoms: C_29  and  O_30 
ROOT
HETATM    1  C   UNL     1      40.615 -14.261   6.366  1.00  0.00     0.107 C 
ENDROOT
BRANCH   1   2
HETATM    2  C   UNL     1      42.006 -14.452   5.746  1.00  0.00     0.055 C 
BRANCH   2   3
HETATM    3  C   UNL     1      42.473 -15.838   5.314  1.00  0.00     0.025 A 
HETATM    4  C   UNL     1      42.383 -16.247   4.024  1.00  0.00    -0.037 A 
HETATM    5  C   UNL     1      41.758 -15.412   2.927  1.00  0.00     0.050 C 
HETATM    6  C   UNL     1      42.877 -17.585   3.633  1.00  0.00     0.005 A 
HETATM    7  C   UNL     1      43.375 -18.444   4.614  1.00  0.00     0.099 A 
HETATM    8  C   UNL     1      42.875 -18.051   2.311  1.00  0.00     0.017 A 
HETATM    9  O   UNL     1      43.421 -18.013   5.952  1.00  0.00    -0.274 OA
HETATM   10  C   UNL     1      43.846 -19.744   4.337  1.00  0.00     0.006 A 
HETATM   11  C   UNL     1      43.006 -16.756   6.359  1.00  0.00     0.295 A 
HETATM   12  O   UNL     1      43.075 -16.448   7.543  1.00  0.00    -0.259 OA
HETATM   13  C   UNL     1      44.363 -20.637   5.428  1.00  0.00     0.054 C 
HETATM   14  C   UNL     1      43.815 -20.167   3.005  1.00  0.00     0.074 A 
HETATM   15  C   UNL     1      43.338 -19.332   2.001  1.00  0.00     0.038 A 
BRANCH  14  16
HETATM   16  O   UNL     1      44.242 -21.400   2.600  1.00  0.00    -0.360 OA
HETATM   17  H   UNL     1      44.992 -21.304   1.993  1.00  0.00     0.217 HD
ENDBRANCH  14  16
ENDBRANCH   2   3
ENDBRANCH   1   2
BRANCH   1  18
HETATM   18  C   UNL     1      39.941 -13.022   5.805  1.00  0.00     0.217 C 
HETATM   19  N   UNL     1      40.378 -12.687   4.539  1.00  0.00    -0.361 N 
HETATM   20  H   UNL     1      41.248 -13.098   4.222  1.00  0.00     0.162 HD
HETATM   21  O   UNL     1      39.093 -12.380   6.415  1.00  0.00    -0.274 OA
BRANCH  19  22
HETATM   22  C   UNL     1      39.929 -11.449   3.924  1.00  0.00     0.127 C 
BRANCH  22  23
HETATM   23  C   UNL     1      40.926 -10.305   4.106  1.00  0.00     0.060 C 
BRANCH  23  24
HETATM   24  C   UNL     1      42.325 -10.807   4.278  1.00  0.00    -0.029 A 
HETATM   25  C   UNL     1      43.073 -10.851   5.499  1.00  0.00    -0.000 A 
HETATM   26  C   UNL     1      44.315 -11.418   5.209  1.00  0.00     0.043 A 
HETATM   27  C   UNL     1      42.801 -10.468   6.828  1.00  0.00     0.038 A 
HETATM   28  C   UNL     1      45.303 -11.624   6.179  1.00  0.00     0.032 A 
HETATM   29  N   UNL     1      44.325 -11.700   3.863  1.00  0.00    -0.365 N 
HETATM   30  C   UNL     1      45.012 -11.235   7.491  1.00  0.00     0.026 A 
HETATM   31  C   UNL     1      43.781 -10.665   7.807  1.00  0.00     0.035 A 
HETATM   32 CL   UNL     1      43.457 -10.195   9.432  1.00  0.00    -0.084 Cl
HETATM   33  H   UNL     1      45.101 -12.124   3.372  1.00  0.00     0.165 HD
HETATM   34  C   UNL     1      43.136 -11.336   3.293  1.00  0.00     0.096 A 
ENDBRANCH  23  24
ENDBRANCH  22  23
ENDBRANCH  19  22
ENDBRANCH   1  18
TORSDOF 7
ENDMDL
MODEL 5
REMARK VINA RESULT:      -9.6      5.233      7.861
REMARK  7 active torsions:
REMARK  status: ('A' for Active; 'I' for Inactive)
REMARK    1  A    between atoms: C_3  and  C_4 
REMARK    2  A    between atoms: C_4  and  C_5 
REMARK    3  A    between atoms: C_5  and  C_6 
REMARK       I    between atoms: C_6  and  N_7 
REMARK    4  A    between atoms: N_7  and  C_8 
REMARK    5  A    between atoms: C_8  and  C_9 
REMARK    6  A    between atoms: C_9  and  C_10 
REMARK    7  A    between atoms: C_29  and  O_30 
ROOT
HETATM    1  C   UNL     1      44.050 -13.198   6.416  1.00  0.00     0.107 C 
ENDROOT
BRANCH   1   2
HETATM    2  C   UNL     1      42.874 -14.137   6.116  1.00  0.00     0.055 C 
BRANCH   2   3
HETATM    3  C   UNL     1      43.127 -15.565   5.646  1.00  0.00     0.025 A 
HETATM    4  C   UNL     1      43.042 -15.907   4.336  1.00  0.00    -0.037 A 
HETATM    5  C   UNL     1      42.627 -14.940   3.249  1.00  0.00     0.050 C 
HETATM    6  C   UNL     1      43.328 -17.293   3.911  1.00  0.00     0.005 A 
HETATM    7  C   UNL     1      43.621 -18.259   4.875  1.00  0.00     0.099 A 
HETATM    8  C   UNL     1      43.321 -17.706   2.571  1.00  0.00     0.017 A 
HETATM    9  O   UNL     1      43.664 -17.890   6.232  1.00  0.00    -0.274 OA
HETATM   10  C   UNL     1      43.884 -19.609   4.564  1.00  0.00     0.006 A 
HETATM   11  C   UNL     1      43.442 -16.597   6.674  1.00  0.00     0.295 A 
HETATM   12  O   UNL     1      43.495 -16.347   7.873  1.00  0.00    -0.259 OA
HETATM   13  C   UNL     1      44.184 -20.615   5.638  1.00  0.00     0.054 C 
HETATM   14  C   UNL     1      43.857 -19.973   3.215  1.00  0.00     0.074 A 
HETATM   15  C   UNL     1      43.581 -19.034   2.227  1.00  0.00     0.038 A 
BRANCH  14  16
HETATM   16  O   UNL     1      44.095 -21.245   2.777  1.00  0.00    -0.360 OA
HETATM   17  H   UNL     1      43.281 -21.625   2.414  1.00  0.00     0.217 HD
ENDBRANCH  14  16
ENDBRANCH   2   3
ENDBRANCH   1   2
BRANCH   1  18
HETATM   18  C   UNL     1      44.060 -12.023   5.456  1.00  0.00     0.217 C 
HETATM   19  N   UNL     1      42.893 -11.900   4.729  1.00  0.00    -0.361 N 
HETATM   20  H   UNL     1      42.279 -12.704   4.693  1.00  0.00     0.162 HD
HETATM   21  O   UNL     1      45.011 -11.258   5.335  1.00  0.00    -0.274 OA
BRANCH  19  22
HETATM   22  C   UNL     1      42.802 -10.908   3.671  1.00  0.00     0.127 C 
BRANCH  22  23
HETATM   23  C   UNL     1      41.369 -10.697   3.183  1.00  0.00     0.060 C 
BRANCH  23  24
HETATM   24  C   UNL     1      41.249 -10.894   1.705  1.00  0.00    -0.029 A 
HETATM   25  C   UNL     1      40.864 -12.098   1.031  1.00  0.00    -0.000 A 
HETATM   26  C   UNL     1      40.854 -11.827  -0.338  1.00  0.00     0.043 A 
HETATM   27  C   UNL     1      40.515 -13.394   1.464  1.00  0.00     0.038 A 
HETATM   28  C   UNL     1      40.511 -12.784  -1.301  1.00  0.00     0.032 A 
HETATM   29  N   UNL     1      41.226 -10.512  -0.492  1.00  0.00    -0.365 N 
HETATM   30  C   UNL     1      40.169 -14.062  -0.848  1.00  0.00     0.026 A 
HETATM   31  C   UNL     1      40.173 -14.359   0.512  1.00  0.00     0.035 A 
HETATM   32 CL   UNL     1      39.749 -15.945   1.035  1.00  0.00    -0.084 Cl
HETATM   33  H   UNL     1      41.300 -10.038  -1.382  1.00  0.00     0.165 HD
HETATM   34  C   UNL     1      41.467  -9.941   0.728  1.00  0.00     0.096 A 
ENDBRANCH  23  24
ENDBRANCH  22  23
ENDBRANCH  19  22
ENDBRANCH   1  18
TORSDOF 7
ENDMDL
MODEL 6
REMARK VINA RESULT:      -9.6      2.308      3.070
REMARK  7 active torsions:
REMARK  status: ('A' for Active; 'I' for Inactive)
REMARK    1  A    between atoms: C_3  and  C_4 
REMARK    2  A    between atoms: C_4  and  C_5 
REMARK    3  A    between atoms: C_5  and  C_6 
REMARK       I    between atoms: C_6  and  N_7 
REMARK    4  A    between atoms: N_7  and  C_8 
REMARK    5  A    between atoms: C_8  and  C_9 
REMARK    6  A    between atoms: C_9  and  C_10 
REMARK    7  A    between atoms: C_29  and  O_30 
ROOT
HETATM    1  C   UNL     1      41.877 -13.677   6.425  1.00  0.00     0.107 C 
ENDROOT
BRANCH   1   2
HETATM    2  C   UNL     1      43.213 -14.151   5.840  1.00  0.00     0.055 C 
BRANCH   2   3
HETATM    3  C   UNL     1      43.391 -15.599   5.398  1.00  0.00     0.025 A 
HETATM    4  C   UNL     1      43.188 -15.979   4.112  1.00  0.00    -0.037 A 
HETATM    5  C   UNL     1      42.708 -15.035   3.031  1.00  0.00     0.050 C 
HETATM    6  C   UNL     1      43.402 -17.385   3.710  1.00  0.00     0.005 A 
HETATM    7  C   UNL     1      43.750 -18.328   4.678  1.00  0.00     0.099 A 
HETATM    8  C   UNL     1      43.274 -17.838   2.390  1.00  0.00     0.017 A 
HETATM    9  O   UNL     1      43.915 -17.920   6.014  1.00  0.00    -0.274 OA
HETATM   10  C   UNL     1      43.952 -19.695   4.391  1.00  0.00     0.006 A 
HETATM   11  C   UNL     1      43.763 -16.608   6.430  1.00  0.00     0.295 A 
HETATM   12  O   UNL     1      43.922 -16.323   7.611  1.00  0.00    -0.259 OA
HETATM   13  C   UNL     1      44.315 -20.675   5.470  1.00  0.00     0.054 C 
HETATM   14  C   UNL     1      43.804 -20.099   3.062  1.00  0.00     0.074 A 
HETATM   15  C   UNL     1      43.471 -19.183   2.069  1.00  0.00     0.038 A 
BRANCH  14  16
HETATM   16  O   UNL     1      43.973 -21.389   2.647  1.00  0.00    -0.360 OA
HETATM   17  H   UNL     1      44.917 -21.604   2.617  1.00  0.00     0.217 HD
ENDBRANCH  14  16
ENDBRANCH   2   3
ENDBRANCH   1   2
BRANCH   1  18
HETATM   18  C   UNL     1      41.497 -12.317   5.869  1.00  0.00     0.217 C 
HETATM   19  N   UNL     1      40.651 -11.604   6.695  1.00  0.00    -0.361 N 
HETATM   20  H   UNL     1      40.164 -12.118   7.419  1.00  0.00     0.162 HD
HETATM   21  O   UNL     1      41.901 -11.891   4.792  1.00  0.00    -0.274 OA
BRANCH  19  22
HETATM   22  C   UNL     1      40.088 -10.344   6.239  1.00  0.00     0.127 C 
BRANCH  22  23
HETATM   23  C   UNL     1      40.855  -9.132   6.767  1.00  0.00     0.060 C 
BRANCH  23  24
HETATM   24  C   UNL     1      41.301  -9.327   8.181  1.00  0.00    -0.029 A 
HETATM   25  C   UNL     1      42.653  -9.424   8.646  1.00  0.00    -0.000 A 
HETATM   26  C   UNL     1      42.610  -9.570  10.033  1.00  0.00     0.043 A 
HETATM   27  C   UNL     1      43.911  -9.391   8.010  1.00  0.00     0.038 A 
HETATM   28  C   UNL     1      43.760  -9.685  10.822  1.00  0.00     0.032 A 
HETATM   29  N   UNL     1      41.283  -9.570  10.397  1.00  0.00    -0.365 N 
HETATM   30  C   UNL     1      44.997  -9.651  10.170  1.00  0.00     0.026 A 
HETATM   31  C   UNL     1      45.068  -9.508   8.787  1.00  0.00     0.035 A 
HETATM   32 CL   UNL     1      46.608  -9.473   8.016  1.00  0.00    -0.084 Cl
HETATM   33  H   UNL     1      40.951  -9.656  11.348  1.00  0.00     0.165 HD
HETATM   34  C   UNL     1      40.488  -9.426   9.293  1.00  0.00     0.096 A 
ENDBRANCH  23  24
ENDBRANCH  22  23
ENDBRANCH  19  22
ENDBRANCH   1  18
TORSDOF 7
ENDMDL
MODEL 7
REMARK VINA RESULT:      -9.6      3.804      5.310
REMARK  7 active torsions:
REMARK  status: ('A' for Active; 'I' for Inactive)
REMARK    1  A    between atoms: C_3  and  C_4 
REMARK    2  A    between atoms: C_4  and  C_5 
REMARK    3  A    between atoms: C_5  and  C_6 
REMARK       I    between atoms: C_6  and  N_7 
REMARK    4  A    between atoms: N_7  and  C_8 
REMARK    5  A    between atoms: C_8  and  C_9 
REMARK    6  A    between atoms: C_9  and  C_10 
REMARK    7  A    between atoms: C_29  and  O_30 
ROOT
HETATM    1  C   UNL     1      40.574 -14.223   6.268  1.00  0.00     0.107 C 
ENDROOT
BRANCH   1   2
HETATM    2  C   UNL     1      41.977 -14.402   5.675  1.00  0.00     0.055 C 
BRANCH   2   3
HETATM    3  C   UNL     1      42.407 -15.748   5.102  1.00  0.00     0.025 A 
HETATM    4  C   UNL     1      42.870 -16.743   5.899  1.00  0.00    -0.037 A 
HETATM    5  C   UNL     1      43.067 -16.591   7.392  1.00  0.00     0.050 C 
HETATM    6  C   UNL     1      43.247 -18.048   5.315  1.00  0.00     0.005 A 
HETATM    7  C   UNL     1      43.182 -18.222   3.931  1.00  0.00     0.099 A 
HETATM    8  C   UNL     1      43.673 -19.142   6.080  1.00  0.00     0.017 A 
HETATM    9  O   UNL     1      42.737 -17.163   3.120  1.00  0.00    -0.274 OA
HETATM   10  C   UNL     1      43.542 -19.423   3.285  1.00  0.00     0.006 A 
HETATM   11  C   UNL     1      42.338 -15.937   3.626  1.00  0.00     0.295 A 
HETATM   12  O   UNL     1      41.962 -15.057   2.860  1.00  0.00    -0.259 OA
HETATM   13  C   UNL     1      43.467 -19.560   1.791  1.00  0.00     0.054 C 
HETATM   14  C   UNL     1      43.970 -20.482   4.091  1.00  0.00     0.074 A 
HETATM   15  C   UNL     1      44.033 -20.347   5.473  1.00  0.00     0.038 A 
BRANCH  14  16
HETATM   16  O   UNL     1      44.345 -21.698   3.594  1.00  0.00    -0.360 OA
HETATM   17  H   UNL     1      45.261 -21.657   3.281  1.00  0.00     0.217 HD
ENDBRANCH  14  16
ENDBRANCH   2   3
ENDBRANCH   1   2
BRANCH   1  18
HETATM   18  C   UNL     1      39.874 -13.030   5.647  1.00  0.00     0.217 C 
HETATM   19  N   UNL     1      40.269 -12.778   4.348  1.00  0.00    -0.361 N 
HETATM   20  H   UNL     1      41.132 -13.205   4.032  1.00  0.00     0.162 HD
HETATM   21  O   UNL     1      39.038 -12.353   6.237  1.00  0.00    -0.274 OA
BRANCH  19  22
HETATM   22  C   UNL     1      39.792 -11.588   3.664  1.00  0.00     0.127 C 
BRANCH  22  23
HETATM   23  C   UNL     1      40.762 -10.413   3.782  1.00  0.00     0.060 C 
BRANCH  23  24
HETATM   24  C   UNL     1      42.168 -10.871   4.004  1.00  0.00    -0.029 A 
HETATM   25  C   UNL     1      42.899 -10.821   5.235  1.00  0.00    -0.000 A 
HETATM   26  C   UNL     1      44.157 -11.377   4.999  1.00  0.00     0.043 A 
HETATM   27  C   UNL     1      42.599 -10.359   6.534  1.00  0.00     0.038 A 
HETATM   28  C   UNL     1      45.135 -11.498   5.994  1.00  0.00     0.032 A 
HETATM   29  N   UNL     1      44.193 -11.744   3.674  1.00  0.00    -0.365 N 
HETATM   30  C   UNL     1      44.816 -11.033   7.274  1.00  0.00     0.026 A 
HETATM   31  C   UNL     1      43.568 -10.472   7.536  1.00  0.00     0.035 A 
HETATM   32 CL   UNL     1      43.210  -9.907   9.123  1.00  0.00    -0.084 Cl
HETATM   33  H   UNL     1      44.985 -12.180   3.222  1.00  0.00     0.165 HD
HETATM   34  C   UNL     1      43.005 -11.443   3.066  1.00  0.00     0.096 A 
ENDBRANCH  23  24
ENDBRANCH  22  23
ENDBRANCH  19  22
ENDBRANCH   1  18
TORSDOF 7
ENDMDL
MODEL 8
REMARK VINA RESULT:      -9.6      6.336      9.516
REMARK  7 active torsions:
REMARK  status: ('A' for Active; 'I' for Inactive)
REMARK    1  A    between atoms: C_3  and  C_4 
REMARK    2  A    between atoms: C_4  and  C_5 
REMARK    3  A    between atoms: C_5  and  C_6 
REMARK       I    between atoms: C_6  and  N_7 
REMARK    4  A    between atoms: N_7  and  C_8 
REMARK    5  A    between atoms: C_8  and  C_9 
REMARK    6  A    between atoms: C_9  and  C_10 
REMARK    7  A    between atoms: C_29  and  O_30 
ROOT
HETATM    1  C   UNL     1      41.781 -13.523   4.956  1.00  0.00     0.107 C 
ENDROOT
BRANCH   1   2
HETATM    2  C   UNL     1      43.043 -14.042   4.254  1.00  0.00     0.055 C 
BRANCH   2   3
HETATM    3  C   UNL     1      43.208 -15.530   3.965  1.00  0.00     0.025 A 
HETATM    4  C   UNL     1      43.561 -16.407   4.938  1.00  0.00    -0.037 A 
HETATM    5  C   UNL     1      43.886 -15.991   6.356  1.00  0.00     0.050 C 
HETATM    6  C   UNL     1      43.679 -17.849   4.631  1.00  0.00     0.005 A 
HETATM    7  C   UNL     1      43.489 -18.287   3.320  1.00  0.00     0.099 A 
HETATM    8  C   UNL     1      43.977 -18.821   5.596  1.00  0.00     0.017 A 
HETATM    9  O   UNL     1      43.164 -17.354   2.319  1.00  0.00    -0.274 OA
HETATM   10  C   UNL     1      43.603 -19.638   2.930  1.00  0.00     0.006 A 
HETATM   11  C   UNL     1      43.005 -16.001   2.566  1.00  0.00     0.295 A 
HETATM   12  O   UNL     1      42.721 -15.244   1.645  1.00  0.00    -0.259 OA
HETATM   13  C   UNL     1      43.401 -20.060   1.504  1.00  0.00     0.054 C 
HETATM   14  C   UNL     1      43.911 -20.568   3.927  1.00  0.00     0.074 A 
HETATM   15  C   UNL     1      44.094 -20.168   5.246  1.00  0.00     0.038 A 
BRANCH  14  16
HETATM   16  O   UNL     1      44.049 -21.906   3.687  1.00  0.00    -0.360 OA
HETATM   17  H   UNL     1      43.594 -22.141   2.865  1.00  0.00     0.217 HD
ENDBRANCH  14  16
ENDBRANCH   2   3
ENDBRANCH   1   2
BRANCH   1  18
HETATM   18  C   UNL     1      40.763 -13.037   3.942  1.00  0.00     0.217 C 
HETATM   19  N   UNL     1      41.324 -12.663   2.737  1.00  0.00    -0.361 N 
HETATM   20  H   UNL     1      42.322 -12.490   2.722  1.00  0.00     0.162 HD
HETATM   21  O   UNL     1      39.558 -12.981   4.167  1.00  0.00    -0.274 OA
BRANCH  19  22
HETATM   22  C   UNL     1      40.497 -12.046   1.714  1.00  0.00     0.127 C 
BRANCH  22  23
HETATM   23  C   UNL     1      40.993 -12.339   0.299  1.00  0.00     0.060 C 
BRANCH  23  24
HETATM   24  C   UNL     1      39.957 -13.040  -0.522  1.00  0.00    -0.029 A 
HETATM   25  C   UNL     1      38.893 -12.428  -1.259  1.00  0.00    -0.000 A 
HETATM   26  C   UNL     1      38.187 -13.447  -1.900  1.00  0.00     0.043 A 
HETATM   27  C   UNL     1      38.471 -11.095  -1.445  1.00  0.00     0.038 A 
HETATM   28  C   UNL     1      37.079 -13.204  -2.721  1.00  0.00     0.032 A 
HETATM   29  N   UNL     1      38.794 -14.633  -1.560  1.00  0.00    -0.365 N 
HETATM   30  C   UNL     1      36.678 -11.875  -2.891  1.00  0.00     0.026 A 
HETATM   31  C   UNL     1      37.364 -10.840  -2.260  1.00  0.00     0.035 A 
HETATM   32 CL   UNL     1      36.841  -9.214  -2.488  1.00  0.00    -0.084 Cl
HETATM   33  H   UNL     1      38.496 -15.542  -1.887  1.00  0.00     0.165 HD
HETATM   34  C   UNL     1      39.857 -14.402  -0.731  1.00  0.00     0.096 A 
ENDBRANCH  23  24
ENDBRANCH  22  23
ENDBRANCH  19  22
ENDBRANCH   1  18
TORSDOF 7
ENDMDL
MODEL 9
REMARK VINA RESULT:      -9.5      6.100      8.991
REMARK  7 active torsions:
REMARK  status: ('A' for Active; 'I' for Inactive)
REMARK    1  A    between atoms: C_3  and  C_4 
REMARK    2  A    between atoms: C_4  and  C_5 
REMARK    3  A    between atoms: C_5  and  C_6 
REMARK       I    between atoms: C_6  and  N_7 
REMARK    4  A    between atoms: N_7  and  C_8 
REMARK    5  A    between atoms: C_8  and  C_9 
REMARK    6  A    between atoms: C_9  and  C_10 
REMARK    7  A    between atoms: C_29  and  O_30 
ROOT
HETATM    1  C   UNL     1      41.561 -13.991   6.319  1.00  0.00     0.107 C 
ENDROOT
BRANCH   1   2
HETATM    2  C   UNL     1      42.947 -14.392   5.796  1.00  0.00     0.055 C 
BRANCH   2   3
HETATM    3  C   UNL     1      43.169 -15.769   5.181  1.00  0.00     0.025 A 
HETATM    4  C   UNL     1      43.437 -16.855   5.949  1.00  0.00    -0.037 A 
HETATM    5  C   UNL     1      43.607 -16.791   7.451  1.00  0.00     0.050 C 
HETATM    6  C   UNL     1      43.614 -18.182   5.322  1.00  0.00     0.005 A 
HETATM    7  C   UNL     1      43.568 -18.294   3.932  1.00  0.00     0.099 A 
HETATM    8  C   UNL     1      43.830 -19.358   6.054  1.00  0.00     0.017 A 
HETATM    9  O   UNL     1      43.329 -17.148   3.153  1.00  0.00    -0.274 OA
HETATM   10  C   UNL     1      43.748 -19.514   3.247  1.00  0.00     0.006 A 
HETATM   11  C   UNL     1      43.119 -15.892   3.697  1.00  0.00     0.295 A 
HETATM   12  O   UNL     1      42.917 -14.936   2.957  1.00  0.00    -0.259 OA
HETATM   13  C   UNL     1      43.701 -19.583   1.748  1.00  0.00     0.054 C 
HETATM   14  C   UNL     1      43.970 -20.657   4.020  1.00  0.00     0.074 A 
HETATM   15  C   UNL     1      44.009 -20.584   5.408  1.00  0.00     0.038 A 
BRANCH  14  16
HETATM   16  O   UNL     1      44.158 -21.900   3.486  1.00  0.00    -0.360 OA
HETATM   17  H   UNL     1      45.038 -22.230   3.722  1.00  0.00     0.217 HD
ENDBRANCH  14  16
ENDBRANCH   2   3
ENDBRANCH   1   2
BRANCH   1  18
HETATM   18  C   UNL     1      40.951 -12.907   5.450  1.00  0.00     0.217 C 
HETATM   19  N   UNL     1      39.897 -13.352   4.678  1.00  0.00    -0.361 N 
HETATM   20  H   UNL     1      39.801 -14.353   4.552  1.00  0.00     0.162 HD
HETATM   21  O   UNL     1      41.353 -11.748   5.433  1.00  0.00    -0.274 OA
BRANCH  19  22
HETATM   22  C   UNL     1      39.298 -12.468   3.693  1.00  0.00     0.127 C 
BRANCH  22  23
HETATM   23  C   UNL     1      39.115 -13.139   2.332  1.00  0.00     0.060 C 
BRANCH  23  24
HETATM   24  C   UNL     1      39.942 -12.484   1.272  1.00  0.00    -0.029 A 
HETATM   25  C   UNL     1      39.966 -12.816  -0.121  1.00  0.00    -0.000 A 
HETATM   26  C   UNL     1      40.851 -11.936  -0.747  1.00  0.00     0.043 A 
HETATM   27  C   UNL     1      39.307 -13.783  -0.909  1.00  0.00     0.038 A 
HETATM   28  C   UNL     1      41.112 -11.969  -2.122  1.00  0.00     0.032 A 
HETATM   29  N   UNL     1      41.351 -11.106   0.229  1.00  0.00    -0.365 N 
HETATM   30  C   UNL     1      40.447 -12.937  -2.883  1.00  0.00     0.026 A 
HETATM   31  C   UNL     1      39.561 -13.828  -2.283  1.00  0.00     0.035 A 
HETATM   32 CL   UNL     1      38.762 -15.009  -3.250  1.00  0.00    -0.084 Cl
HETATM   33  H   UNL     1      42.015 -10.362   0.062  1.00  0.00     0.165 HD
HETATM   34  C   UNL     1      40.814 -11.426   1.446  1.00  0.00     0.096 A 
ENDBRANCH  23  24
ENDBRANCH  22  23
ENDBRANCH  19  22
ENDBRANCH   1  18
TORSDOF 7
ENDMDL
MODEL 10
REMARK VINA RESULT:      -9.4      2.065      3.503
REMARK  7 active torsions:
REMARK  status: ('A' for Active; 'I' for Inactive)
REMARK    1  A    between atoms: C_3  and  C_4 
REMARK    2  A    between atoms: C_4  and  C_5 
REMARK    3  A    between atoms: C_5  and  C_6 
REMARK       I    between atoms: C_6  and  N_7 
REMARK    4  A    between atoms: N_7  and  C_8 
REMARK    5  A    between atoms: C_8  and  C_9 
REMARK    6  A    between atoms: C_9  and  C_10 
REMARK    7  A    between atoms: C_29  and  O_30 
ROOT
HETATM    1  C   UNL     1      41.319 -13.603   4.112  1.00  0.00     0.107 C 
ENDROOT
BRANCH   1   2
HETATM    2  C   UNL     1      42.714 -14.113   3.730  1.00  0.00     0.055 C 
BRANCH   2   3
HETATM    3  C   UNL     1      42.965 -15.604   3.536  1.00  0.00     0.025 A 
HETATM    4  C   UNL     1      43.384 -16.393   4.557  1.00  0.00    -0.037 A 
HETATM    5  C   UNL     1      43.706 -15.865   5.938  1.00  0.00     0.050 C 
HETATM    6  C   UNL     1      43.585 -17.842   4.342  1.00  0.00     0.005 A 
HETATM    7  C   UNL     1      43.401 -18.376   3.066  1.00  0.00     0.099 A 
HETATM    8  C   UNL     1      43.955 -18.728   5.363  1.00  0.00     0.017 A 
HETATM    9  O   UNL     1      43.005 -17.532   2.013  1.00  0.00    -0.274 OA
HETATM   10  C   UNL     1      43.590 -19.741   2.764  1.00  0.00     0.006 A 
HETATM   11  C   UNL     1      42.768 -16.178   2.175  1.00  0.00     0.295 A 
HETATM   12  O   UNL     1      42.425 -15.502   1.212  1.00  0.00    -0.259 OA
HETATM   13  C   UNL     1      43.391 -20.268   1.372  1.00  0.00     0.054 C 
HETATM   14  C   UNL     1      43.969 -20.583   3.813  1.00  0.00     0.074 A 
HETATM   15  C   UNL     1      44.148 -20.086   5.099  1.00  0.00     0.038 A 
BRANCH  14  16
HETATM   16  O   UNL     1      44.184 -21.923   3.658  1.00  0.00    -0.360 OA
HETATM   17  H   UNL     1      43.950 -22.191   2.757  1.00  0.00     0.217 HD
ENDBRANCH  14  16
ENDBRANCH   2   3
ENDBRANCH   1   2
BRANCH   1  18
HETATM   18  C   UNL     1      41.370 -12.803   5.400  1.00  0.00     0.217 C 
HETATM   19  N   UNL     1      40.814 -11.545   5.286  1.00  0.00    -0.361 N 
HETATM   20  H   UNL     1      40.679 -11.178   4.352  1.00  0.00     0.162 HD
HETATM   21  O   UNL     1      41.858 -13.230   6.442  1.00  0.00    -0.274 OA
BRANCH  19  22
HETATM   22  C   UNL     1      40.912 -10.608   6.393  1.00  0.00     0.127 C 
BRANCH  22  23
HETATM   23  C   UNL     1      42.099  -9.656   6.257  1.00  0.00     0.060 C 
BRANCH  23  24
HETATM   24  C   UNL     1      43.181  -9.969   7.241  1.00  0.00    -0.029 A 
HETATM   25  C   UNL     1      43.269  -9.500   8.592  1.00  0.00    -0.000 A 
HETATM   26  C   UNL     1      44.417 -10.058   9.155  1.00  0.00     0.043 A 
HETATM   27  C   UNL     1      42.469  -8.656   9.390  1.00  0.00     0.038 A 
HETATM   28  C   UNL     1      44.810  -9.819  10.478  1.00  0.00     0.032 A 
HETATM   29  N   UNL     1      45.008 -10.831   8.183  1.00  0.00    -0.365 N 
HETATM   30  C   UNL     1      44.001  -8.978  11.250  1.00  0.00     0.026 A 
HETATM   31  C   UNL     1      42.852  -8.406  10.711  1.00  0.00     0.035 A 
HETATM   32 CL   UNL     1      41.880  -7.373  11.690  1.00  0.00    -0.084 Cl
HETATM   33  H   UNL     1      45.859 -11.361   8.312  1.00  0.00     0.165 HD
HETATM   34  C   UNL     1      44.276 -10.783   7.028  1.00  0.00     0.096 A 
ENDBRANCH  23  24
ENDBRANCH  22  23
ENDBRANCH  19  22
ENDBRANCH   1  18
TORSDOF 7
ENDMDL
