MODEL 1
REMARK VINA RESULT:      -8.6      0.000      0.000
REMARK  7 active torsions:
REMARK  status: ('A' for Active; 'I' for Inactive)
REMARK    1  A    between atoms: C_2  and  C_3 
REMARK    2  A    between atoms: C_2  and  C_20 
REMARK    3  A    between atoms: C_3  and  C_4 
REMARK       I    between atoms: C_4  and  N_5 
REMARK    4  A    between atoms: N_5  and  C_6 
REMARK    5  A    between atoms: C_13  and  C_14 
REMARK       I    between atoms: C_14  and  N_15 
REMARK    6  A    between atoms: C_20  and  C_21 
REMARK    7  A    between atoms: C_22  and  O_23 
ROOT
HETATM    1  C   UNL     1      42.782 -13.635   5.258  1.00  0.00     0.222 C 
HETATM    2  N   UNL     1      43.552 -12.485   5.196  1.00  0.00    -0.327 N 
HETATM    3  O   UNL     1      42.480 -14.256   6.269  1.00  0.00    -0.273 OA
HETATM    4  H   UNL     1      43.759 -12.131   4.271  1.00  0.00     0.169 HD
ENDROOT
BRANCH   2   5
HETATM    5  C   UNL     1      44.062 -11.722   6.268  1.00  0.00     0.035 A 
HETATM    6  C   UNL     1      43.263 -11.097   7.235  1.00  0.00     0.046 A 
HETATM    7  C   UNL     1      43.875 -10.335   8.257  1.00  0.00     0.030 A 
HETATM    8  C   UNL     1      45.260 -10.224   8.272  1.00  0.00     0.063 A 
HETATM    9  C   UNL     1      43.433  -9.576   9.382  1.00  0.00     0.156 A 
HETATM   10  N   UNL     1      45.549  -9.436   9.351  1.00  0.00    -0.277 N 
HETATM   11  C   UNL     1      46.086 -10.834   7.327  1.00  0.00     0.034 A 
HETATM   12  H   UNL     1      46.466  -9.142   9.666  1.00  0.00     0.189 HD
HETATM   13  N   UNL     1      44.476  -9.028  10.046  1.00  0.00    -0.168 NA
HETATM   14  C   UNL     1      45.456 -11.586   6.328  1.00  0.00     0.032 A 
BRANCH   9  15
HETATM   15  C   UNL     1      42.050  -9.363   9.837  1.00  0.00     0.270 C 
HETATM   16  N   UNL     1      41.712 -10.089  10.948  1.00  0.00    -0.365 N 
HETATM   17  H   UNL     1      42.408 -10.698  11.359  1.00  0.00     0.159 HD
HETATM   18  H   UNL     1      40.782 -10.013  11.328  1.00  0.00     0.159 HD
HETATM   19  O   UNL     1      41.244  -8.616   9.298  1.00  0.00    -0.266 OA
ENDBRANCH   9  15
ENDBRANCH   2   5
BRANCH   1  20
HETATM   20  C   UNL     1      42.352 -14.102   3.871  1.00  0.00     0.107 C 
BRANCH  20  21
HETATM   21  C   UNL     1      42.111 -15.618   3.789  1.00  0.00    -0.006 C 
HETATM   22  C   UNL     1      40.763 -15.988   3.159  1.00  0.00     0.011 C 
BRANCH  21  23
HETATM   23  C   UNL     1      43.301 -16.379   3.153  1.00  0.00     0.046 C 
BRANCH  23  24
HETATM   24  C   UNL     1      43.460 -17.891   3.219  1.00  0.00    -0.024 A 
HETATM   25  C   UNL     1      43.953 -18.462   4.417  1.00  0.00     0.074 A 
HETATM   26  C   UNL     1      44.136 -19.847   4.523  1.00  0.00     0.037 A 
HETATM   27  C   UNL     1      43.812 -20.683   3.458  1.00  0.00     0.003 A 
HETATM   28  C   UNL     1      43.301 -20.142   2.286  1.00  0.00     0.001 A 
HETATM   29  C   UNL     1      43.124 -18.760   2.171  1.00  0.00     0.010 A 
BRANCH  25  30
HETATM   30  O   UNL     1      44.246 -17.577   5.427  1.00  0.00    -0.355 OA
HETATM   31  C   UNL     1      43.490 -17.690   6.626  1.00  0.00     0.210 C 
ENDBRANCH  25  30
ENDBRANCH  23  24
ENDBRANCH  21  23
ENDBRANCH  20  21
ENDBRANCH   1  20
TORSDOF 7
ENDMDL
MODEL 2
REMARK VINA RESULT:      -8.5      1.579      1.912
REMARK  7 active torsions:
REMARK  status: ('A' for Active; 'I' for Inactive)
REMARK    1  A    between atoms: C_2  and  C_3 
REMARK    2  A    between atoms: C_2  and  C_20 
REMARK    3  A    between atoms: C_3  and  C_4 
REMARK       I    between atoms: C_4  and  N_5 
REMARK    4  A    between atoms: N_5  and  C_6 
REMARK    5  A    between atoms: C_13  and  C_14 
REMARK       I    between atoms: C_14  and  N_15 
REMARK    6  A    between atoms: C_20  and  C_21 
REMARK    7  A    between atoms: C_22  and  O_23 
ROOT
HETATM    1  C   UNL     1      41.432 -12.666   5.401  1.00  0.00     0.222 C 
HETATM    2  N   UNL     1      42.354 -12.807   6.425  1.00  0.00    -0.327 N 
HETATM    3  O   UNL     1      41.306 -11.698   4.662  1.00  0.00    -0.273 OA
HETATM    4  H   UNL     1      42.284 -13.650   6.981  1.00  0.00     0.169 HD
ENDROOT
BRANCH   2   5
HETATM    5  C   UNL     1      43.406 -11.934   6.773  1.00  0.00     0.035 A 
HETATM    6  C   UNL     1      43.226 -10.718   7.446  1.00  0.00     0.046 A 
HETATM    7  C   UNL     1      44.347  -9.904   7.726  1.00  0.00     0.030 A 
HETATM    8  C   UNL     1      45.605 -10.334   7.321  1.00  0.00     0.063 A 
HETATM    9  C   UNL     1      44.576  -8.648   8.366  1.00  0.00     0.156 A 
HETATM   10  N   UNL     1      46.469  -9.353   7.719  1.00  0.00    -0.277 N 
HETATM   11  C   UNL     1      45.822 -11.539   6.652  1.00  0.00     0.034 A 
HETATM   12  H   UNL     1      47.474  -9.330   7.586  1.00  0.00     0.189 HD
HETATM   13  N   UNL     1      45.889  -8.322   8.353  1.00  0.00    -0.168 NA
HETATM   14  C   UNL     1      44.696 -12.328   6.390  1.00  0.00     0.032 A 
BRANCH   9  15
HETATM   15  C   UNL     1      43.581  -7.760   8.986  1.00  0.00     0.270 C 
HETATM   16  N   UNL     1      43.074  -8.231  10.167  1.00  0.00    -0.365 N 
HETATM   17  H   UNL     1      43.402  -9.123  10.515  1.00  0.00     0.159 HD
HETATM   18  H   UNL     1      42.380  -7.692  10.660  1.00  0.00     0.159 HD
HETATM   19  O   UNL     1      43.212  -6.690   8.519  1.00  0.00    -0.266 OA
ENDBRANCH   9  15
ENDBRANCH   2   5
BRANCH   1  20
HETATM   20  C   UNL     1      40.515 -13.880   5.296  1.00  0.00     0.107 C 
BRANCH  20  21
HETATM   21  C   UNL     1      40.732 -14.695   4.010  1.00  0.00    -0.006 C 
HETATM   22  C   UNL     1      39.909 -14.187   2.821  1.00  0.00     0.011 C 
BRANCH  21  23
HETATM   23  C   UNL     1      42.230 -14.884   3.667  1.00  0.00     0.046 C 
BRANCH  23  24
HETATM   24  C   UNL     1      42.941 -16.228   3.729  1.00  0.00    -0.024 A 
HETATM   25  C   UNL     1      43.610 -16.579   4.927  1.00  0.00     0.074 A 
HETATM   26  C   UNL     1      44.296 -17.796   5.029  1.00  0.00     0.037 A 
HETATM   27  C   UNL     1      44.308 -18.689   3.960  1.00  0.00     0.003 A 
HETATM   28  C   UNL     1      43.633 -18.373   2.789  1.00  0.00     0.001 A 
HETATM   29  C   UNL     1      42.954 -17.156   2.677  1.00  0.00     0.010 A 
BRANCH  25  30
HETATM   30  O   UNL     1      43.551 -15.652   5.940  1.00  0.00    -0.355 OA
HETATM   31  C   UNL     1      43.293 -16.140   7.250  1.00  0.00     0.210 C 
ENDBRANCH  25  30
ENDBRANCH  23  24
ENDBRANCH  21  23
ENDBRANCH  20  21
ENDBRANCH   1  20
TORSDOF 7
ENDMDL
MODEL 3
REMARK VINA RESULT:      -8.3      6.157      8.174
REMARK  7 active torsions:
REMARK  status: ('A' for Active; 'I' for Inactive)
REMARK    1  A    between atoms: C_2  and  C_3 
REMARK    2  A    between atoms: C_2  and  C_20 
REMARK    3  A    between atoms: C_3  and  C_4 
REMARK       I    between atoms: C_4  and  N_5 
REMARK    4  A    between atoms: N_5  and  C_6 
REMARK    5  A    between atoms: C_13  and  C_14 
REMARK       I    between atoms: C_14  and  N_15 
REMARK    6  A    between atoms: C_20  and  C_21 
REMARK    7  A    between atoms: C_22  and  O_23 
ROOT
HETATM    1  C   UNL     1      40.482 -14.848   1.427  1.00  0.00     0.222 C 
HETATM    2  N   UNL     1      40.664 -14.793   0.054  1.00  0.00    -0.327 N 
HETATM    3  O   UNL     1      39.873 -14.038   2.114  1.00  0.00    -0.273 OA
HETATM    4  H   UNL     1      41.246 -15.513  -0.352  1.00  0.00     0.169 HD
ENDROOT
BRANCH   2   5
HETATM    5  C   UNL     1      40.109 -13.871  -0.858  1.00  0.00     0.035 A 
HETATM    6  C   UNL     1      40.487 -12.524  -0.941  1.00  0.00     0.046 A 
HETATM    7  C   UNL     1      39.850 -11.678  -1.877  1.00  0.00     0.030 A 
HETATM    8  C   UNL     1      38.858 -12.208  -2.693  1.00  0.00     0.063 A 
HETATM    9  C   UNL     1      39.946 -10.305  -2.258  1.00  0.00     0.156 A 
HETATM   10  N   UNL     1      38.435 -11.167  -3.472  1.00  0.00    -0.277 N 
HETATM   11  C   UNL     1      38.458 -13.543  -2.640  1.00  0.00     0.034 A 
HETATM   12  H   UNL     1      37.714 -11.189  -4.184  1.00  0.00     0.189 HD
HETATM   13  N   UNL     1      39.066 -10.006  -3.242  1.00  0.00    -0.168 NA
HETATM   14  C   UNL     1      39.106 -14.361  -1.707  1.00  0.00     0.032 A 
BRANCH   9  15
HETATM   15  C   UNL     1      40.848  -9.281  -1.712  1.00  0.00     0.270 C 
HETATM   16  N   UNL     1      40.216  -8.124  -1.340  1.00  0.00    -0.365 N 
HETATM   17  H   UNL     1      39.214  -8.057  -1.466  1.00  0.00     0.159 HD
HETATM   18  H   UNL     1      40.755  -7.362  -0.961  1.00  0.00     0.159 HD
HETATM   19  O   UNL     1      42.059  -9.410  -1.585  1.00  0.00    -0.266 OA
ENDBRANCH   9  15
ENDBRANCH   2   5
BRANCH   1  20
HETATM   20  C   UNL     1      41.180 -16.058   2.040  1.00  0.00     0.107 C 
BRANCH  20  21
HETATM   21  C   UNL     1      42.712 -15.927   2.064  1.00  0.00    -0.006 C 
HETATM   22  C   UNL     1      43.202 -14.482   1.919  1.00  0.00     0.011 C 
BRANCH  21  23
HETATM   23  C   UNL     1      43.357 -16.663   3.264  1.00  0.00     0.046 C 
BRANCH  23  24
HETATM   24  C   UNL     1      43.535 -18.173   3.325  1.00  0.00    -0.024 A 
HETATM   25  C   UNL     1      43.983 -18.747   4.539  1.00  0.00     0.074 A 
HETATM   26  C   UNL     1      44.182 -20.130   4.641  1.00  0.00     0.037 A 
HETATM   27  C   UNL     1      43.916 -20.962   3.556  1.00  0.00     0.003 A 
HETATM   28  C   UNL     1      43.448 -20.418   2.369  1.00  0.00     0.001 A 
HETATM   29  C   UNL     1      43.256 -19.038   2.256  1.00  0.00     0.010 A 
BRANCH  25  30
HETATM   30  O   UNL     1      44.220 -17.867   5.567  1.00  0.00    -0.355 OA
HETATM   31  C   UNL     1      43.351 -17.935   6.691  1.00  0.00     0.210 C 
ENDBRANCH  25  30
ENDBRANCH  23  24
ENDBRANCH  21  23
ENDBRANCH  20  21
ENDBRANCH   1  20
TORSDOF 7
ENDMDL
MODEL 4
REMARK VINA RESULT:      -8.2      5.310      8.247
REMARK  7 active torsions:
REMARK  status: ('A' for Active; 'I' for Inactive)
REMARK    1  A    between atoms: C_2  and  C_3 
REMARK    2  A    between atoms: C_2  and  C_20 
REMARK    3  A    between atoms: C_3  and  C_4 
REMARK       I    between atoms: C_4  and  N_5 
REMARK    4  A    between atoms: N_5  and  C_6 
REMARK    5  A    between atoms: C_13  and  C_14 
REMARK       I    between atoms: C_14  and  N_15 
REMARK    6  A    between atoms: C_20  and  C_21 
REMARK    7  A    between atoms: C_22  and  O_23 
ROOT
HETATM    1  C   UNL     1      40.586 -14.963   3.376  1.00  0.00     0.222 C 
HETATM    2  N   UNL     1      41.017 -15.183   2.078  1.00  0.00    -0.327 N 
HETATM    3  O   UNL     1      39.994 -13.975   3.790  1.00  0.00    -0.273 OA
HETATM    4  H   UNL     1      41.547 -16.029   1.916  1.00  0.00     0.169 HD
ENDROOT
BRANCH   2   5
HETATM    5  C   UNL     1      40.781 -14.385   0.938  1.00  0.00     0.035 A 
HETATM    6  C   UNL     1      40.061 -14.814  -0.185  1.00  0.00     0.046 A 
HETATM    7  C   UNL     1      39.902 -13.942  -1.285  1.00  0.00     0.030 A 
HETATM    8  C   UNL     1      40.471 -12.676  -1.225  1.00  0.00     0.063 A 
HETATM    9  C   UNL     1      39.264 -13.998  -2.562  1.00  0.00     0.156 A 
HETATM   10  N   UNL     1      40.159 -12.080  -2.415  1.00  0.00    -0.277 N 
HETATM   11  C   UNL     1      41.192 -12.214  -0.123  1.00  0.00     0.034 A 
HETATM   12  H   UNL     1      40.416 -11.148  -2.720  1.00  0.00     0.189 HD
HETATM   13  N   UNL     1      39.432 -12.843  -3.246  1.00  0.00    -0.168 NA
HETATM   14  C   UNL     1      41.332 -13.095   0.956  1.00  0.00     0.032 A 
BRANCH   9  15
HETATM   15  C   UNL     1      38.504 -15.116  -3.140  1.00  0.00     0.270 C 
HETATM   16  N   UNL     1      37.952 -14.841  -4.362  1.00  0.00    -0.365 N 
HETATM   17  H   UNL     1      38.096 -13.923  -4.764  1.00  0.00     0.159 HD
HETATM   18  H   UNL     1      37.406 -15.546  -4.832  1.00  0.00     0.159 HD
HETATM   19  O   UNL     1      38.354 -16.209  -2.608  1.00  0.00    -0.266 OA
ENDBRANCH   9  15
ENDBRANCH   2   5
BRANCH   1  20
HETATM   20  C   UNL     1      40.971 -16.114   4.300  1.00  0.00     0.107 C 
BRANCH  20  21
HETATM   21  C   UNL     1      42.213 -15.816   5.156  1.00  0.00    -0.006 C 
HETATM   22  C   UNL     1      42.013 -16.115   6.646  1.00  0.00     0.011 C 
BRANCH  21  23
HETATM   23  C   UNL     1      43.502 -16.454   4.583  1.00  0.00     0.046 C 
BRANCH  23  24
HETATM   24  C   UNL     1      43.529 -17.804   3.882  1.00  0.00    -0.024 A 
HETATM   25  C   UNL     1      43.827 -18.954   4.653  1.00  0.00     0.074 A 
HETATM   26  C   UNL     1      43.884 -20.219   4.052  1.00  0.00     0.037 A 
HETATM   27  C   UNL     1      43.622 -20.364   2.692  1.00  0.00     0.003 A 
HETATM   28  C   UNL     1      43.300 -19.251   1.928  1.00  0.00     0.001 A 
HETATM   29  C   UNL     1      43.250 -17.985   2.519  1.00  0.00     0.010 A 
BRANCH  25  30
HETATM   30  O   UNL     1      44.069 -18.735   5.987  1.00  0.00    -0.355 OA
HETATM   31  C   UNL     1      43.350 -19.537   6.916  1.00  0.00     0.210 C 
ENDBRANCH  25  30
ENDBRANCH  23  24
ENDBRANCH  21  23
ENDBRANCH  20  21
ENDBRANCH   1  20
TORSDOF 7
ENDMDL
MODEL 5
REMARK VINA RESULT:      -8.2      6.054      8.025
REMARK  7 active torsions:
REMARK  status: ('A' for Active; 'I' for Inactive)
REMARK    1  A    between atoms: C_2  and  C_3 
REMARK    2  A    between atoms: C_2  and  C_20 
REMARK    3  A    between atoms: C_3  and  C_4 
REMARK       I    between atoms: C_4  and  N_5 
REMARK    4  A    between atoms: N_5  and  C_6 
REMARK    5  A    between atoms: C_13  and  C_14 
REMARK       I    between atoms: C_14  and  N_15 
REMARK    6  A    between atoms: C_20  and  C_21 
REMARK    7  A    between atoms: C_22  and  O_23 
ROOT
HETATM    1  C   UNL     1      40.941 -14.864   1.021  1.00  0.00     0.222 C 
HETATM    2  N   UNL     1      39.861 -14.876   0.153  1.00  0.00    -0.327 N 
HETATM    3  O   UNL     1      41.814 -14.009   1.086  1.00  0.00    -0.273 OA
HETATM    4  H   UNL     1      39.263 -15.691   0.190  1.00  0.00     0.169 HD
ENDROOT
BRANCH   2   5
HETATM    5  C   UNL     1      39.470 -13.875  -0.760  1.00  0.00     0.035 A 
HETATM    6  C   UNL     1      39.057 -12.589  -0.385  1.00  0.00     0.046 A 
HETATM    7  C   UNL     1      38.663 -11.666  -1.380  1.00  0.00     0.030 A 
HETATM    8  C   UNL     1      38.693 -12.062  -2.712  1.00  0.00     0.063 A 
HETATM    9  C   UNL     1      38.198 -10.316  -1.409  1.00  0.00     0.156 A 
HETATM   10  N   UNL     1      38.259 -10.979  -3.423  1.00  0.00    -0.277 N 
HETATM   11  C   UNL     1      39.101 -13.332  -3.121  1.00  0.00     0.034 A 
HETATM   12  H   UNL     1      38.151 -10.909  -4.428  1.00  0.00     0.189 HD
HETATM   13  N   UNL     1      37.954  -9.907  -2.675  1.00  0.00    -0.168 NA
HETATM   14  C   UNL     1      39.490 -14.226  -2.118  1.00  0.00     0.032 A 
BRANCH   9  15
HETATM   15  C   UNL     1      37.985  -9.414  -0.267  1.00  0.00     0.270 C 
HETATM   16  N   UNL     1      39.136  -8.862   0.229  1.00  0.00    -0.365 N 
HETATM   17  H   UNL     1      40.017  -9.107  -0.205  1.00  0.00     0.159 HD
HETATM   18  H   UNL     1      39.089  -8.236   1.017  1.00  0.00     0.159 HD
HETATM   19  O   UNL     1      36.894  -9.154   0.225  1.00  0.00    -0.266 OA
ENDBRANCH   9  15
ENDBRANCH   2   5
BRANCH   1  20
HETATM   20  C   UNL     1      40.960 -16.101   1.914  1.00  0.00     0.107 C 
BRANCH  20  21
HETATM   21  C   UNL     1      41.689 -15.874   3.249  1.00  0.00    -0.006 C 
HETATM   22  C   UNL     1      40.853 -16.263   4.474  1.00  0.00     0.011 C 
BRANCH  21  23
HETATM   23  C   UNL     1      43.109 -16.492   3.269  1.00  0.00     0.046 C 
BRANCH  23  24
HETATM   24  C   UNL     1      43.370 -17.991   3.284  1.00  0.00    -0.024 A 
HETATM   25  C   UNL     1      43.918 -18.564   4.457  1.00  0.00     0.074 A 
HETATM   26  C   UNL     1      44.196 -19.936   4.515  1.00  0.00     0.037 A 
HETATM   27  C   UNL     1      43.913 -20.759   3.428  1.00  0.00     0.003 A 
HETATM   28  C   UNL     1      43.350 -20.217   2.281  1.00  0.00     0.001 A 
HETATM   29  C   UNL     1      43.078 -18.847   2.212  1.00  0.00     0.010 A 
BRANCH  25  30
HETATM   30  O   UNL     1      44.166 -17.694   5.491  1.00  0.00    -0.355 OA
HETATM   31  C   UNL     1      43.384 -17.849   6.669  1.00  0.00     0.210 C 
ENDBRANCH  25  30
ENDBRANCH  23  24
ENDBRANCH  21  23
ENDBRANCH  20  21
ENDBRANCH   1  20
TORSDOF 7
ENDMDL
MODEL 6
REMARK VINA RESULT:      -8.1      2.112      3.246
REMARK  7 active torsions:
REMARK  status: ('A' for Active; 'I' for Inactive)
REMARK    1  A    between atoms: C_2  and  C_3 
REMARK    2  A    between atoms: C_2  and  C_20 
REMARK    3  A    between atoms: C_3  and  C_4 
REMARK       I    between atoms: C_4  and  N_5 
REMARK    4  A    between atoms: N_5  and  C_6 
REMARK    5  A    between atoms: C_13  and  C_14 
REMARK       I    between atoms: C_14  and  N_15 
REMARK    6  A    between atoms: C_20  and  C_21 
REMARK    7  A    between atoms: C_22  and  O_23 
ROOT
HETATM    1  C   UNL     1      40.834 -14.946   3.435  1.00  0.00     0.222 C 
HETATM    2  N   UNL     1      41.542 -14.625   4.582  1.00  0.00    -0.327 N 
HETATM    3  O   UNL     1      40.073 -14.212   2.819  1.00  0.00    -0.273 OA
HETATM    4  H   UNL     1      42.083 -15.370   5.002  1.00  0.00     0.169 HD
ENDROOT
BRANCH   2   5
HETATM    5  C   UNL     1      41.629 -13.373   5.226  1.00  0.00     0.035 A 
HETATM    6  C   UNL     1      42.813 -12.847   5.761  1.00  0.00     0.046 A 
HETATM    7  C   UNL     1      42.786 -11.590   6.408  1.00  0.00     0.030 A 
HETATM    8  C   UNL     1      41.579 -10.908   6.499  1.00  0.00     0.063 A 
HETATM    9  C   UNL     1      43.736 -10.743   7.056  1.00  0.00     0.156 A 
HETATM   10  N   UNL     1      41.864  -9.752   7.170  1.00  0.00    -0.277 N 
HETATM   11  C   UNL     1      40.383 -11.400   5.976  1.00  0.00     0.034 A 
HETATM   12  H   UNL     1      41.217  -9.012   7.419  1.00  0.00     0.189 HD
HETATM   13  N   UNL     1      43.152  -9.615   7.520  1.00  0.00    -0.168 NA
HETATM   14  C   UNL     1      40.436 -12.645   5.337  1.00  0.00     0.032 A 
BRANCH   9  15
HETATM   15  C   UNL     1      45.176 -10.982   7.240  1.00  0.00     0.270 C 
HETATM   16  N   UNL     1      45.875 -11.097   6.069  1.00  0.00    -0.365 N 
HETATM   17  H   UNL     1      45.372 -11.017   5.194  1.00  0.00     0.159 HD
HETATM   18  H   UNL     1      46.867 -11.269   6.096  1.00  0.00     0.159 HD
HETATM   19  O   UNL     1      45.736 -11.076   8.325  1.00  0.00    -0.266 OA
ENDBRANCH   9  15
ENDBRANCH   2   5
BRANCH   1  20
HETATM   20  C   UNL     1      41.078 -16.391   3.008  1.00  0.00     0.107 C 
BRANCH  20  21
HETATM   21  C   UNL     1      42.305 -16.554   2.096  1.00  0.00    -0.006 C 
HETATM   22  C   UNL     1      42.580 -15.327   1.219  1.00  0.00     0.011 C 
BRANCH  21  23
HETATM   23  C   UNL     1      43.561 -17.039   2.862  1.00  0.00     0.046 C 
BRANCH  23  24
HETATM   24  C   UNL     1      43.695 -18.434   3.455  1.00  0.00    -0.024 A 
HETATM   25  C   UNL     1      43.861 -18.554   4.856  1.00  0.00     0.074 A 
HETATM   26  C   UNL     1      44.008 -19.814   5.450  1.00  0.00     0.037 A 
HETATM   27  C   UNL     1      43.968 -20.969   4.671  1.00  0.00     0.003 A 
HETATM   28  C   UNL     1      43.777 -20.869   3.300  1.00  0.00     0.001 A 
HETATM   29  C   UNL     1      43.638 -19.614   2.700  1.00  0.00     0.010 A 
BRANCH  25  30
HETATM   30  O   UNL     1      43.886 -17.374   5.560  1.00  0.00    -0.355 OA
HETATM   31  C   UNL     1      43.043 -17.285   6.703  1.00  0.00     0.210 C 
ENDBRANCH  25  30
ENDBRANCH  23  24
ENDBRANCH  21  23
ENDBRANCH  20  21
ENDBRANCH   1  20
TORSDOF 7
ENDMDL
MODEL 7
REMARK VINA RESULT:      -8.1      3.537      4.592
REMARK  7 active torsions:
REMARK  status: ('A' for Active; 'I' for Inactive)
REMARK    1  A    between atoms: C_2  and  C_3 
REMARK    2  A    between atoms: C_2  and  C_20 
REMARK    3  A    between atoms: C_3  and  C_4 
REMARK       I    between atoms: C_4  and  N_5 
REMARK    4  A    between atoms: N_5  and  C_6 
REMARK    5  A    between atoms: C_13  and  C_14 
REMARK       I    between atoms: C_14  and  N_15 
REMARK    6  A    between atoms: C_20  and  C_21 
REMARK    7  A    between atoms: C_22  and  O_23 
ROOT
HETATM    1  C   UNL     1      40.778 -14.738   3.442  1.00  0.00     0.222 C 
HETATM    2  N   UNL     1      40.068 -13.801   2.708  1.00  0.00    -0.327 N 
HETATM    3  O   UNL     1      41.151 -14.623   4.602  1.00  0.00    -0.273 OA
HETATM    4  H   UNL     1      39.890 -14.030   1.738  1.00  0.00     0.169 HD
ENDROOT
BRANCH   2   5
HETATM    5  C   UNL     1      39.532 -12.574   3.152  1.00  0.00     0.035 A 
HETATM    6  C   UNL     1      39.561 -12.143   4.485  1.00  0.00     0.046 A 
HETATM    7  C   UNL     1      38.974 -10.904   4.829  1.00  0.00     0.030 A 
HETATM    8  C   UNL     1      38.376 -10.145   3.830  1.00  0.00     0.063 A 
HETATM    9  C   UNL     1      38.802 -10.140   6.023  1.00  0.00     0.156 A 
HETATM   10  N   UNL     1      37.901  -9.028   4.458  1.00  0.00    -0.277 N 
HETATM   11  C   UNL     1      38.331 -10.542   2.493  1.00  0.00     0.034 A 
HETATM   12  H   UNL     1      37.403  -8.253   4.035  1.00  0.00     0.189 HD
HETATM   13  N   UNL     1      38.139  -8.987   5.778  1.00  0.00    -0.168 NA
HETATM   14  C   UNL     1      38.924 -11.770   2.178  1.00  0.00     0.032 A 
BRANCH   9  15
HETATM   15  C   UNL     1      39.253 -10.480   7.381  1.00  0.00     0.270 C 
HETATM   16  N   UNL     1      40.573 -10.201   7.615  1.00  0.00    -0.365 N 
HETATM   17  H   UNL     1      41.124  -9.801   6.867  1.00  0.00     0.159 HD
HETATM   18  H   UNL     1      40.973 -10.407   8.516  1.00  0.00     0.159 HD
HETATM   19  O   UNL     1      38.545 -10.970   8.251  1.00  0.00    -0.266 OA
ENDBRANCH   9  15
ENDBRANCH   2   5
BRANCH   1  20
HETATM   20  C   UNL     1      41.098 -15.979   2.615  1.00  0.00     0.107 C 
BRANCH  20  21
HETATM   21  C   UNL     1      42.575 -16.064   2.196  1.00  0.00    -0.006 C 
HETATM   22  C   UNL     1      43.153 -14.725   1.724  1.00  0.00     0.011 C 
BRANCH  21  23
HETATM   23  C   UNL     1      43.460 -16.757   3.262  1.00  0.00     0.046 C 
BRANCH  23  24
HETATM   24  C   UNL     1      43.608 -18.267   3.375  1.00  0.00    -0.024 A 
HETATM   25  C   UNL     1      44.001 -18.811   4.623  1.00  0.00     0.074 A 
HETATM   26  C   UNL     1      44.170 -20.193   4.775  1.00  0.00     0.037 A 
HETATM   27  C   UNL     1      43.928 -21.054   3.707  1.00  0.00     0.003 A 
HETATM   28  C   UNL     1      43.515 -20.539   2.486  1.00  0.00     0.001 A 
HETATM   29  C   UNL     1      43.352 -19.161   2.324  1.00  0.00     0.010 A 
BRANCH  25  30
HETATM   30  O   UNL     1      44.216 -17.903   5.631  1.00  0.00    -0.355 OA
HETATM   31  C   UNL     1      43.324 -17.942   6.738  1.00  0.00     0.210 C 
ENDBRANCH  25  30
ENDBRANCH  23  24
ENDBRANCH  21  23
ENDBRANCH  20  21
ENDBRANCH   1  20
TORSDOF 7
ENDMDL
MODEL 8
REMARK VINA RESULT:      -7.9      1.947      2.625
REMARK  7 active torsions:
REMARK  status: ('A' for Active; 'I' for Inactive)
REMARK    1  A    between atoms: C_2  and  C_3 
REMARK    2  A    between atoms: C_2  and  C_20 
REMARK    3  A    between atoms: C_3  and  C_4 
REMARK       I    between atoms: C_4  and  N_5 
REMARK    4  A    between atoms: N_5  and  C_6 
REMARK    5  A    between atoms: C_13  and  C_14 
REMARK       I    between atoms: C_14  and  N_15 
REMARK    6  A    between atoms: C_20  and  C_21 
REMARK    7  A    between atoms: C_22  and  O_23 
ROOT
HETATM    1  C   UNL     1      41.356 -12.536   5.192  1.00  0.00     0.222 C 
HETATM    2  N   UNL     1      42.130 -12.619   6.338  1.00  0.00    -0.327 N 
HETATM    3  O   UNL     1      41.416 -11.666   4.333  1.00  0.00    -0.273 OA
HETATM    4  H   UNL     1      41.910 -13.372   6.977  1.00  0.00     0.169 HD
ENDROOT
BRANCH   2   5
HETATM    5  C   UNL     1      43.215 -11.799   6.714  1.00  0.00     0.035 A 
HETATM    6  C   UNL     1      43.080 -10.593   7.415  1.00  0.00     0.046 A 
HETATM    7  C   UNL     1      44.233  -9.835   7.723  1.00  0.00     0.030 A 
HETATM    8  C   UNL     1      45.475 -10.306   7.315  1.00  0.00     0.063 A 
HETATM    9  C   UNL     1      44.509  -8.605   8.395  1.00  0.00     0.156 A 
HETATM   10  N   UNL     1      46.376  -9.372   7.743  1.00  0.00    -0.277 N 
HETATM   11  C   UNL     1      45.646 -11.502   6.618  1.00  0.00     0.034 A 
HETATM   12  H   UNL     1      47.382  -9.388   7.617  1.00  0.00     0.189 HD
HETATM   13  N   UNL     1      45.834  -8.334   8.399  1.00  0.00    -0.168 NA
HETATM   14  C   UNL     1      44.490 -12.238   6.329  1.00  0.00     0.032 A 
BRANCH   9  15
HETATM   15  C   UNL     1      43.547  -7.691   9.030  1.00  0.00     0.270 C 
HETATM   16  N   UNL     1      42.820  -6.945   8.142  1.00  0.00    -0.365 N 
HETATM   17  H   UNL     1      42.991  -7.066   7.151  1.00  0.00     0.159 HD
HETATM   18  H   UNL     1      42.141  -6.284   8.485  1.00  0.00     0.159 HD
HETATM   19  O   UNL     1      43.382  -7.577  10.237  1.00  0.00    -0.266 OA
ENDBRANCH   9  15
ENDBRANCH   2   5
BRANCH   1  20
HETATM   20  C   UNL     1      40.341 -13.672   5.114  1.00  0.00     0.107 C 
BRANCH  20  21
HETATM   21  C   UNL     1      40.904 -15.022   5.588  1.00  0.00    -0.006 C 
HETATM   22  C   UNL     1      40.072 -15.673   6.699  1.00  0.00     0.011 C 
BRANCH  21  23
HETATM   23  C   UNL     1      41.204 -15.990   4.417  1.00  0.00     0.046 C 
BRANCH  23  24
HETATM   24  C   UNL     1      42.354 -16.986   4.426  1.00  0.00    -0.024 A 
HETATM   25  C   UNL     1      42.939 -17.346   3.187  1.00  0.00     0.074 A 
HETATM   26  C   UNL     1      43.989 -18.273   3.138  1.00  0.00     0.037 A 
HETATM   27  C   UNL     1      44.487 -18.834   4.311  1.00  0.00     0.003 A 
HETATM   28  C   UNL     1      43.944 -18.470   5.536  1.00  0.00     0.001 A 
HETATM   29  C   UNL     1      42.891 -17.552   5.591  1.00  0.00     0.010 A 
BRANCH  25  30
HETATM   30  O   UNL     1      42.400 -16.749   2.073  1.00  0.00    -0.355 OA
HETATM   31  C   UNL     1      43.231 -15.844   1.357  1.00  0.00     0.210 C 
ENDBRANCH  25  30
ENDBRANCH  23  24
ENDBRANCH  21  23
ENDBRANCH  20  21
ENDBRANCH   1  20
TORSDOF 7
ENDMDL
MODEL 9
REMARK VINA RESULT:      -7.7      4.295      7.805
REMARK  7 active torsions:
REMARK  status: ('A' for Active; 'I' for Inactive)
REMARK    1  A    between atoms: C_2  and  C_3 
REMARK    2  A    between atoms: C_2  and  C_20 
REMARK    3  A    between atoms: C_3  and  C_4 
REMARK       I    between atoms: C_4  and  N_5 
REMARK    4  A    between atoms: N_5  and  C_6 
REMARK    5  A    between atoms: C_13  and  C_14 
REMARK       I    between atoms: C_14  and  N_15 
REMARK    6  A    between atoms: C_20  and  C_21 
REMARK    7  A    between atoms: C_22  and  O_23 
ROOT
HETATM    1  C   UNL     1      40.691 -14.898   0.919  1.00  0.00     0.222 C 
HETATM    2  N   UNL     1      41.920 -14.920   1.560  1.00  0.00    -0.327 N 
HETATM    3  O   UNL     1      39.831 -15.768   0.965  1.00  0.00    -0.273 OA
HETATM    4  H   UNL     1      42.542 -14.145   1.367  1.00  0.00     0.169 HD
ENDROOT
BRANCH   2   5
HETATM    5  C   UNL     1      42.404 -15.876   2.477  1.00  0.00     0.035 A 
HETATM    6  C   UNL     1      42.231 -15.790   3.865  1.00  0.00     0.046 A 
HETATM    7  C   UNL     1      42.778 -16.793   4.698  1.00  0.00     0.030 A 
HETATM    8  C   UNL     1      43.479 -17.841   4.115  1.00  0.00     0.063 A 
HETATM    9  C   UNL     1      42.819 -17.058   6.101  1.00  0.00     0.156 A 
HETATM   10  N   UNL     1      43.883 -18.630   5.154  1.00  0.00    -0.277 N 
HETATM   11  C   UNL     1      43.668 -17.960   2.738  1.00  0.00     0.034 A 
HETATM   12  H   UNL     1      44.424 -19.486   5.100  1.00  0.00     0.189 HD
HETATM   13  N   UNL     1      43.504 -18.194   6.365  1.00  0.00    -0.168 NA
HETATM   14  C   UNL     1      43.114 -16.957   1.934  1.00  0.00     0.032 A 
BRANCH   9  15
HETATM   15  C   UNL     1      42.225 -16.262   7.185  1.00  0.00     0.270 C 
HETATM   16  N   UNL     1      43.097 -15.961   8.196  1.00  0.00    -0.365 N 
HETATM   17  H   UNL     1      44.050 -16.297   8.131  1.00  0.00     0.159 HD
HETATM   18  H   UNL     1      42.777 -15.424   8.987  1.00  0.00     0.159 HD
HETATM   19  O   UNL     1      41.060 -15.885   7.219  1.00  0.00    -0.266 OA
ENDBRANCH   9  15
ENDBRANCH   2   5
BRANCH   1  20
HETATM   20  C   UNL     1      40.516 -13.638   0.078  1.00  0.00     0.107 C 
BRANCH  20  21
HETATM   21  C   UNL     1      40.353 -12.363   0.922  1.00  0.00    -0.006 C 
HETATM   22  C   UNL     1      40.300 -11.080   0.085  1.00  0.00     0.011 C 
BRANCH  21  23
HETATM   23  C   UNL     1      39.191 -12.464   1.941  1.00  0.00     0.046 C 
BRANCH  23  24
HETATM   24  C   UNL     1      39.349 -12.170   3.425  1.00  0.00    -0.024 A 
HETATM   25  C   UNL     1      38.911 -10.914   3.910  1.00  0.00     0.074 A 
HETATM   26  C   UNL     1      39.052 -10.586   5.265  1.00  0.00     0.037 A 
HETATM   27  C   UNL     1      39.601 -11.502   6.158  1.00  0.00     0.003 A 
HETATM   28  C   UNL     1      40.009 -12.749   5.703  1.00  0.00     0.001 A 
HETATM   29  C   UNL     1      39.880 -13.080   4.352  1.00  0.00     0.010 A 
BRANCH  25  30
HETATM   30  O   UNL     1      38.375 -10.063   2.973  1.00  0.00    -0.355 OA
HETATM   31  C   UNL     1      38.569  -8.669   3.179  1.00  0.00     0.210 C 
ENDBRANCH  25  30
ENDBRANCH  23  24
ENDBRANCH  21  23
ENDBRANCH  20  21
ENDBRANCH   1  20
TORSDOF 7
ENDMDL
MODEL 10
REMARK VINA RESULT:      -7.7      3.605      7.348
REMARK  7 active torsions:
REMARK  status: ('A' for Active; 'I' for Inactive)
REMARK    1  A    between atoms: C_2  and  C_3 
REMARK    2  A    between atoms: C_2  and  C_20 
REMARK    3  A    between atoms: C_3  and  C_4 
REMARK       I    between atoms: C_4  and  N_5 
REMARK    4  A    between atoms: N_5  and  C_6 
REMARK    5  A    between atoms: C_13  and  C_14 
REMARK       I    between atoms: C_14  and  N_15 
REMARK    6  A    between atoms: C_20  and  C_21 
REMARK    7  A    between atoms: C_22  and  O_23 
ROOT
HETATM    1  C   UNL     1      40.689 -15.050   0.865  1.00  0.00     0.222 C 
HETATM    2  N   UNL     1      41.985 -15.176   1.339  1.00  0.00    -0.327 N 
HETATM    3  O   UNL     1      39.731 -15.751   1.166  1.00  0.00    -0.273 OA
HETATM    4  H   UNL     1      42.673 -14.551   0.940  1.00  0.00     0.169 HD
ENDROOT
BRANCH   2   5
HETATM    5  C   UNL     1      42.463 -16.052   2.336  1.00  0.00     0.035 A 
HETATM    6  C   UNL     1      42.275 -15.853   3.710  1.00  0.00     0.046 A 
HETATM    7  C   UNL     1      42.817 -16.781   4.629  1.00  0.00     0.030 A 
HETATM    8  C   UNL     1      43.527 -17.871   4.140  1.00  0.00     0.063 A 
HETATM    9  C   UNL     1      42.844 -16.930   6.049  1.00  0.00     0.156 A 
HETATM   10  N   UNL     1      43.924 -18.570   5.246  1.00  0.00    -0.277 N 
HETATM   11  C   UNL     1      43.731 -18.102   2.780  1.00  0.00     0.034 A 
HETATM   12  H   UNL     1      44.468 -19.425   5.267  1.00  0.00     0.189 HD
HETATM   13  N   UNL     1      43.531 -18.038   6.413  1.00  0.00    -0.168 NA
HETATM   14  C   UNL     1      43.182 -17.171   1.891  1.00  0.00     0.032 A 
BRANCH   9  15
HETATM   15  C   UNL     1      42.236 -16.050   7.058  1.00  0.00     0.270 C 
HETATM   16  N   UNL     1      43.007 -15.869   8.175  1.00  0.00    -0.365 N 
HETATM   17  H   UNL     1      43.903 -16.338   8.227  1.00  0.00     0.159 HD
HETATM   18  H   UNL     1      42.669 -15.287   8.924  1.00  0.00     0.159 HD
HETATM   19  O   UNL     1      41.143 -15.510   6.948  1.00  0.00    -0.266 OA
ENDBRANCH   9  15
ENDBRANCH   2   5
BRANCH   1  20
HETATM   20  C   UNL     1      40.567 -13.917  -0.149  1.00  0.00     0.107 C 
BRANCH  20  21
HETATM   21  C   UNL     1      41.085 -12.570   0.381  1.00  0.00    -0.006 C 
HETATM   22  C   UNL     1      40.836 -11.401  -0.579  1.00  0.00     0.011 C 
BRANCH  21  23
HETATM   23  C   UNL     1      40.612 -12.273   1.825  1.00  0.00     0.046 C 
BRANCH  23  24
HETATM   24  C   UNL     1      41.560 -11.938   2.966  1.00  0.00    -0.024 A 
HETATM   25  C   UNL     1      41.003 -11.535   4.205  1.00  0.00     0.074 A 
HETATM   26  C   UNL     1      41.833 -11.197   5.282  1.00  0.00     0.037 A 
HETATM   27  C   UNL     1      43.218 -11.277   5.156  1.00  0.00     0.003 A 
HETATM   28  C   UNL     1      43.778 -11.698   3.958  1.00  0.00     0.001 A 
HETATM   29  C   UNL     1      42.957 -12.029   2.876  1.00  0.00     0.010 A 
BRANCH  25  30
HETATM   30  O   UNL     1      39.631 -11.484   4.257  1.00  0.00    -0.355 OA
HETATM   31  C   UNL     1      39.049 -10.932   5.431  1.00  0.00     0.210 C 
ENDBRANCH  25  30
ENDBRANCH  23  24
ENDBRANCH  21  23
ENDBRANCH  20  21
ENDBRANCH   1  20
TORSDOF 7
ENDMDL
