MODEL 1
REMARK VINA RESULT:      -9.0      0.000      0.000
REMARK  6 active torsions:
REMARK  status: ('A' for Active; 'I' for Inactive)
REMARK    1  A    between atoms: O_2  and  C_3 
REMARK    2  A    between atoms: C_3  and  C_4 
REMARK    3  A    between atoms: C_11  and  C_12 
REMARK    4  A    between atoms: C_12  and  S_13 
REMARK    5  A    between atoms: S_13  and  C_14 
REMARK    6  A    between atoms: C_16  and  C_17 
ROOT
HETATM    1  C   UNL     1      43.886 -12.656   6.344  1.00  0.00     0.041 A 
HETATM    2  C   UNL     1      43.050 -12.338   5.261  1.00  0.00     0.050 A 
HETATM    3  C   UNL     1      42.036 -13.214   4.865  1.00  0.00     0.075 A 
HETATM    4  C   UNL     1      41.868 -14.410   5.569  1.00  0.00     0.061 A 
HETATM    5  C   UNL     1      40.813 -15.326   5.107  1.00  0.00     0.259 A 
HETATM    6  O   UNL     1      40.598 -16.405   5.646  1.00  0.00    -0.267 OA
HETATM    7  N   UNL     1      40.094 -14.896   4.023  1.00  0.00    -0.310 N 
HETATM    8  C   UNL     1      40.340 -13.715   3.369  1.00  0.00     0.117 A 
HETATM    9  N   UNL     1      41.241 -12.868   3.758  1.00  0.00    -0.234 NA
HETATM   10  C   UNL     1      42.683 -14.741   6.653  1.00  0.00     0.020 A 
HETATM   11  C   UNL     1      43.695 -13.860   7.039  1.00  0.00     0.019 A 
HETATM   12  H   UNL     1      39.450 -15.571   3.635  1.00  0.00     0.170 HD
ENDROOT
BRANCH   8  13
HETATM   13  C   UNL     1      39.461 -13.439   2.166  1.00  0.00     0.161 C 
BRANCH  13  14
HETATM   14  S   UNL     1      40.169 -14.133   0.647  1.00  0.00    -0.083 SA
BRANCH  14  15
HETATM   15  C   UNL     1      41.484 -15.056   1.256  1.00  0.00     0.185 A 
HETATM   16  N   UNL     1      41.491 -16.285   1.704  1.00  0.00    -0.201 NA
HETATM   17  C   UNL     1      42.795 -16.449   2.143  1.00  0.00     0.182 A 
HETATM   18  N   UNL     1      43.580 -15.380   1.924  1.00  0.00    -0.152 NA
HETATM   19  N   UNL     1      42.721 -14.513   1.366  1.00  0.00    -0.253 N 
HETATM   20  H   UNL     1      43.030 -13.583   1.112  1.00  0.00     0.191 HD
BRANCH  17  21
HETATM   21  C   UNL     1      43.248 -17.663   2.820  1.00  0.00     0.013 A 
HETATM   22  C   UNL     1      43.243 -18.896   2.153  1.00  0.00     0.015 A 
HETATM   23  C   UNL     1      43.642 -20.064   2.808  1.00  0.00     0.001 A 
HETATM   24  C   UNL     1      44.058 -20.012   4.136  1.00  0.00     0.000 A 
HETATM   25  C   UNL     1      44.075 -18.794   4.811  1.00  0.00     0.001 A 
HETATM   26  C   UNL     1      43.671 -17.626   4.158  1.00  0.00     0.015 A 
ENDBRANCH  17  21
ENDBRANCH  14  15
ENDBRANCH  13  14
ENDBRANCH   8  13
BRANCH   1  27
HETATM   27  C   UNL     1      44.993 -11.764   6.783  1.00  0.00     0.293 C 
HETATM   28  O   UNL     1      45.810 -11.282   6.016  1.00  0.00    -0.259 OA
BRANCH  27  29
HETATM   29  O   UNL     1      44.954 -11.573   8.125  1.00  0.00    -0.323 OA
HETATM   30  C   UNL     1      44.134 -10.476   8.530  1.00  0.00     0.213 C 
ENDBRANCH  27  29
ENDBRANCH   1  27
TORSDOF 6
ENDMDL
MODEL 2
REMARK VINA RESULT:      -8.1      3.868      8.586
REMARK  6 active torsions:
REMARK  status: ('A' for Active; 'I' for Inactive)
REMARK    1  A    between atoms: O_2  and  C_3 
REMARK    2  A    between atoms: C_3  and  C_4 
REMARK    3  A    between atoms: C_11  and  C_12 
REMARK    4  A    between atoms: C_12  and  S_13 
REMARK    5  A    between atoms: S_13  and  C_14 
REMARK    6  A    between atoms: C_16  and  C_17 
ROOT
HETATM    1  C   UNL     1      43.442 -17.825   3.402  1.00  0.00     0.041 A 
HETATM    2  C   UNL     1      43.623 -16.883   4.427  1.00  0.00     0.050 A 
HETATM    3  C   UNL     1      43.080 -15.600   4.318  1.00  0.00     0.075 A 
HETATM    4  C   UNL     1      42.351 -15.274   3.171  1.00  0.00     0.061 A 
HETATM    5  C   UNL     1      41.820 -13.905   3.070  1.00  0.00     0.259 A 
HETATM    6  O   UNL     1      41.182 -13.519   2.098  1.00  0.00    -0.267 OA
HETATM    7  N   UNL     1      42.097 -13.088   4.134  1.00  0.00    -0.310 N 
HETATM    8  C   UNL     1      42.846 -13.477   5.215  1.00  0.00     0.117 A 
HETATM    9  N   UNL     1      43.310 -14.680   5.355  1.00  0.00    -0.234 NA
HETATM   10  C   UNL     1      42.153 -16.199   2.143  1.00  0.00     0.020 A 
HETATM   11  C   UNL     1      42.701 -17.477   2.262  1.00  0.00     0.019 A 
HETATM   12  H   UNL     1      41.834 -12.119   4.015  1.00  0.00     0.170 HD
ENDROOT
BRANCH   8  13
HETATM   13  C   UNL     1      43.076 -12.412   6.268  1.00  0.00     0.161 C 
BRANCH  13  14
HETATM   14  S   UNL     1      44.824 -11.939   6.372  1.00  0.00    -0.083 SA
BRANCH  14  15
HETATM   15  C   UNL     1      44.876 -11.094   7.867  1.00  0.00     0.185 A 
HETATM   16  N   UNL     1      43.994 -11.072   8.833  1.00  0.00    -0.201 NA
HETATM   17  C   UNL     1      44.529 -10.155   9.723  1.00  0.00     0.182 A 
HETATM   18  N   UNL     1      45.725  -9.669   9.347  1.00  0.00    -0.152 NA
HETATM   19  N   UNL     1      45.916 -10.278   8.167  1.00  0.00    -0.253 N 
HETATM   20  H   UNL     1      46.744 -10.080   7.620  1.00  0.00     0.191 HD
BRANCH  17  21
HETATM   21  C   UNL     1      43.825  -9.733  10.932  1.00  0.00     0.013 A 
HETATM   22  C   UNL     1      43.702  -8.373  11.249  1.00  0.00     0.015 A 
HETATM   23  C   UNL     1      43.061  -7.967  12.422  1.00  0.00     0.001 A 
HETATM   24  C   UNL     1      42.527  -8.916  13.289  1.00  0.00     0.000 A 
HETATM   25  C   UNL     1      42.634 -10.272  12.987  1.00  0.00     0.001 A 
HETATM   26  C   UNL     1      43.281 -10.678  11.815  1.00  0.00     0.015 A 
ENDBRANCH  17  21
ENDBRANCH  14  15
ENDBRANCH  13  14
ENDBRANCH   8  13
BRANCH   1  27
HETATM   27  C   UNL     1      44.023 -19.193   3.467  1.00  0.00     0.293 C 
HETATM   28  O   UNL     1      44.011 -19.972   2.528  1.00  0.00    -0.259 OA
BRANCH  27  29
HETATM   29  O   UNL     1      44.556 -19.432   4.690  1.00  0.00    -0.323 OA
HETATM   30  C   UNL     1      44.110 -20.650   5.289  1.00  0.00     0.213 C 
ENDBRANCH  27  29
ENDBRANCH   1  27
TORSDOF 6
ENDMDL
MODEL 3
REMARK VINA RESULT:      -8.0      4.689      9.570
REMARK  6 active torsions:
REMARK  status: ('A' for Active; 'I' for Inactive)
REMARK    1  A    between atoms: O_2  and  C_3 
REMARK    2  A    between atoms: C_3  and  C_4 
REMARK    3  A    between atoms: C_11  and  C_12 
REMARK    4  A    between atoms: C_12  and  S_13 
REMARK    5  A    between atoms: S_13  and  C_14 
REMARK    6  A    between atoms: C_16  and  C_17 
ROOT
HETATM    1  C   UNL     1      42.976 -16.733   4.489  1.00  0.00     0.041 A 
HETATM    2  C   UNL     1      43.711 -15.861   5.308  1.00  0.00     0.050 A 
HETATM    3  C   UNL     1      43.169 -14.637   5.711  1.00  0.00     0.075 A 
HETATM    4  C   UNL     1      41.881 -14.301   5.286  1.00  0.00     0.061 A 
HETATM    5  C   UNL     1      41.350 -12.992   5.699  1.00  0.00     0.259 A 
HETATM    6  O   UNL     1      40.239 -12.599   5.364  1.00  0.00    -0.267 OA
HETATM    7  N   UNL     1      42.188 -12.237   6.475  1.00  0.00    -0.310 N 
HETATM    8  C   UNL     1      43.455 -12.629   6.829  1.00  0.00     0.117 A 
HETATM    9  N   UNL     1      43.951 -13.783   6.508  1.00  0.00    -0.234 NA
HETATM   10  C   UNL     1      41.131 -15.158   4.477  1.00  0.00     0.020 A 
HETATM   11  C   UNL     1      41.683 -16.376   4.079  1.00  0.00     0.019 A 
HETATM   12  H   UNL     1      41.873 -11.295   6.663  1.00  0.00     0.170 HD
ENDROOT
BRANCH   8  13
HETATM   13  C   UNL     1      44.240 -11.632   7.656  1.00  0.00     0.161 C 
BRANCH  13  14
HETATM   14  S   UNL     1      43.308 -10.100   7.922  1.00  0.00    -0.083 SA
BRANCH  14  15
HETATM   15  C   UNL     1      43.161 -10.063   9.633  1.00  0.00     0.185 A 
HETATM   16  N   UNL     1      42.747  -9.092  10.405  1.00  0.00    -0.201 NA
HETATM   17  C   UNL     1      42.939  -9.601  11.679  1.00  0.00     0.182 A 
HETATM   18  N   UNL     1      43.404 -10.863  11.694  1.00  0.00    -0.152 NA
HETATM   19  N   UNL     1      43.539 -11.126  10.385  1.00  0.00    -0.253 N 
HETATM   20  H   UNL     1      43.907 -12.019  10.081  1.00  0.00     0.191 HD
BRANCH  17  21
HETATM   21  C   UNL     1      42.697  -8.811  12.884  1.00  0.00     0.013 A 
HETATM   22  C   UNL     1      43.446  -7.656  13.144  1.00  0.00     0.015 A 
HETATM   23  C   UNL     1      43.241  -6.918  14.313  1.00  0.00     0.001 A 
HETATM   24  C   UNL     1      42.278  -7.323  15.233  1.00  0.00     0.000 A 
HETATM   25  C   UNL     1      41.520  -8.466  14.988  1.00  0.00     0.001 A 
HETATM   26  C   UNL     1      41.728  -9.207  13.821  1.00  0.00     0.015 A 
ENDBRANCH  17  21
ENDBRANCH  14  15
ENDBRANCH  13  14
ENDBRANCH   8  13
BRANCH   1  27
HETATM   27  C   UNL     1      43.526 -18.033   4.017  1.00  0.00     0.293 C 
HETATM   28  O   UNL     1      44.258 -18.737   4.693  1.00  0.00    -0.259 OA
BRANCH  27  29
HETATM   29  O   UNL     1      43.097 -18.309   2.761  1.00  0.00    -0.323 OA
HETATM   30  C   UNL     1      43.502 -19.591   2.279  1.00  0.00     0.213 C 
ENDBRANCH  27  29
ENDBRANCH   1  27
TORSDOF 6
ENDMDL
MODEL 4
REMARK VINA RESULT:      -7.9      2.905      4.853
REMARK  6 active torsions:
REMARK  status: ('A' for Active; 'I' for Inactive)
REMARK    1  A    between atoms: O_2  and  C_3 
REMARK    2  A    between atoms: C_3  and  C_4 
REMARK    3  A    between atoms: C_11  and  C_12 
REMARK    4  A    between atoms: C_12  and  S_13 
REMARK    5  A    between atoms: S_13  and  C_14 
REMARK    6  A    between atoms: C_16  and  C_17 
ROOT
HETATM    1  C   UNL     1      43.443  -9.037  10.476  1.00  0.00     0.041 A 
HETATM    2  C   UNL     1      42.855  -9.499   9.287  1.00  0.00     0.050 A 
HETATM    3  C   UNL     1      43.641 -10.068   8.280  1.00  0.00     0.075 A 
HETATM    4  C   UNL     1      45.020 -10.170   8.482  1.00  0.00     0.061 A 
HETATM    5  C   UNL     1      45.824 -10.743   7.390  1.00  0.00     0.259 A 
HETATM    6  O   UNL     1      47.042 -10.859   7.463  1.00  0.00    -0.267 OA
HETATM    7  N   UNL     1      45.119 -11.126   6.280  1.00  0.00    -0.310 N 
HETATM    8  C   UNL     1      43.763 -10.967   6.149  1.00  0.00     0.117 A 
HETATM    9  N   UNL     1      43.015 -10.491   7.095  1.00  0.00    -0.234 NA
HETATM   10  C   UNL     1      45.623  -9.724   9.660  1.00  0.00     0.020 A 
HETATM   11  C   UNL     1      44.829  -9.156  10.658  1.00  0.00     0.019 A 
HETATM   12  H   UNL     1      45.680 -11.411   5.488  1.00  0.00     0.170 HD
ENDROOT
BRANCH   8  13
HETATM   13  C   UNL     1      43.176 -11.415   4.826  1.00  0.00     0.161 C 
BRANCH  13  14
HETATM   14  S   UNL     1      41.823 -12.599   5.060  1.00  0.00    -0.083 SA
BRANCH  14  15
HETATM   15  C   UNL     1      42.369 -13.950   4.150  1.00  0.00     0.185 A 
HETATM   16  N   UNL     1      42.382 -15.216   4.481  1.00  0.00    -0.201 NA
HETATM   17  C   UNL     1      43.017 -15.813   3.404  1.00  0.00     0.182 A 
HETATM   18  N   UNL     1      43.334 -14.955   2.417  1.00  0.00    -0.152 NA
HETATM   19  N   UNL     1      42.916 -13.784   2.921  1.00  0.00    -0.253 N 
HETATM   20  H   UNL     1      43.052 -12.928   2.399  1.00  0.00     0.191 HD
BRANCH  17  21
HETATM   21  C   UNL     1      43.342 -17.237   3.376  1.00  0.00     0.013 A 
HETATM   22  C   UNL     1      43.030 -18.020   2.256  1.00  0.00     0.015 A 
HETATM   23  C   UNL     1      43.308 -19.389   2.240  1.00  0.00     0.001 A 
HETATM   24  C   UNL     1      43.908 -19.991   3.342  1.00  0.00     0.000 A 
HETATM   25  C   UNL     1      44.231 -19.228   4.461  1.00  0.00     0.001 A 
HETATM   26  C   UNL     1      43.949 -17.858   4.479  1.00  0.00     0.015 A 
ENDBRANCH  17  21
ENDBRANCH  14  15
ENDBRANCH  13  14
ENDBRANCH   8  13
BRANCH   1  27
HETATM   27  C   UNL     1      42.647  -8.404  11.562  1.00  0.00     0.293 C 
HETATM   28  O   UNL     1      41.702  -7.660  11.355  1.00  0.00    -0.259 OA
BRANCH  27  29
HETATM   29  O   UNL     1      43.117  -8.770  12.780  1.00  0.00    -0.323 OA
HETATM   30  C   UNL     1      42.643  -7.957  13.853  1.00  0.00     0.213 C 
ENDBRANCH  27  29
ENDBRANCH   1  27
TORSDOF 6
ENDMDL
MODEL 5
REMARK VINA RESULT:      -7.9      2.607      6.267
REMARK  6 active torsions:
REMARK  status: ('A' for Active; 'I' for Inactive)
REMARK    1  A    between atoms: O_2  and  C_3 
REMARK    2  A    between atoms: C_3  and  C_4 
REMARK    3  A    between atoms: C_11  and  C_12 
REMARK    4  A    between atoms: C_12  and  S_13 
REMARK    5  A    between atoms: S_13  and  C_14 
REMARK    6  A    between atoms: C_16  and  C_17 
ROOT
HETATM    1  C   UNL     1      43.072 -16.932   3.985  1.00  0.00     0.041 A 
HETATM    2  C   UNL     1      42.417 -15.752   4.373  1.00  0.00     0.050 A 
HETATM    3  C   UNL     1      41.436 -15.182   3.557  1.00  0.00     0.075 A 
HETATM    4  C   UNL     1      41.117 -15.811   2.350  1.00  0.00     0.061 A 
HETATM    5  C   UNL     1      40.104 -15.169   1.497  1.00  0.00     0.259 A 
HETATM    6  O   UNL     1      39.768 -15.633   0.414  1.00  0.00    -0.267 OA
HETATM    7  N   UNL     1      39.569 -14.009   1.992  1.00  0.00    -0.310 N 
HETATM    8  C   UNL     1      39.956 -13.440   3.179  1.00  0.00     0.117 A 
HETATM    9  N   UNL     1      40.826 -13.985   3.972  1.00  0.00    -0.234 NA
HETATM   10  C   UNL     1      41.752 -16.989   1.950  1.00  0.00     0.020 A 
HETATM   11  C   UNL     1      42.731 -17.548   2.771  1.00  0.00     0.019 A 
HETATM   12  H   UNL     1      38.961 -13.508   1.359  1.00  0.00     0.170 HD
ENDROOT
BRANCH   8  13
HETATM   13  C   UNL     1      39.275 -12.133   3.530  1.00  0.00     0.161 C 
BRANCH  13  14
HETATM   14  S   UNL     1      40.252 -10.703   2.993  1.00  0.00    -0.083 SA
BRANCH  14  15
HETATM   15  C   UNL     1      41.728 -10.941   3.839  1.00  0.00     0.185 A 
HETATM   16  N   UNL     1      41.985 -10.776   5.111  1.00  0.00    -0.201 NA
HETATM   17  C   UNL     1      43.347 -11.020   5.188  1.00  0.00     0.182 A 
HETATM   18  N   UNL     1      43.901 -11.379   4.017  1.00  0.00    -0.152 NA
HETATM   19  N   UNL     1      42.853 -11.315   3.181  1.00  0.00    -0.253 N 
HETATM   20  H   UNL     1      42.975 -11.511   2.196  1.00  0.00     0.191 HD
BRANCH  17  21
HETATM   21  C   UNL     1      44.104 -10.857   6.428  1.00  0.00     0.013 A 
HETATM   22  C   UNL     1      43.455 -10.507   7.620  1.00  0.00     0.015 A 
HETATM   23  C   UNL     1      44.180 -10.316   8.799  1.00  0.00     0.001 A 
HETATM   24  C   UNL     1      45.563 -10.479   8.802  1.00  0.00     0.000 A 
HETATM   25  C   UNL     1      46.223 -10.833   7.627  1.00  0.00     0.001 A 
HETATM   26  C   UNL     1      45.498 -11.020   6.446  1.00  0.00     0.015 A 
ENDBRANCH  17  21
ENDBRANCH  14  15
ENDBRANCH  13  14
ENDBRANCH   8  13
BRANCH   1  27
HETATM   27  C   UNL     1      44.139 -17.558   4.811  1.00  0.00     0.293 C 
HETATM   28  O   UNL     1      44.602 -17.039   5.815  1.00  0.00    -0.259 OA
BRANCH  27  29
HETATM   29  O   UNL     1      44.505 -18.758   4.298  1.00  0.00    -0.323 OA
HETATM   30  C   UNL     1      44.169 -19.871   5.127  1.00  0.00     0.213 C 
ENDBRANCH  27  29
ENDBRANCH   1  27
TORSDOF 6
ENDMDL
MODEL 6
REMARK VINA RESULT:      -7.6      2.896      6.213
REMARK  6 active torsions:
REMARK  status: ('A' for Active; 'I' for Inactive)
REMARK    1  A    between atoms: O_2  and  C_3 
REMARK    2  A    between atoms: C_3  and  C_4 
REMARK    3  A    between atoms: C_11  and  C_12 
REMARK    4  A    between atoms: C_12  and  S_13 
REMARK    5  A    between atoms: S_13  and  C_14 
REMARK    6  A    between atoms: C_16  and  C_17 
ROOT
HETATM    1  C   UNL     1      43.303 -17.446   4.098  1.00  0.00     0.041 A 
HETATM    2  C   UNL     1      43.225 -16.050   3.964  1.00  0.00     0.050 A 
HETATM    3  C   UNL     1      43.188 -15.229   5.094  1.00  0.00     0.075 A 
HETATM    4  C   UNL     1      43.233 -15.823   6.358  1.00  0.00     0.061 A 
HETATM    5  C   UNL     1      43.159 -14.933   7.529  1.00  0.00     0.259 A 
HETATM    6  O   UNL     1      43.175 -15.358   8.678  1.00  0.00    -0.267 OA
HETATM    7  N   UNL     1      43.059 -13.597   7.245  1.00  0.00    -0.310 N 
HETATM    8  C   UNL     1      42.994 -13.093   5.971  1.00  0.00     0.117 A 
HETATM    9  N   UNL     1      43.082 -13.838   4.913  1.00  0.00    -0.234 NA
HETATM   10  C   UNL     1      43.318 -17.208   6.513  1.00  0.00     0.020 A 
HETATM   11  C   UNL     1      43.353 -18.019   5.378  1.00  0.00     0.019 A 
HETATM   12  H   UNL     1      42.893 -12.997   8.042  1.00  0.00     0.170 HD
ENDROOT
BRANCH   8  13
HETATM   13  C   UNL     1      42.843 -11.589   5.869  1.00  0.00     0.161 C 
BRANCH  13  14
HETATM   14  S   UNL     1      41.165 -11.117   5.369  1.00  0.00    -0.083 SA
BRANCH  14  15
HETATM   15  C   UNL     1      41.267 -11.198   3.656  1.00  0.00     0.185 A 
HETATM   16  N   UNL     1      40.636 -11.991   2.829  1.00  0.00    -0.201 NA
HETATM   17  C   UNL     1      41.190 -11.666   1.601  1.00  0.00     0.182 A 
HETATM   18  N   UNL     1      42.091 -10.669   1.659  1.00  0.00    -0.152 NA
HETATM   19  N   UNL     1      42.122 -10.398   2.973  1.00  0.00    -0.253 N 
HETATM   20  H   UNL     1      42.750  -9.689   3.331  1.00  0.00     0.191 HD
BRANCH  17  21
HETATM   21  C   UNL     1      40.847 -12.379   0.372  1.00  0.00     0.013 A 
HETATM   22  C   UNL     1      41.048 -11.782  -0.880  1.00  0.00     0.015 A 
HETATM   23  C   UNL     1      40.689 -12.447  -2.055  1.00  0.00     0.001 A 
HETATM   24  C   UNL     1      40.131 -13.721  -1.993  1.00  0.00     0.000 A 
HETATM   25  C   UNL     1      39.930 -14.332  -0.757  1.00  0.00     0.001 A 
HETATM   26  C   UNL     1      40.285 -13.664   0.419  1.00  0.00     0.015 A 
ENDBRANCH  17  21
ENDBRANCH  14  15
ENDBRANCH  13  14
ENDBRANCH   8  13
BRANCH   1  27
HETATM   27  C   UNL     1      43.320 -18.358   2.923  1.00  0.00     0.293 C 
HETATM   28  O   UNL     1      42.721 -18.126   1.885  1.00  0.00    -0.259 OA
BRANCH  27  29
HETATM   29  O   UNL     1      44.081 -19.451   3.172  1.00  0.00    -0.323 OA
HETATM   30  C   UNL     1      43.877 -20.523   2.251  1.00  0.00     0.213 C 
ENDBRANCH  27  29
ENDBRANCH   1  27
TORSDOF 6
ENDMDL
MODEL 7
REMARK VINA RESULT:      -7.5      5.458      7.375
REMARK  6 active torsions:
REMARK  status: ('A' for Active; 'I' for Inactive)
REMARK    1  A    between atoms: O_2  and  C_3 
REMARK    2  A    between atoms: C_3  and  C_4 
REMARK    3  A    between atoms: C_11  and  C_12 
REMARK    4  A    between atoms: C_12  and  S_13 
REMARK    5  A    between atoms: S_13  and  C_14 
REMARK    6  A    between atoms: C_16  and  C_17 
ROOT
HETATM    1  C   UNL     1      40.411  -9.261  -3.073  1.00  0.00     0.041 A 
HETATM    2  C   UNL     1      40.773 -10.415  -2.359  1.00  0.00     0.050 A 
HETATM    3  C   UNL     1      39.854 -11.452  -2.172  1.00  0.00     0.075 A 
HETATM    4  C   UNL     1      38.572 -11.320  -2.712  1.00  0.00     0.061 A 
HETATM    5  C   UNL     1      37.618 -12.414  -2.471  1.00  0.00     0.259 A 
HETATM    6  O   UNL     1      36.467 -12.384  -2.888  1.00  0.00    -0.267 OA
HETATM    7  N   UNL     1      38.102 -13.464  -1.736  1.00  0.00    -0.310 N 
HETATM    8  C   UNL     1      39.371 -13.506  -1.216  1.00  0.00     0.117 A 
HETATM    9  N   UNL     1      40.250 -12.576  -1.427  1.00  0.00    -0.234 NA
HETATM   10  C   UNL     1      38.195 -10.184  -3.432  1.00  0.00     0.020 A 
HETATM   11  C   UNL     1      39.120  -9.153  -3.611  1.00  0.00     0.019 A 
HETATM   12  H   UNL     1      37.418 -14.160  -1.472  1.00  0.00     0.170 HD
ENDROOT
BRANCH   8  13
HETATM   13  C   UNL     1      39.701 -14.736  -0.396  1.00  0.00     0.161 C 
BRANCH  13  14
HETATM   14  S   UNL     1      40.206 -14.301   1.291  1.00  0.00    -0.083 SA
BRANCH  14  15
HETATM   15  C   UNL     1      41.488 -15.409   1.576  1.00  0.00     0.185 A 
HETATM   16  N   UNL     1      41.464 -16.550   2.215  1.00  0.00    -0.201 NA
HETATM   17  C   UNL     1      42.793 -16.941   2.207  1.00  0.00     0.182 A 
HETATM   18  N   UNL     1      43.601 -16.099   1.539  1.00  0.00    -0.152 NA
HETATM   19  N   UNL     1      42.747 -15.137   1.156  1.00  0.00    -0.253 N 
HETATM   20  H   UNL     1      43.084 -14.332   0.644  1.00  0.00     0.191 HD
BRANCH  17  21
HETATM   21  C   UNL     1      43.264 -18.137   2.903  1.00  0.00     0.013 A 
HETATM   22  C   UNL     1      43.297 -19.376   2.248  1.00  0.00     0.015 A 
HETATM   23  C   UNL     1      43.714 -20.528   2.921  1.00  0.00     0.001 A 
HETATM   24  C   UNL     1      44.108 -20.454   4.254  1.00  0.00     0.000 A 
HETATM   25  C   UNL     1      44.087 -19.229   4.917  1.00  0.00     0.001 A 
HETATM   26  C   UNL     1      43.666 -18.077   4.246  1.00  0.00     0.015 A 
ENDBRANCH  17  21
ENDBRANCH  14  15
ENDBRANCH  13  14
ENDBRANCH   8  13
BRANCH   1  27
HETATM   27  C   UNL     1      41.349  -8.123  -3.273  1.00  0.00     0.293 C 
HETATM   28  O   UNL     1      42.346  -7.948  -2.592  1.00  0.00    -0.259 OA
BRANCH  27  29
HETATM   29  O   UNL     1      40.940  -7.337  -4.299  1.00  0.00    -0.323 OA
HETATM   30  C   UNL     1      42.007  -6.695  -4.999  1.00  0.00     0.213 C 
ENDBRANCH  27  29
ENDBRANCH   1  27
TORSDOF 6
ENDMDL
MODEL 8
REMARK VINA RESULT:      -7.5      3.590      5.572
REMARK  6 active torsions:
REMARK  status: ('A' for Active; 'I' for Inactive)
REMARK    1  A    between atoms: O_2  and  C_3 
REMARK    2  A    between atoms: C_3  and  C_4 
REMARK    3  A    between atoms: C_11  and  C_12 
REMARK    4  A    between atoms: C_12  and  S_13 
REMARK    5  A    between atoms: S_13  and  C_14 
REMARK    6  A    between atoms: C_16  and  C_17 
ROOT
HETATM    1  C   UNL     1      42.296  -8.105  11.006  1.00  0.00     0.041 A 
HETATM    2  C   UNL     1      41.807  -8.527   9.759  1.00  0.00     0.050 A 
HETATM    3  C   UNL     1      42.574  -9.361   8.940  1.00  0.00     0.075 A 
HETATM    4  C   UNL     1      43.833  -9.769   9.388  1.00  0.00     0.061 A 
HETATM    5  C   UNL     1      44.630 -10.620   8.489  1.00  0.00     0.259 A 
HETATM    6  O   UNL     1      45.751 -11.016   8.784  1.00  0.00    -0.267 OA
HETATM    7  N   UNL     1      44.035 -10.931   7.295  1.00  0.00    -0.310 N 
HETATM    8  C   UNL     1      42.801 -10.467   6.918  1.00  0.00     0.117 A 
HETATM    9  N   UNL     1      42.056  -9.737   7.688  1.00  0.00    -0.234 NA
HETATM   10  C   UNL     1      44.334  -9.366  10.628  1.00  0.00     0.020 A 
HETATM   11  C   UNL     1      43.561  -8.532  11.436  1.00  0.00     0.019 A 
HETATM   12  H   UNL     1      44.624 -11.417   6.632  1.00  0.00     0.170 HD
ENDROOT
BRANCH   8  13
HETATM   13  C   UNL     1      42.337 -10.890   5.538  1.00  0.00     0.161 C 
BRANCH  13  14
HETATM   14  S   UNL     1      40.960 -12.066   5.627  1.00  0.00    -0.083 SA
BRANCH  14  15
HETATM   15  C   UNL     1      41.780 -13.577   5.607  1.00  0.00     0.185 A 
HETATM   16  N   UNL     1      42.146 -14.303   4.583  1.00  0.00    -0.201 NA
HETATM   17  C   UNL     1      42.668 -15.440   5.177  1.00  0.00     0.182 A 
HETATM   18  N   UNL     1      42.675 -15.395   6.521  1.00  0.00    -0.152 NA
HETATM   19  N   UNL     1      42.102 -14.206   6.763  1.00  0.00    -0.253 N 
HETATM   20  H   UNL     1      41.944 -13.903   7.716  1.00  0.00     0.191 HD
BRANCH  17  21
HETATM   21  C   UNL     1      43.123 -16.592   4.401  1.00  0.00     0.013 A 
HETATM   22  C   UNL     1      42.664 -16.799   3.093  1.00  0.00     0.015 A 
HETATM   23  C   UNL     1      43.070 -17.917   2.361  1.00  0.00     0.001 A 
HETATM   24  C   UNL     1      43.947 -18.840   2.926  1.00  0.00     0.000 A 
HETATM   25  C   UNL     1      44.418 -18.647   4.223  1.00  0.00     0.001 A 
HETATM   26  C   UNL     1      44.008 -17.529   4.957  1.00  0.00     0.015 A 
ENDBRANCH  17  21
ENDBRANCH  14  15
ENDBRANCH  13  14
ENDBRANCH   8  13
BRANCH   1  27
HETATM   27  C   UNL     1      41.524  -7.198  11.897  1.00  0.00     0.293 C 
HETATM   28  O   UNL     1      41.180  -6.072  11.573  1.00  0.00    -0.259 OA
BRANCH  27  29
HETATM   29  O   UNL     1      41.265  -7.795  13.086  1.00  0.00    -0.323 OA
HETATM   30  C   UNL     1      39.885  -7.789  13.450  1.00  0.00     0.213 C 
ENDBRANCH  27  29
ENDBRANCH   1  27
TORSDOF 6
ENDMDL
MODEL 9
REMARK VINA RESULT:      -7.5      3.558      5.449
REMARK  6 active torsions:
REMARK  status: ('A' for Active; 'I' for Inactive)
REMARK    1  A    between atoms: O_2  and  C_3 
REMARK    2  A    between atoms: C_3  and  C_4 
REMARK    3  A    between atoms: C_11  and  C_12 
REMARK    4  A    between atoms: C_12  and  S_13 
REMARK    5  A    between atoms: S_13  and  C_14 
REMARK    6  A    between atoms: C_16  and  C_17 
ROOT
HETATM    1  C   UNL     1      40.578 -12.424   0.129  1.00  0.00     0.041 A 
HETATM    2  C   UNL     1      40.956 -12.080   1.436  1.00  0.00     0.050 A 
HETATM    3  C   UNL     1      41.121 -13.069   2.411  1.00  0.00     0.075 A 
HETATM    4  C   UNL     1      40.906 -14.404   2.058  1.00  0.00     0.061 A 
HETATM    5  C   UNL     1      41.055 -15.418   3.114  1.00  0.00     0.259 A 
HETATM    6  O   UNL     1      40.872 -16.611   2.908  1.00  0.00    -0.267 OA
HETATM    7  N   UNL     1      41.403 -14.934   4.347  1.00  0.00    -0.310 N 
HETATM    8  C   UNL     1      41.571 -13.600   4.620  1.00  0.00     0.117 A 
HETATM    9  N   UNL     1      41.474 -12.677   3.715  1.00  0.00    -0.234 NA
HETATM   10  C   UNL     1      40.536 -14.766   0.761  1.00  0.00     0.020 A 
HETATM   11  C   UNL     1      40.372 -13.771  -0.204  1.00  0.00     0.019 A 
HETATM   12  H   UNL     1      41.393 -15.613   5.097  1.00  0.00     0.170 HD
ENDROOT
BRANCH   8  13
HETATM   13  C   UNL     1      41.913 -13.265   6.058  1.00  0.00     0.161 C 
BRANCH  13  14
HETATM   14  S   UNL     1      43.647 -13.637   6.437  1.00  0.00    -0.083 SA
BRANCH  14  15
HETATM   15  C   UNL     1      43.669 -15.353   6.357  1.00  0.00     0.185 A 
HETATM   16  N   UNL     1      43.942 -16.127   5.339  1.00  0.00    -0.201 NA
HETATM   17  C   UNL     1      43.706 -17.397   5.840  1.00  0.00     0.182 A 
HETATM   18  N   UNL     1      43.354 -17.411   7.138  1.00  0.00    -0.152 NA
HETATM   19  N   UNL     1      43.335 -16.103   7.436  1.00  0.00    -0.253 N 
HETATM   20  H   UNL     1      43.069 -15.796   8.363  1.00  0.00     0.191 HD
BRANCH  17  21
HETATM   21  C   UNL     1      43.793 -18.597   5.010  1.00  0.00     0.013 A 
HETATM   22  C   UNL     1      43.769 -18.501   3.612  1.00  0.00     0.015 A 
HETATM   23  C   UNL     1      43.817 -19.649   2.816  1.00  0.00     0.001 A 
HETATM   24  C   UNL     1      43.897 -20.906   3.409  1.00  0.00     0.000 A 
HETATM   25  C   UNL     1      43.928 -21.019   4.797  1.00  0.00     0.001 A 
HETATM   26  C   UNL     1      43.875 -19.871   5.594  1.00  0.00     0.015 A 
ENDBRANCH  17  21
ENDBRANCH  14  15
ENDBRANCH  13  14
ENDBRANCH   8  13
BRANCH   1  27
HETATM   27  C   UNL     1      40.367 -11.402  -0.932  1.00  0.00     0.293 C 
HETATM   28  O   UNL     1      39.287 -11.200  -1.464  1.00  0.00    -0.259 OA
BRANCH  27  29
HETATM   29  O   UNL     1      41.522 -10.747  -1.207  1.00  0.00    -0.323 OA
HETATM   30  C   UNL     1      41.340  -9.527  -1.926  1.00  0.00     0.213 C 
ENDBRANCH  27  29
ENDBRANCH   1  27
TORSDOF 6
ENDMDL
MODEL 10
REMARK VINA RESULT:      -7.2      4.889      6.861
REMARK  6 active torsions:
REMARK  status: ('A' for Active; 'I' for Inactive)
REMARK    1  A    between atoms: O_2  and  C_3 
REMARK    2  A    between atoms: C_3  and  C_4 
REMARK    3  A    between atoms: C_11  and  C_12 
REMARK    4  A    between atoms: C_12  and  S_13 
REMARK    5  A    between atoms: S_13  and  C_14 
REMARK    6  A    between atoms: C_16  and  C_17 
ROOT
HETATM    1  C   UNL     1      39.183  -9.683  -2.294  1.00  0.00     0.041 A 
HETATM    2  C   UNL     1      39.460 -10.044  -0.966  1.00  0.00     0.050 A 
HETATM    3  C   UNL     1      39.489 -11.389  -0.586  1.00  0.00     0.075 A 
HETATM    4  C   UNL     1      39.241 -12.366  -1.554  1.00  0.00     0.061 A 
HETATM    5  C   UNL     1      39.246 -13.771  -1.115  1.00  0.00     0.259 A 
HETATM    6  O   UNL     1      39.023 -14.698  -1.884  1.00  0.00    -0.267 OA
HETATM    7  N   UNL     1      39.506 -13.970   0.214  1.00  0.00    -0.310 N 
HETATM    8  C   UNL     1      39.715 -12.951   1.109  1.00  0.00     0.117 A 
HETATM    9  N   UNL     1      39.744 -11.703   0.761  1.00  0.00    -0.234 NA
HETATM   10  C   UNL     1      38.970 -12.028  -2.881  1.00  0.00     0.020 A 
HETATM   11  C   UNL     1      38.942 -10.682  -3.249  1.00  0.00     0.019 A 
HETATM   12  H   UNL     1      39.397 -14.922   0.539  1.00  0.00     0.170 HD
ENDROOT
BRANCH   8  13
HETATM   13  C   UNL     1      39.944 -13.378   2.545  1.00  0.00     0.161 C 
BRANCH  13  14
HETATM   14  S   UNL     1      41.680 -13.183   3.032  1.00  0.00    -0.083 SA
BRANCH  14  15
HETATM   15  C   UNL     1      42.335 -14.723   2.642  1.00  0.00     0.185 A 
HETATM   16  N   UNL     1      42.278 -15.839   3.322  1.00  0.00    -0.201 NA
HETATM   17  C   UNL     1      43.057 -16.703   2.569  1.00  0.00     0.182 A 
HETATM   18  N   UNL     1      43.533 -16.157   1.436  1.00  0.00    -0.152 NA
HETATM   19  N   UNL     1      43.064 -14.902   1.513  1.00  0.00    -0.253 N 
HETATM   20  H   UNL     1      43.291 -14.229   0.792  1.00  0.00     0.191 HD
BRANCH  17  21
HETATM   21  C   UNL     1      43.360 -18.066   3.003  1.00  0.00     0.013 A 
HETATM   22  C   UNL     1      43.851 -18.312   4.293  1.00  0.00     0.015 A 
HETATM   23  C   UNL     1      44.174 -19.609   4.698  1.00  0.00     0.001 A 
HETATM   24  C   UNL     1      44.005 -20.677   3.821  1.00  0.00     0.000 A 
HETATM   25  C   UNL     1      43.513 -20.451   2.537  1.00  0.00     0.001 A 
HETATM   26  C   UNL     1      43.193 -19.152   2.130  1.00  0.00     0.015 A 
ENDBRANCH  17  21
ENDBRANCH  14  15
ENDBRANCH  13  14
ENDBRANCH   8  13
BRANCH   1  27
HETATM   27  C   UNL     1      39.117  -8.264  -2.736  1.00  0.00     0.293 C 
HETATM   28  O   UNL     1      38.091  -7.728  -3.122  1.00  0.00    -0.259 OA
BRANCH  27  29
HETATM   29  O   UNL     1      40.334  -7.674  -2.643  1.00  0.00    -0.323 OA
HETATM   30  C   UNL     1      40.658  -6.833  -3.751  1.00  0.00     0.213 C 
ENDBRANCH  27  29
ENDBRANCH   1  27
TORSDOF 6
ENDMDL
