MODEL 1
REMARK VINA RESULT:      -9.0      0.000      0.000
REMARK  5 active torsions:
REMARK  status: ('A' for Active; 'I' for Inactive)
REMARK    1  A    between atoms: O_2  and  C_3 
REMARK    2  A    between atoms: C_6  and  C_7 
REMARK    3  A    between atoms: C_11  and  N_12 
REMARK       I    between atoms: N_15  and  C_16 
REMARK    4  A    between atoms: C_16  and  C_17 
REMARK    5  A    between atoms: C_17  and  C_18 
ROOT
HETATM    1  N   UNL     1      42.950 -10.352   7.015  1.00  0.00    -0.363 N 
HETATM    2  C   UNL     1      44.010 -11.041   6.241  1.00  0.00     0.144 C 
HETATM    3  C   UNL     1      43.640 -12.517   5.963  1.00  0.00     0.145 C 
HETATM    4  N   UNL     1      42.298 -12.615   5.367  1.00  0.00    -0.349 N 
HETATM    5  C   UNL     1      42.053 -12.722   4.004  1.00  0.00     0.224 C 
HETATM    6  O   UNL     1      40.974 -12.376   3.512  1.00  0.00    -0.273 OA
HETATM    7  C   UNL     1      41.264 -11.982   6.197  1.00  0.00     0.145 C 
HETATM    8  C   UNL     1      41.596 -10.492   6.417  1.00  0.00     0.144 C 
ENDROOT
BRANCH   1   9
HETATM    9  C   UNL     1      43.078 -10.209   8.367  1.00  0.00     0.122 A 
HETATM   10  N   UNL     1      43.917 -11.006   9.103  1.00  0.00    -0.262 N 
HETATM   11  N   UNL     1      43.885 -10.776  10.424  1.00  0.00    -0.173 NA
HETATM   12  H   UNL     1      44.503 -11.756   8.760  1.00  0.00     0.191 HD
HETATM   13  C   UNL     1      42.980  -9.796  10.566  1.00  0.00     0.090 A 
HETATM   14  C   UNL     1      42.445  -9.421   9.300  1.00  0.00     0.084 A 
BRANCH  13  15
HETATM   15  C   UNL     1      42.624  -9.266  11.879  1.00  0.00    -0.005 A 
HETATM   16  C   UNL     1      41.548  -9.793  12.601  1.00  0.00     0.016 A 
HETATM   17  C   UNL     1      41.239  -9.293  13.870  1.00  0.00     0.037 A 
HETATM   18  C   UNL     1      42.004  -8.275  14.443  1.00  0.00     0.068 A 
HETATM   19  C   UNL     1      43.066  -7.732  13.721  1.00  0.00     0.037 A 
HETATM   20  C   UNL     1      43.370  -8.223  12.444  1.00  0.00     0.016 A 
BRANCH  18  21
HETATM   21  O   UNL     1      41.609  -7.894  15.696  1.00  0.00    -0.356 OA
HETATM   22  C   UNL     1      40.604  -6.889  15.767  1.00  0.00     0.210 C 
ENDBRANCH  18  21
ENDBRANCH  13  15
ENDBRANCH   1   9
BRANCH   5  23
HETATM   23  C   UNL     1      43.141 -13.292   3.107  1.00  0.00     0.141 C 
BRANCH  23  24
HETATM   24  C   UNL     1      43.126 -14.797   2.946  1.00  0.00    -0.049 A 
HETATM   25  C   UNL     1      43.153 -15.671   4.044  1.00  0.00     0.009 A 
HETATM   26  C   UNL     1      43.174 -17.055   3.854  1.00  0.00     0.019 A 
HETATM   27  C   UNL     1      43.196 -17.577   2.565  1.00  0.00     0.011 A 
HETATM   28 BR   UNL     1      43.239 -19.449   2.310  1.00  0.00    -0.051 Br
HETATM   29  C   UNL     1      43.200 -16.727   1.462  1.00  0.00     0.019 A 
HETATM   30  C   UNL     1      43.169 -15.344   1.653  1.00  0.00     0.009 A 
ENDBRANCH  23  24
ENDBRANCH   5  23
TORSDOF 5
ENDMDL
MODEL 2
REMARK VINA RESULT:      -9.0      4.288     10.764
REMARK  5 active torsions:
REMARK  status: ('A' for Active; 'I' for Inactive)
REMARK    1  A    between atoms: O_2  and  C_3 
REMARK    2  A    between atoms: C_6  and  C_7 
REMARK    3  A    between atoms: C_11  and  N_12 
REMARK       I    between atoms: N_15  and  C_16 
REMARK    4  A    between atoms: C_16  and  C_17 
REMARK    5  A    between atoms: C_17  and  C_18 
ROOT
HETATM    1  N   UNL     1      43.624 -11.628   6.211  1.00  0.00    -0.363 N 
HETATM    2  C   UNL     1      42.556 -10.752   6.749  1.00  0.00     0.144 C 
HETATM    3  C   UNL     1      42.798 -10.414   8.238  1.00  0.00     0.145 C 
HETATM    4  N   UNL     1      44.161  -9.897   8.441  1.00  0.00    -0.349 N 
HETATM    5  C   UNL     1      44.485  -8.547   8.503  1.00  0.00     0.224 C 
HETATM    6  O   UNL     1      45.624  -8.144   8.243  1.00  0.00    -0.273 OA
HETATM    7  C   UNL     1      45.193 -10.824   7.959  1.00  0.00     0.145 C 
HETATM    8  C   UNL     1      44.995 -11.107   6.456  1.00  0.00     0.144 C 
ENDROOT
BRANCH   1   9
HETATM    9  C   UNL     1      43.420 -12.975   6.125  1.00  0.00     0.122 A 
HETATM   10  N   UNL     1      42.867 -13.691   7.155  1.00  0.00    -0.262 N 
HETATM   11  N   UNL     1      42.786 -15.012   6.935  1.00  0.00    -0.173 NA
HETATM   12  H   UNL     1      42.567 -13.335   8.054  1.00  0.00     0.191 HD
HETATM   13  C   UNL     1      43.318 -15.175   5.714  1.00  0.00     0.090 A 
HETATM   14  C   UNL     1      43.736 -13.923   5.178  1.00  0.00     0.084 A 
BRANCH  13  15
HETATM   15  C   UNL     1      43.446 -16.495   5.104  1.00  0.00    -0.005 A 
HETATM   16  C   UNL     1      43.237 -16.679   3.733  1.00  0.00     0.016 A 
HETATM   17  C   UNL     1      43.392 -17.946   3.161  1.00  0.00     0.037 A 
HETATM   18  C   UNL     1      43.771 -19.041   3.940  1.00  0.00     0.068 A 
HETATM   19  C   UNL     1      43.962 -18.869   5.311  1.00  0.00     0.037 A 
HETATM   20  C   UNL     1      43.796 -17.603   5.889  1.00  0.00     0.016 A 
BRANCH  18  21
HETATM   21  O   UNL     1      43.909 -20.216   3.254  1.00  0.00    -0.356 OA
HETATM   22  C   UNL     1      43.436 -20.226   1.912  1.00  0.00     0.210 C 
ENDBRANCH  18  21
ENDBRANCH  13  15
ENDBRANCH   1   9
BRANCH   5  23
HETATM   23  C   UNL     1      43.409  -7.554   8.914  1.00  0.00     0.141 C 
BRANCH  23  24
HETATM   24  C   UNL     1      43.181  -7.424  10.405  1.00  0.00    -0.049 A 
HETATM   25  C   UNL     1      43.580  -8.416  11.315  1.00  0.00     0.009 A 
HETATM   26  C   UNL     1      43.320  -8.277  12.681  1.00  0.00     0.019 A 
HETATM   27  C   UNL     1      42.635  -7.159  13.145  1.00  0.00     0.011 A 
HETATM   28 BR   UNL     1      42.272  -6.980  14.991  1.00  0.00    -0.051 Br
HETATM   29  C   UNL     1      42.204  -6.179  12.256  1.00  0.00     0.019 A 
HETATM   30  C   UNL     1      42.474  -6.314  10.892  1.00  0.00     0.009 A 
ENDBRANCH  23  24
ENDBRANCH   5  23
TORSDOF 5
ENDMDL
MODEL 3
REMARK VINA RESULT:      -8.7      1.885      2.545
REMARK  5 active torsions:
REMARK  status: ('A' for Active; 'I' for Inactive)
REMARK    1  A    between atoms: O_2  and  C_3 
REMARK    2  A    between atoms: C_6  and  C_7 
REMARK    3  A    between atoms: C_11  and  N_12 
REMARK       I    between atoms: N_15  and  C_16 
REMARK    4  A    between atoms: C_16  and  C_17 
REMARK    5  A    between atoms: C_17  and  C_18 
ROOT
HETATM    1  N   UNL     1      44.528 -12.011   6.914  1.00  0.00    -0.363 N 
HETATM    2  C   UNL     1      43.476 -13.054   6.963  1.00  0.00     0.144 C 
HETATM    3  C   UNL     1      42.308 -12.725   6.005  1.00  0.00     0.145 C 
HETATM    4  N   UNL     1      42.808 -12.436   4.651  1.00  0.00    -0.349 N 
HETATM    5  C   UNL     1      42.855 -13.366   3.620  1.00  0.00     0.224 C 
HETATM    6  O   UNL     1      43.642 -13.243   2.675  1.00  0.00    -0.273 OA
HETATM    7  C   UNL     1      43.795 -11.349   4.635  1.00  0.00     0.145 C 
HETATM    8  C   UNL     1      44.995 -11.707   5.535  1.00  0.00     0.144 C 
ENDROOT
BRANCH   1   9
HETATM    9  C   UNL     1      44.564 -11.034   7.868  1.00  0.00     0.122 A 
HETATM   10  N   UNL     1      45.744 -10.592   8.408  1.00  0.00    -0.262 N 
HETATM   11  N   UNL     1      45.604  -9.670   9.372  1.00  0.00    -0.173 NA
HETATM   12  H   UNL     1      46.676 -10.918   8.187  1.00  0.00     0.191 HD
HETATM   13  C   UNL     1      44.277  -9.505   9.479  1.00  0.00     0.090 A 
HETATM   14  C   UNL     1      43.590 -10.350   8.560  1.00  0.00     0.084 A 
BRANCH  13  15
HETATM   15  C   UNL     1      43.695  -8.590  10.457  1.00  0.00    -0.005 A 
HETATM   16  C   UNL     1      43.093  -7.393  10.053  1.00  0.00     0.016 A 
HETATM   17  C   UNL     1      42.515  -6.541  11.001  1.00  0.00     0.037 A 
HETATM   18  C   UNL     1      42.515  -6.875  12.356  1.00  0.00     0.068 A 
HETATM   19  C   UNL     1      43.131  -8.057  12.767  1.00  0.00     0.037 A 
HETATM   20  C   UNL     1      43.721  -8.906  11.822  1.00  0.00     0.016 A 
BRANCH  18  21
HETATM   21  O   UNL     1      41.898  -5.968  13.173  1.00  0.00    -0.356 OA
HETATM   22  C   UNL     1      42.041  -4.597  12.820  1.00  0.00     0.210 C 
ENDBRANCH  18  21
ENDBRANCH  13  15
ENDBRANCH   1   9
BRANCH   5  23
HETATM   23  C   UNL     1      41.902 -14.550   3.658  1.00  0.00     0.141 C 
BRANCH  23  24
HETATM   24  C   UNL     1      42.549 -15.896   3.908  1.00  0.00    -0.049 A 
HETATM   25  C   UNL     1      42.898 -16.768   2.864  1.00  0.00     0.009 A 
HETATM   26  C   UNL     1      43.461 -18.017   3.136  1.00  0.00     0.019 A 
HETATM   27  C   UNL     1      43.655 -18.417   4.455  1.00  0.00     0.011 A 
HETATM   28 BR   UNL     1      44.405 -20.113   4.821  1.00  0.00    -0.051 Br
HETATM   29  C   UNL     1      43.290 -17.580   5.505  1.00  0.00     0.019 A 
HETATM   30  C   UNL     1      42.736 -16.327   5.231  1.00  0.00     0.009 A 
ENDBRANCH  23  24
ENDBRANCH   5  23
TORSDOF 5
ENDMDL
MODEL 4
REMARK VINA RESULT:      -8.4      1.396      1.880
REMARK  5 active torsions:
REMARK  status: ('A' for Active; 'I' for Inactive)
REMARK    1  A    between atoms: O_2  and  C_3 
REMARK    2  A    between atoms: C_6  and  C_7 
REMARK    3  A    between atoms: C_11  and  N_12 
REMARK       I    between atoms: N_15  and  C_16 
REMARK    4  A    between atoms: C_16  and  C_17 
REMARK    5  A    between atoms: C_17  and  C_18 
ROOT
HETATM    1  N   UNL     1      42.780 -10.694   6.020  1.00  0.00    -0.363 N 
HETATM    2  C   UNL     1      43.824 -11.387   5.227  1.00  0.00     0.144 C 
HETATM    3  C   UNL     1      43.766 -12.919   5.432  1.00  0.00     0.145 C 
HETATM    4  N   UNL     1      42.402 -13.425   5.207  1.00  0.00    -0.349 N 
HETATM    5  C   UNL     1      41.960 -13.977   4.012  1.00  0.00     0.224 C 
HETATM    6  O   UNL     1      40.762 -13.990   3.710  1.00  0.00    -0.273 OA
HETATM    7  C   UNL     1      41.407 -12.763   6.061  1.00  0.00     0.145 C 
HETATM    8  C   UNL     1      41.415 -11.242   5.807  1.00  0.00     0.144 C 
ENDROOT
BRANCH   1   9
HETATM    9  C   UNL     1      43.100 -10.131   7.223  1.00  0.00     0.122 A 
HETATM   10  N   UNL     1      44.331 -10.308   7.799  1.00  0.00    -0.262 N 
HETATM   11  N   UNL     1      44.468  -9.738   9.006  1.00  0.00    -0.173 NA
HETATM   12  H   UNL     1      45.105 -10.849   7.434  1.00  0.00     0.191 HD
HETATM   13  C   UNL     1      43.274  -9.171   9.239  1.00  0.00     0.090 A 
HETATM   14  C   UNL     1      42.387  -9.405   8.149  1.00  0.00     0.084 A 
BRANCH  13  15
HETATM   15  C   UNL     1      42.993  -8.460  10.482  1.00  0.00    -0.005 A 
HETATM   16  C   UNL     1      42.097  -7.385  10.511  1.00  0.00     0.016 A 
HETATM   17  C   UNL     1      41.818  -6.733  11.717  1.00  0.00     0.037 A 
HETATM   18  C   UNL     1      42.413  -7.150  12.909  1.00  0.00     0.068 A 
HETATM   19  C   UNL     1      43.322  -8.208  12.885  1.00  0.00     0.037 A 
HETATM   20  C   UNL     1      43.612  -8.855  11.676  1.00  0.00     0.016 A 
BRANCH  18  21
HETATM   21  O   UNL     1      42.037  -6.443  14.018  1.00  0.00    -0.356 OA
HETATM   22  C   UNL     1      42.390  -7.002  15.277  1.00  0.00     0.210 C 
ENDBRANCH  18  21
ENDBRANCH  13  15
ENDBRANCH   1   9
BRANCH   5  23
HETATM   23  C   UNL     1      42.982 -14.591   3.067  1.00  0.00     0.141 C 
BRANCH  23  24
HETATM   24  C   UNL     1      43.260 -16.064   3.279  1.00  0.00    -0.049 A 
HETATM   25  C   UNL     1      43.095 -17.014   2.258  1.00  0.00     0.009 A 
HETATM   26  C   UNL     1      43.328 -18.370   2.502  1.00  0.00     0.019 A 
HETATM   27  C   UNL     1      43.699 -18.791   3.775  1.00  0.00     0.011 A 
HETATM   28 BR   UNL     1      44.000 -20.628   4.107  1.00  0.00    -0.051 Br
HETATM   29  C   UNL     1      43.839 -17.869   4.808  1.00  0.00     0.019 A 
HETATM   30  C   UNL     1      43.617 -16.512   4.561  1.00  0.00     0.009 A 
ENDBRANCH  23  24
ENDBRANCH   5  23
TORSDOF 5
ENDMDL
MODEL 5
REMARK VINA RESULT:      -8.0      3.997     10.988
REMARK  5 active torsions:
REMARK  status: ('A' for Active; 'I' for Inactive)
REMARK    1  A    between atoms: O_2  and  C_3 
REMARK    2  A    between atoms: C_6  and  C_7 
REMARK    3  A    between atoms: C_11  and  N_12 
REMARK       I    between atoms: N_15  and  C_16 
REMARK    4  A    between atoms: C_16  and  C_17 
REMARK    5  A    between atoms: C_17  and  C_18 
ROOT
HETATM    1  N   UNL     1      43.810 -10.173   6.815  1.00  0.00    -0.363 N 
HETATM    2  C   UNL     1      42.822  -9.173   7.285  1.00  0.00     0.144 C 
HETATM    3  C   UNL     1      42.165  -9.607   8.616  1.00  0.00     0.145 C 
HETATM    4  N   UNL     1      43.189  -9.958   9.614  1.00  0.00    -0.349 N 
HETATM    5  C   UNL     1      43.653  -9.092  10.596  1.00  0.00     0.224 C 
HETATM    6  O   UNL     1      44.765  -9.240  11.115  1.00  0.00    -0.273 OA
HETATM    7  C   UNL     1      44.106 -11.002   9.138  1.00  0.00     0.145 C 
HETATM    8  C   UNL     1      44.815 -10.541   7.848  1.00  0.00     0.144 C 
ENDROOT
BRANCH   1   9
HETATM    9  C   UNL     1      43.454 -11.087   5.866  1.00  0.00     0.122 A 
HETATM   10  N   UNL     1      42.465 -10.833   4.950  1.00  0.00    -0.262 N 
HETATM   11  N   UNL     1      42.198 -11.853   4.122  1.00  0.00    -0.173 NA
HETATM   12  H   UNL     1      41.906  -9.993   4.873  1.00  0.00     0.191 HD
HETATM   13  C   UNL     1      43.036 -12.824   4.515  1.00  0.00     0.090 A 
HETATM   14  C   UNL     1      43.833 -12.386   5.612  1.00  0.00     0.084 A 
BRANCH  13  15
HETATM   15  C   UNL     1      43.043 -14.136   3.874  1.00  0.00    -0.005 A 
HETATM   16  C   UNL     1      42.928 -15.308   4.631  1.00  0.00     0.016 A 
HETATM   17  C   UNL     1      42.907 -16.555   3.998  1.00  0.00     0.037 A 
HETATM   18  C   UNL     1      42.986 -16.653   2.607  1.00  0.00     0.068 A 
HETATM   19  C   UNL     1      43.121 -15.490   1.849  1.00  0.00     0.037 A 
HETATM   20  C   UNL     1      43.154 -14.240   2.481  1.00  0.00     0.016 A 
BRANCH  18  21
HETATM   21  O   UNL     1      42.932 -17.928   2.116  1.00  0.00    -0.356 OA
HETATM   22  C   UNL     1      43.842 -18.865   2.679  1.00  0.00     0.210 C 
ENDBRANCH  18  21
ENDBRANCH  13  15
ENDBRANCH   1   9
BRANCH   5  23
HETATM   23  C   UNL     1      42.758  -7.947  11.045  1.00  0.00     0.141 C 
BRANCH  23  24
HETATM   24  C   UNL     1      42.392  -7.947  12.514  1.00  0.00    -0.049 A 
HETATM   25  C   UNL     1      41.342  -8.724  13.027  1.00  0.00     0.009 A 
HETATM   26  C   UNL     1      41.011  -8.670  14.384  1.00  0.00     0.019 A 
HETATM   27  C   UNL     1      41.710  -7.818  15.233  1.00  0.00     0.011 A 
HETATM   28 BR   UNL     1      41.251  -7.736  17.065  1.00  0.00    -0.051 Br
HETATM   29  C   UNL     1      42.735  -7.017  14.739  1.00  0.00     0.019 A 
HETATM   30  C   UNL     1      43.072  -7.080  13.385  1.00  0.00     0.009 A 
ENDBRANCH  23  24
ENDBRANCH   5  23
TORSDOF 5
ENDMDL
MODEL 6
REMARK VINA RESULT:      -7.9      4.475      7.126
REMARK  5 active torsions:
REMARK  status: ('A' for Active; 'I' for Inactive)
REMARK    1  A    between atoms: O_2  and  C_3 
REMARK    2  A    between atoms: C_6  and  C_7 
REMARK    3  A    between atoms: C_11  and  N_12 
REMARK       I    between atoms: N_15  and  C_16 
REMARK    4  A    between atoms: C_16  and  C_17 
REMARK    5  A    between atoms: C_17  and  C_18 
ROOT
HETATM    1  N   UNL     1      40.458  -8.675  11.812  1.00  0.00    -0.363 N 
HETATM    2  C   UNL     1      41.425  -8.046  10.881  1.00  0.00     0.144 C 
HETATM    3  C   UNL     1      42.845  -7.993  11.489  1.00  0.00     0.145 C 
HETATM    4  N   UNL     1      43.255  -9.320  11.977  1.00  0.00    -0.349 N 
HETATM    5  C   UNL     1      44.039 -10.211  11.255  1.00  0.00     0.224 C 
HETATM    6  O   UNL     1      44.007 -11.426  11.477  1.00  0.00    -0.273 OA
HETATM    7  C   UNL     1      42.309  -9.879  12.951  1.00  0.00     0.145 C 
HETATM    8  C   UNL     1      40.906  -9.999  12.322  1.00  0.00     0.144 C 
ENDROOT
BRANCH   1   9
HETATM    9  C   UNL     1      39.651  -7.893  12.587  1.00  0.00     0.122 A 
HETATM   10  N   UNL     1      38.293  -7.856  12.409  1.00  0.00    -0.262 N 
HETATM   11  N   UNL     1      37.649  -6.995  13.213  1.00  0.00    -0.173 NA
HETATM   12  H   UNL     1      37.752  -8.365  11.722  1.00  0.00     0.191 HD
HETATM   13  C   UNL     1      38.626  -6.434  13.943  1.00  0.00     0.090 A 
HETATM   14  C   UNL     1      39.896  -6.964  13.573  1.00  0.00     0.084 A 
BRANCH  13  15
HETATM   15  C   UNL     1      38.343  -5.402  14.937  1.00  0.00    -0.005 A 
HETATM   16  C   UNL     1      39.076  -5.328  16.126  1.00  0.00     0.016 A 
HETATM   17  C   UNL     1      38.811  -4.315  17.054  1.00  0.00     0.037 A 
HETATM   18  C   UNL     1      37.826  -3.357  16.805  1.00  0.00     0.068 A 
HETATM   19  C   UNL     1      37.079  -3.438  15.631  1.00  0.00     0.037 A 
HETATM   20  C   UNL     1      37.334  -4.458  14.705  1.00  0.00     0.016 A 
BRANCH  18  21
HETATM   21  O   UNL     1      37.684  -2.411  17.782  1.00  0.00    -0.356 OA
HETATM   22  C   UNL     1      38.345  -1.170  17.565  1.00  0.00     0.210 C 
ENDBRANCH  18  21
ENDBRANCH  13  15
ENDBRANCH   1   9
BRANCH   5  23
HETATM   23  C   UNL     1      44.964  -9.666  10.178  1.00  0.00     0.141 C 
BRANCH  23  24
HETATM   24  C   UNL     1      44.653 -10.117   8.766  1.00  0.00    -0.049 A 
HETATM   25  C   UNL     1      43.374  -9.992   8.202  1.00  0.00     0.009 A 
HETATM   26  C   UNL     1      43.117 -10.452   6.908  1.00  0.00     0.019 A 
HETATM   27  C   UNL     1      44.129 -11.067   6.178  1.00  0.00     0.011 A 
HETATM   28 BR   UNL     1      43.776 -11.702   4.433  1.00  0.00    -0.051 Br
HETATM   29  C   UNL     1      45.397 -11.227   6.730  1.00  0.00     0.019 A 
HETATM   30  C   UNL     1      45.655 -10.757   8.020  1.00  0.00     0.009 A 
ENDBRANCH  23  24
ENDBRANCH   5  23
TORSDOF 5
ENDMDL
MODEL 7
REMARK VINA RESULT:      -7.9     19.319     20.963
REMARK  5 active torsions:
REMARK  status: ('A' for Active; 'I' for Inactive)
REMARK    1  A    between atoms: O_2  and  C_3 
REMARK    2  A    between atoms: C_6  and  C_7 
REMARK    3  A    between atoms: C_11  and  N_12 
REMARK       I    between atoms: N_15  and  C_16 
REMARK    4  A    between atoms: C_16  and  C_17 
REMARK    5  A    between atoms: C_17  and  C_18 
ROOT
HETATM    1  N   UNL     1      47.579 -28.644   2.138  1.00  0.00    -0.363 N 
HETATM    2  C   UNL     1      47.801 -28.166   0.752  1.00  0.00     0.144 C 
HETATM    3  C   UNL     1      47.260 -29.175  -0.288  1.00  0.00     0.145 C 
HETATM    4  N   UNL     1      45.864 -29.534   0.010  1.00  0.00    -0.349 N 
HETATM    5  C   UNL     1      44.759 -28.944  -0.591  1.00  0.00     0.224 C 
HETATM    6  O   UNL     1      43.652 -28.941  -0.044  1.00  0.00    -0.273 OA
HETATM    7  C   UNL     1      45.697 -30.070   1.367  1.00  0.00     0.145 C 
HETATM    8  C   UNL     1      46.171 -29.036   2.409  1.00  0.00     0.144 C 
ENDROOT
BRANCH   1   9
HETATM    9  C   UNL     1      48.592 -29.259   2.817  1.00  0.00     0.122 A 
HETATM   10  N   UNL     1      49.868 -29.315   2.317  1.00  0.00    -0.262 N 
HETATM   11  N   UNL     1      50.733 -30.002   3.078  1.00  0.00    -0.173 NA
HETATM   12  H   UNL     1      50.196 -28.940   1.437  1.00  0.00     0.191 HD
HETATM   13  C   UNL     1      49.995 -30.425   4.115  1.00  0.00     0.090 A 
HETATM   14  C   UNL     1      48.646 -29.988   3.982  1.00  0.00     0.084 A 
BRANCH  13  15
HETATM   15  C   UNL     1      50.567 -31.249   5.177  1.00  0.00    -0.005 A 
HETATM   16  C   UNL     1      51.866 -31.021   5.644  1.00  0.00     0.016 A 
HETATM   17  C   UNL     1      52.387 -31.801   6.682  1.00  0.00     0.037 A 
HETATM   18  C   UNL     1      51.620 -32.805   7.277  1.00  0.00     0.068 A 
HETATM   19  C   UNL     1      50.332 -33.051   6.802  1.00  0.00     0.037 A 
HETATM   20  C   UNL     1      49.812 -32.278   5.755  1.00  0.00     0.016 A 
BRANCH  18  21
HETATM   21  O   UNL     1      52.241 -33.477   8.294  1.00  0.00    -0.356 OA
HETATM   22  C   UNL     1      53.273 -32.778   8.979  1.00  0.00     0.210 C 
ENDBRANCH  18  21
ENDBRANCH  13  15
ENDBRANCH   1   9
BRANCH   5  23
HETATM   23  C   UNL     1      44.926 -28.303  -1.960  1.00  0.00     0.141 C 
BRANCH  23  24
HETATM   24  C   UNL     1      44.872 -29.258  -3.134  1.00  0.00    -0.049 A 
HETATM   25  C   UNL     1      45.980 -30.022  -3.532  1.00  0.00     0.009 A 
HETATM   26  C   UNL     1      45.903 -30.865  -4.644  1.00  0.00     0.019 A 
HETATM   27  C   UNL     1      44.726 -30.931  -5.382  1.00  0.00     0.011 A 
HETATM   28 BR   UNL     1      44.627 -32.062  -6.894  1.00  0.00    -0.051 Br
HETATM   29  C   UNL     1      43.625 -30.160  -5.022  1.00  0.00     0.019 A 
HETATM   30  C   UNL     1      43.700 -29.324  -3.905  1.00  0.00     0.009 A 
ENDBRANCH  23  24
ENDBRANCH   5  23
TORSDOF 5
ENDMDL
MODEL 8
REMARK VINA RESULT:      -7.8      4.052     10.422
REMARK  5 active torsions:
REMARK  status: ('A' for Active; 'I' for Inactive)
REMARK    1  A    between atoms: O_2  and  C_3 
REMARK    2  A    between atoms: C_6  and  C_7 
REMARK    3  A    between atoms: C_11  and  N_12 
REMARK       I    between atoms: N_15  and  C_16 
REMARK    4  A    between atoms: C_16  and  C_17 
REMARK    5  A    between atoms: C_17  and  C_18 
ROOT
HETATM    1  N   UNL     1      41.555 -11.851   3.856  1.00  0.00    -0.363 N 
HETATM    2  C   UNL     1      40.410 -11.841   4.797  1.00  0.00     0.144 C 
HETATM    3  C   UNL     1      40.870 -11.558   6.246  1.00  0.00     0.145 C 
HETATM    4  N   UNL     1      41.707 -10.349   6.301  1.00  0.00    -0.349 N 
HETATM    5  C   UNL     1      41.236  -9.086   6.637  1.00  0.00     0.224 C 
HETATM    6  O   UNL     1      41.818  -8.060   6.270  1.00  0.00    -0.273 OA
HETATM    7  C   UNL     1      42.870 -10.426   5.408  1.00  0.00     0.145 C 
HETATM    8  C   UNL     1      42.409 -10.638   3.951  1.00  0.00     0.144 C 
ENDROOT
BRANCH   1   9
HETATM    9  C   UNL     1      42.112 -13.038   3.473  1.00  0.00     0.122 A 
HETATM   10  N   UNL     1      42.587 -13.239   2.203  1.00  0.00    -0.262 N 
HETATM   11  N   UNL     1      43.051 -14.476   1.972  1.00  0.00    -0.173 NA
HETATM   12  H   UNL     1      42.580 -12.578   1.437  1.00  0.00     0.191 HD
HETATM   13  C   UNL     1      42.863 -15.120   3.133  1.00  0.00     0.090 A 
HETATM   14  C   UNL     1      42.268 -14.256   4.096  1.00  0.00     0.084 A 
BRANCH  13  15
HETATM   15  C   UNL     1      43.217 -16.528   3.294  1.00  0.00    -0.005 A 
HETATM   16  C   UNL     1      43.750 -17.003   4.498  1.00  0.00     0.016 A 
HETATM   17  C   UNL     1      44.056 -18.361   4.644  1.00  0.00     0.037 A 
HETATM   18  C   UNL     1      43.823 -19.263   3.604  1.00  0.00     0.068 A 
HETATM   19  C   UNL     1      43.311 -18.792   2.395  1.00  0.00     0.037 A 
HETATM   20  C   UNL     1      43.014 -17.431   2.242  1.00  0.00     0.016 A 
BRANCH  18  21
HETATM   21  O   UNL     1      44.145 -20.562   3.886  1.00  0.00    -0.356 OA
HETATM   22  C   UNL     1      44.275 -20.899   5.261  1.00  0.00     0.210 C 
ENDBRANCH  18  21
ENDBRANCH  13  15
ENDBRANCH   1   9
BRANCH   5  23
HETATM   23  C   UNL     1      39.980  -8.976   7.489  1.00  0.00     0.141 C 
BRANCH  23  24
HETATM   24  C   UNL     1      40.202  -9.051   8.985  1.00  0.00    -0.049 A 
HETATM   25  C   UNL     1      39.171  -8.822   9.909  1.00  0.00     0.009 A 
HETATM   26  C   UNL     1      39.422  -8.865  11.284  1.00  0.00     0.019 A 
HETATM   27  C   UNL     1      40.711  -9.111  11.744  1.00  0.00     0.011 A 
HETATM   28 BR   UNL     1      41.052  -9.155  13.603  1.00  0.00    -0.051 Br
HETATM   29  C   UNL     1      41.754  -9.312  10.844  1.00  0.00     0.019 A 
HETATM   30  C   UNL     1      41.499  -9.278   9.471  1.00  0.00     0.009 A 
ENDBRANCH  23  24
ENDBRANCH   5  23
TORSDOF 5
ENDMDL
MODEL 9
REMARK VINA RESULT:      -7.8      4.375     10.339
REMARK  5 active torsions:
REMARK  status: ('A' for Active; 'I' for Inactive)
REMARK    1  A    between atoms: O_2  and  C_3 
REMARK    2  A    between atoms: C_6  and  C_7 
REMARK    3  A    between atoms: C_11  and  N_12 
REMARK       I    between atoms: N_15  and  C_16 
REMARK    4  A    between atoms: C_16  and  C_17 
REMARK    5  A    between atoms: C_17  and  C_18 
ROOT
HETATM    1  N   UNL     1      40.450 -12.050   6.063  1.00  0.00    -0.363 N 
HETATM    2  C   UNL     1      41.496 -11.045   6.371  1.00  0.00     0.144 C 
HETATM    3  C   UNL     1      41.376  -9.805   5.455  1.00  0.00     0.145 C 
HETATM    4  N   UNL     1      40.004  -9.272   5.474  1.00  0.00    -0.349 N 
HETATM    5  C   UNL     1      39.586  -8.216   6.274  1.00  0.00     0.224 C 
HETATM    6  O   UNL     1      38.400  -8.076   6.590  1.00  0.00    -0.273 OA
HETATM    7  C   UNL     1      39.003 -10.278   5.095  1.00  0.00     0.145 C 
HETATM    8  C   UNL     1      39.074 -11.486   6.052  1.00  0.00     0.144 C 
ENDROOT
BRANCH   1   9
HETATM    9  C   UNL     1      40.746 -13.120   5.268  1.00  0.00     0.122 A 
HETATM   10  N   UNL     1      39.939 -13.490   4.224  1.00  0.00    -0.262 N 
HETATM   11  N   UNL     1      40.339 -14.595   3.575  1.00  0.00    -0.173 NA
HETATM   12  H   UNL     1      39.074 -13.051   3.934  1.00  0.00     0.191 HD
HETATM   13  C   UNL     1      41.449 -14.974   4.226  1.00  0.00     0.090 A 
HETATM   14  C   UNL     1      41.731 -14.080   5.300  1.00  0.00     0.084 A 
BRANCH  13  15
HETATM   15  C   UNL     1      42.190 -16.173   3.844  1.00  0.00    -0.005 A 
HETATM   16  C   UNL     1      41.956 -16.803   2.617  1.00  0.00     0.016 A 
HETATM   17  C   UNL     1      42.695 -17.935   2.255  1.00  0.00     0.037 A 
HETATM   18  C   UNL     1      43.683 -18.444   3.100  1.00  0.00     0.068 A 
HETATM   19  C   UNL     1      43.907 -17.832   4.333  1.00  0.00     0.037 A 
HETATM   20  C   UNL     1      43.160 -16.706   4.703  1.00  0.00     0.016 A 
BRANCH  18  21
HETATM   21  O   UNL     1      44.346 -19.538   2.616  1.00  0.00    -0.356 OA
HETATM   22  C   UNL     1      43.579 -20.454   1.843  1.00  0.00     0.210 C 
ENDBRANCH  18  21
ENDBRANCH  13  15
ENDBRANCH   1   9
BRANCH   5  23
HETATM   23  C   UNL     1      40.618  -7.208   6.754  1.00  0.00     0.141 C 
BRANCH  23  24
HETATM   24  C   UNL     1      41.286  -7.540   8.071  1.00  0.00    -0.049 A 
HETATM   25  C   UNL     1      40.721  -8.433   8.996  1.00  0.00     0.009 A 
HETATM   26  C   UNL     1      41.350  -8.687  10.218  1.00  0.00     0.019 A 
HETATM   27  C   UNL     1      42.535  -8.031  10.536  1.00  0.00     0.011 A 
HETATM   28 BR   UNL     1      43.377  -8.365  12.195  1.00  0.00    -0.051 Br
HETATM   29  C   UNL     1      43.096  -7.120   9.646  1.00  0.00     0.019 A 
HETATM   30  C   UNL     1      42.472  -6.874   8.421  1.00  0.00     0.009 A 
ENDBRANCH  23  24
ENDBRANCH   5  23
TORSDOF 5
ENDMDL
MODEL 10
REMARK VINA RESULT:      -7.8      4.412     11.162
REMARK  5 active torsions:
REMARK  status: ('A' for Active; 'I' for Inactive)
REMARK    1  A    between atoms: O_2  and  C_3 
REMARK    2  A    between atoms: C_6  and  C_7 
REMARK    3  A    between atoms: C_11  and  N_12 
REMARK       I    between atoms: N_15  and  C_16 
REMARK    4  A    between atoms: C_16  and  C_17 
REMARK    5  A    between atoms: C_17  and  C_18 
ROOT
HETATM    1  N   UNL     1      43.663 -10.272   8.006  1.00  0.00    -0.363 N 
HETATM    2  C   UNL     1      42.733  -9.118   8.023  1.00  0.00     0.144 C 
HETATM    3  C   UNL     1      41.806  -9.156   9.260  1.00  0.00     0.145 C 
HETATM    4  N   UNL     1      42.590  -9.316  10.496  1.00  0.00    -0.349 N 
HETATM    5  C   UNL     1      42.972  -8.267  11.321  1.00  0.00     0.224 C 
HETATM    6  O   UNL     1      43.949  -8.358  12.071  1.00  0.00    -0.273 OA
HETATM    7  C   UNL     1      43.446 -10.509  10.469  1.00  0.00     0.145 C 
HETATM    8  C   UNL     1      44.420 -10.439   9.276  1.00  0.00     0.144 C 
ENDROOT
BRANCH   1   9
HETATM    9  C   UNL     1      43.375 -11.369   7.245  1.00  0.00     0.122 A 
HETATM   10  N   UNL     1      42.196 -11.480   6.554  1.00  0.00    -0.262 N 
HETATM   11  N   UNL     1      42.042 -12.641   5.900  1.00  0.00    -0.173 NA
HETATM   12  H   UNL     1      41.438 -10.810   6.528  1.00  0.00     0.191 HD
HETATM   13  C   UNL     1      43.160 -13.328   6.181  1.00  0.00     0.090 A 
HETATM   14  C   UNL     1      44.015 -12.568   7.030  1.00  0.00     0.084 A 
BRANCH  13  15
HETATM   15  C   UNL     1      43.376 -14.680   5.674  1.00  0.00    -0.005 A 
HETATM   16  C   UNL     1      42.932 -15.051   4.400  1.00  0.00     0.016 A 
HETATM   17  C   UNL     1      43.173 -16.343   3.920  1.00  0.00     0.037 A 
HETATM   18  C   UNL     1      43.870 -17.275   4.692  1.00  0.00     0.068 A 
HETATM   19  C   UNL     1      44.298 -16.917   5.970  1.00  0.00     0.037 A 
HETATM   20  C   UNL     1      44.047 -15.628   6.459  1.00  0.00     0.016 A 
BRANCH  18  21
HETATM   21  O   UNL     1      44.057 -18.491   4.096  1.00  0.00    -0.356 OA
HETATM   22  C   UNL     1      43.673 -18.595   2.730  1.00  0.00     0.210 C 
ENDBRANCH  18  21
ENDBRANCH  13  15
ENDBRANCH   1   9
BRANCH   5  23
HETATM   23  C   UNL     1      42.153  -6.985  11.302  1.00  0.00     0.141 C 
BRANCH  23  24
HETATM   24  C   UNL     1      41.562  -6.573  12.634  1.00  0.00    -0.049 A 
HETATM   25  C   UNL     1      40.615  -7.359  13.310  1.00  0.00     0.009 A 
HETATM   26  C   UNL     1      40.065  -6.928  14.521  1.00  0.00     0.019 A 
HETATM   27  C   UNL     1      40.436  -5.697  15.050  1.00  0.00     0.011 A 
HETATM   28 BR   UNL     1      39.680  -5.109  16.681  1.00  0.00    -0.051 Br
HETATM   29  C   UNL     1      41.351  -4.889  14.381  1.00  0.00     0.019 A 
HETATM   30  C   UNL     1      41.908  -5.325  13.176  1.00  0.00     0.009 A 
ENDBRANCH  23  24
ENDBRANCH   5  23
TORSDOF 5
ENDMDL
