MODEL 1
REMARK VINA RESULT:      -7.9      0.000      0.000
REMARK  12 active torsions:
REMARK  status: ('A' for Active; 'I' for Inactive)
REMARK    1  A    between atoms: C_2  and  C_3 
REMARK    2  A    between atoms: C_3  and  N_4 
REMARK    3  A    between atoms: C_3  and  C_25 
REMARK    4  A    between atoms: N_4  and  C_6 
REMARK    5  A    between atoms: N_4  and  C_21 
REMARK    6  A    between atoms: C_6  and  C_7 
REMARK    7  A    between atoms: C_8  and  O_9 
REMARK    8  A    between atoms: C_21  and  C_22 
REMARK    9  A    between atoms: C_22  and  C_23 
REMARK   10  A    between atoms: C_23  and  O_24 
REMARK   11  A    between atoms: N_26  and  C_27 
REMARK   12  A    between atoms: C_27  and  C_28 
ROOT
HETATM    1  N   UNL     1      40.540 -13.315  -0.972  1.00  0.00    -0.055 N 
HETATM    2  H   UNL     1      41.530 -13.546  -0.837  1.00  0.00     0.281 HD
ENDROOT
BRANCH   1   3
HETATM    3  C   UNL     1      40.532 -11.825  -0.527  1.00  0.00     0.263 C 
BRANCH   3   4
HETATM    4  C   UNL     1      40.731 -10.799  -1.685  1.00  0.00     0.016 C 
HETATM    5  C   UNL     1      41.847  -9.797  -1.342  1.00  0.00     0.012 C 
HETATM    6  C   UNL     1      39.499 -10.012  -2.123  1.00  0.00     0.012 C 
ENDBRANCH   3   4
BRANCH   3   7
HETATM    7  C   UNL     1      39.427 -11.472   0.425  1.00  0.00     0.168 A 
HETATM    8  N   UNL     1      39.545 -10.811   1.629  1.00  0.00    -0.257 N 
HETATM    9  N   UNL     1      38.339 -10.737   2.214  1.00  0.00    -0.003 NA
HETATM   10  N   UNL     1      37.496 -11.313   1.376  1.00  0.00     0.018 NA
HETATM   11  N   UNL     1      38.152 -11.768   0.270  1.00  0.00    -0.145 NA
BRANCH   8  12
HETATM   12  C   UNL     1      40.685 -10.207   2.297  1.00  0.00     0.186 C 
BRANCH  12  13
HETATM   13  C   UNL     1      41.481 -11.197   3.109  1.00  0.00    -0.039 A 
HETATM   14  C   UNL     1      42.563 -11.872   2.521  1.00  0.00     0.009 A 
HETATM   15  C   UNL     1      43.340 -12.756   3.270  1.00  0.00     0.001 A 
HETATM   16  C   UNL     1      43.053 -12.966   4.617  1.00  0.00     0.000 A 
HETATM   17  C   UNL     1      41.995 -12.288   5.218  1.00  0.00     0.001 A 
HETATM   18  C   UNL     1      41.216 -11.402   4.472  1.00  0.00     0.009 A 
ENDBRANCH  12  13
ENDBRANCH   8  12
ENDBRANCH   3   7
ENDBRANCH   1   3
BRANCH   1  19
HETATM   19  C   UNL     1      39.900 -14.394  -0.087  1.00  0.00     0.278 C 
BRANCH  19  20
HETATM   20  C   UNL     1      40.509 -14.877   1.192  1.00  0.00     0.021 A 
HETATM   21  C   UNL     1      39.954 -14.643   2.437  1.00  0.00     0.170 A 
HETATM   22  N   UNL     1      40.393 -15.123   3.611  1.00  0.00    -0.224 NA
HETATM   23  C   UNL     1      41.439 -15.964   3.591  1.00  0.00     0.072 A 
HETATM   24  C   UNL     1      42.081 -16.325   2.378  1.00  0.00    -0.004 A 
HETATM   25  C   UNL     1      41.883 -16.523   4.784  1.00  0.00     0.072 A 
HETATM   26  C   UNL     1      41.601 -15.755   1.186  1.00  0.00     0.027 A 
HETATM   27  C   UNL     1      43.144 -17.247   2.375  1.00  0.00     0.053 A 
HETATM   28  C   UNL     1      43.527 -17.792   3.578  1.00  0.00     0.106 A 
HETATM   29  C   UNL     1      42.917 -17.436   4.752  1.00  0.00     0.107 A 
HETATM   30  O   UNL     1      44.503 -18.720   3.761  1.00  0.00    -0.323 OA
HETATM   31  O   UNL     1      43.431 -18.093   5.825  1.00  0.00    -0.323 OA
HETATM   32  C   UNL     1      44.411 -18.938   5.186  1.00  0.00     0.352 A 
BRANCH  21  33
HETATM   33  O   UNL     1      38.832 -13.906   2.582  1.00  0.00    -0.344 OA
HETATM   34  H   UNL     1      38.342 -14.181   1.780  1.00  0.00     0.219 HD
ENDBRANCH  21  33
ENDBRANCH  19  20
ENDBRANCH   1  19
BRANCH   1  35
HETATM   35  C   UNL     1      40.356 -13.494  -2.474  1.00  0.00     0.238 C 
BRANCH  35  36
HETATM   36  C   UNL     1      39.271 -14.521  -2.803  1.00  0.00     0.054 C 
BRANCH  36  37
HETATM   37  C   UNL     1      37.934 -13.850  -3.095  1.00  0.00     0.165 C 
BRANCH  37  38
HETATM   38  O   UNL     1      37.339 -13.446  -1.875  1.00  0.00    -0.401 OA
HETATM   39  H   UNL     1      37.940 -13.712  -1.152  1.00  0.00     0.209 HD
ENDBRANCH  37  38
ENDBRANCH  36  37
ENDBRANCH  35  36
ENDBRANCH   1  35
TORSDOF 12
ENDMDL
MODEL 2
REMARK VINA RESULT:      -7.6      2.569      7.814
REMARK  12 active torsions:
REMARK  status: ('A' for Active; 'I' for Inactive)
REMARK    1  A    between atoms: C_2  and  C_3 
REMARK    2  A    between atoms: C_3  and  N_4 
REMARK    3  A    between atoms: C_3  and  C_25 
REMARK    4  A    between atoms: N_4  and  C_6 
REMARK    5  A    between atoms: N_4  and  C_21 
REMARK    6  A    between atoms: C_6  and  C_7 
REMARK    7  A    between atoms: C_8  and  O_9 
REMARK    8  A    between atoms: C_21  and  C_22 
REMARK    9  A    between atoms: C_22  and  C_23 
REMARK   10  A    between atoms: C_23  and  O_24 
REMARK   11  A    between atoms: N_26  and  C_27 
REMARK   12  A    between atoms: C_27  and  C_28 
ROOT
HETATM    1  N   UNL     1      43.266 -13.130   4.623  1.00  0.00    -0.055 N 
HETATM    2  H   UNL     1      44.220 -12.921   4.939  1.00  0.00     0.281 HD
ENDROOT
BRANCH   1   3
HETATM    3  C   UNL     1      43.203 -14.659   4.898  1.00  0.00     0.263 C 
BRANCH   3   4
HETATM    4  C   UNL     1      43.351 -15.057   6.399  1.00  0.00     0.016 C 
HETATM    5  C   UNL     1      44.608 -15.918   6.615  1.00  0.00     0.012 C 
HETATM    6  C   UNL     1      42.164 -15.771   7.040  1.00  0.00     0.012 C 
ENDBRANCH   3   4
BRANCH   3   7
HETATM    7  C   UNL     1      42.094 -15.368   4.180  1.00  0.00     0.168 A 
HETATM    8  N   UNL     1      42.216 -16.290   3.162  1.00  0.00    -0.257 N 
HETATM    9  N   UNL     1      40.993 -16.652   2.742  1.00  0.00    -0.003 NA
HETATM   10  N   UNL     1      40.141 -15.992   3.504  1.00  0.00     0.018 NA
HETATM   11  N   UNL     1      40.804 -15.200   4.395  1.00  0.00    -0.145 NA
BRANCH   8  12
HETATM   12  C   UNL     1      43.379 -16.900   2.540  1.00  0.00     0.186 C 
BRANCH  12  13
HETATM   13  C   UNL     1      43.613 -18.317   2.997  1.00  0.00    -0.039 A 
HETATM   14  C   UNL     1      44.013 -18.567   4.320  1.00  0.00     0.009 A 
HETATM   15  C   UNL     1      44.188 -19.874   4.774  1.00  0.00     0.001 A 
HETATM   16  C   UNL     1      43.953 -20.947   3.917  1.00  0.00     0.000 A 
HETATM   17  C   UNL     1      43.536 -20.714   2.608  1.00  0.00     0.001 A 
HETATM   18  C   UNL     1      43.360 -19.408   2.150  1.00  0.00     0.009 A 
ENDBRANCH  12  13
ENDBRANCH   8  12
ENDBRANCH   3   7
ENDBRANCH   1   3
BRANCH   1  19
HETATM   19  C   UNL     1      43.349 -12.601   3.184  1.00  0.00     0.278 C 
BRANCH  19  20
HETATM   20  C   UNL     1      42.148 -12.365   2.324  1.00  0.00     0.021 A 
HETATM   21  C   UNL     1      41.548 -11.127   2.176  1.00  0.00     0.170 A 
HETATM   22  N   UNL     1      40.531 -10.825   1.354  1.00  0.00    -0.224 NA
HETATM   23  C   UNL     1      40.075 -11.791   0.541  1.00  0.00     0.072 A 
HETATM   24  C   UNL     1      40.626 -13.099   0.558  1.00  0.00    -0.004 A 
HETATM   25  C   UNL     1      39.061 -11.496  -0.362  1.00  0.00     0.072 A 
HETATM   26  C   UNL     1      41.661 -13.364   1.472  1.00  0.00     0.027 A 
HETATM   27  C   UNL     1      40.167 -14.084  -0.336  1.00  0.00     0.053 A 
HETATM   28  C   UNL     1      39.180 -13.732  -1.229  1.00  0.00     0.106 A 
HETATM   29  C   UNL     1      38.638 -12.474  -1.238  1.00  0.00     0.107 A 
HETATM   30  O   UNL     1      38.644 -14.536  -2.184  1.00  0.00    -0.323 OA
HETATM   31  O   UNL     1      37.689 -12.324  -2.200  1.00  0.00    -0.323 OA
HETATM   32  C   UNL     1      37.725 -13.625  -2.825  1.00  0.00     0.352 A 
BRANCH  21  33
HETATM   33  O   UNL     1      41.989 -10.044   2.852  1.00  0.00    -0.344 OA
HETATM   34  H   UNL     1      42.500 -10.483   3.563  1.00  0.00     0.219 HD
ENDBRANCH  21  33
ENDBRANCH  19  20
ENDBRANCH   1  19
BRANCH   1  35
HETATM   35  C   UNL     1      42.410 -12.311   5.582  1.00  0.00     0.238 C 
BRANCH  35  36
HETATM   36  C   UNL     1      43.137 -11.060   6.079  1.00  0.00     0.054 C 
BRANCH  36  37
HETATM   37  C   UNL     1      44.545 -11.385   6.563  1.00  0.00     0.165 C 
BRANCH  37  38
HETATM   38  O   UNL     1      45.470 -11.115   5.525  1.00  0.00    -0.401 OA
HETATM   39  H   UNL     1      45.037 -11.341   4.679  1.00  0.00     0.209 HD
ENDBRANCH  37  38
ENDBRANCH  36  37
ENDBRANCH  35  36
ENDBRANCH   1  35
TORSDOF 12
ENDMDL
MODEL 3
REMARK VINA RESULT:      -7.4      4.414      8.197
REMARK  12 active torsions:
REMARK  status: ('A' for Active; 'I' for Inactive)
REMARK    1  A    between atoms: C_2  and  C_3 
REMARK    2  A    between atoms: C_3  and  N_4 
REMARK    3  A    between atoms: C_3  and  C_25 
REMARK    4  A    between atoms: N_4  and  C_6 
REMARK    5  A    between atoms: N_4  and  C_21 
REMARK    6  A    between atoms: C_6  and  C_7 
REMARK    7  A    between atoms: C_8  and  O_9 
REMARK    8  A    between atoms: C_21  and  C_22 
REMARK    9  A    between atoms: C_22  and  C_23 
REMARK   10  A    between atoms: C_23  and  O_24 
REMARK   11  A    between atoms: N_26  and  C_27 
REMARK   12  A    between atoms: C_27  and  C_28 
ROOT
HETATM    1  N   UNL     1      42.864 -12.490   4.271  1.00  0.00    -0.055 N 
HETATM    2  H   UNL     1      42.162 -12.148   4.937  1.00  0.00     0.281 HD
ENDROOT
BRANCH   1   3
HETATM    3  C   UNL     1      42.780 -14.021   4.530  1.00  0.00     0.263 C 
BRANCH   3   4
HETATM    4  C   UNL     1      42.727 -14.425   6.036  1.00  0.00     0.016 C 
HETATM    5  C   UNL     1      44.101 -14.924   6.516  1.00  0.00     0.012 C 
HETATM    6  C   UNL     1      41.676 -15.457   6.433  1.00  0.00     0.012 C 
ENDBRANCH   3   4
BRANCH   3   7
HETATM    7  C   UNL     1      41.785 -14.738   3.666  1.00  0.00     0.168 A 
HETATM    8  N   UNL     1      42.050 -15.693   2.708  1.00  0.00    -0.257 N 
HETATM    9  N   UNL     1      40.903 -16.052   2.110  1.00  0.00    -0.003 NA
HETATM   10  N   UNL     1      39.953 -15.356   2.707  1.00  0.00     0.018 NA
HETATM   11  N   UNL     1      40.481 -14.545   3.668  1.00  0.00    -0.145 NA
BRANCH   8  12
HETATM   12  C   UNL     1      43.286 -16.338   2.296  1.00  0.00     0.186 C 
BRANCH  12  13
HETATM   13  C   UNL     1      43.473 -17.698   2.922  1.00  0.00    -0.039 A 
HETATM   14  C   UNL     1      43.320 -18.854   2.139  1.00  0.00     0.009 A 
HETATM   15  C   UNL     1      43.536 -20.117   2.689  1.00  0.00     0.001 A 
HETATM   16  C   UNL     1      43.920 -20.240   4.023  1.00  0.00     0.000 A 
HETATM   17  C   UNL     1      44.094 -19.101   4.805  1.00  0.00     0.001 A 
HETATM   18  C   UNL     1      43.879 -17.835   4.259  1.00  0.00     0.009 A 
ENDBRANCH  12  13
ENDBRANCH   8  12
ENDBRANCH   3   7
ENDBRANCH   1   3
BRANCH   1  19
HETATM   19  C   UNL     1      44.083 -11.688   4.746  1.00  0.00     0.278 C 
BRANCH  19  20
HETATM   20  C   UNL     1      44.275 -11.244   6.163  1.00  0.00     0.021 A 
HETATM   21  C   UNL     1      45.516 -11.106   6.757  1.00  0.00     0.170 A 
HETATM   22  N   UNL     1      45.767 -10.627   7.985  1.00  0.00    -0.224 NA
HETATM   23  C   UNL     1      44.726 -10.175   8.704  1.00  0.00     0.072 A 
HETATM   24  C   UNL     1      43.399 -10.219   8.201  1.00  0.00    -0.004 A 
HETATM   25  C   UNL     1      44.957  -9.621   9.958  1.00  0.00     0.072 A 
HETATM   26  C   UNL     1      43.199 -10.771   6.924  1.00  0.00     0.027 A 
HETATM   27  C   UNL     1      42.330  -9.695   8.951  1.00  0.00     0.053 A 
HETATM   28  C   UNL     1      42.616  -9.132  10.174  1.00  0.00     0.106 A 
HETATM   29  C   UNL     1      43.894  -9.101  10.666  1.00  0.00     0.107 A 
HETATM   30  O   UNL     1      41.721  -8.548  11.013  1.00  0.00    -0.323 OA
HETATM   31  O   UNL     1      43.968  -8.494  11.880  1.00  0.00    -0.323 OA
HETATM   32  C   UNL     1      42.591  -8.108  12.079  1.00  0.00     0.352 A 
BRANCH  21  33
HETATM   33  O   UNL     1      46.653 -11.417   6.097  1.00  0.00    -0.344 OA
HETATM   34  H   UNL     1      47.254 -10.735   6.460  1.00  0.00     0.219 HD
ENDBRANCH  21  33
ENDBRANCH  19  20
ENDBRANCH   1  19
BRANCH   1  35
HETATM   35  C   UNL     1      42.279 -12.075   2.926  1.00  0.00     0.238 C 
BRANCH  35  36
HETATM   36  C   UNL     1      41.607 -10.702   2.990  1.00  0.00     0.054 C 
BRANCH  36  37
HETATM   37  C   UNL     1      40.163 -10.807   3.466  1.00  0.00     0.165 C 
BRANCH  37  38
HETATM   38  O   UNL     1      40.101 -11.682   4.579  1.00  0.00    -0.401 OA
HETATM   39  H   UNL     1      40.404 -12.561   4.279  1.00  0.00     0.209 HD
ENDBRANCH  37  38
ENDBRANCH  36  37
ENDBRANCH  35  36
ENDBRANCH   1  35
TORSDOF 12
ENDMDL
MODEL 4
REMARK VINA RESULT:      -7.4      2.643      7.200
REMARK  12 active torsions:
REMARK  status: ('A' for Active; 'I' for Inactive)
REMARK    1  A    between atoms: C_2  and  C_3 
REMARK    2  A    between atoms: C_3  and  N_4 
REMARK    3  A    between atoms: C_3  and  C_25 
REMARK    4  A    between atoms: N_4  and  C_6 
REMARK    5  A    between atoms: N_4  and  C_21 
REMARK    6  A    between atoms: C_6  and  C_7 
REMARK    7  A    between atoms: C_8  and  O_9 
REMARK    8  A    between atoms: C_21  and  C_22 
REMARK    9  A    between atoms: C_22  and  C_23 
REMARK   10  A    between atoms: C_23  and  O_24 
REMARK   11  A    between atoms: N_26  and  C_27 
REMARK   12  A    between atoms: C_27  and  C_28 
ROOT
HETATM    1  N   UNL     1      41.919 -11.870   4.148  1.00  0.00    -0.055 N 
HETATM    2  H   UNL     1      42.207 -10.985   4.578  1.00  0.00     0.281 HD
ENDROOT
BRANCH   1   3
HETATM    3  C   UNL     1      42.583 -12.888   5.117  1.00  0.00     0.263 C 
BRANCH   3   4
HETATM    4  C   UNL     1      43.223 -12.253   6.390  1.00  0.00     0.016 C 
HETATM    5  C   UNL     1      43.463 -10.747   6.186  1.00  0.00     0.012 C 
HETATM    6  C   UNL     1      44.519 -12.882   6.893  1.00  0.00     0.012 C 
ENDBRANCH   3   4
BRANCH   3   7
HETATM    7  C   UNL     1      41.757 -14.110   5.388  1.00  0.00     0.168 A 
HETATM    8  N   UNL     1      41.591 -15.203   4.565  1.00  0.00    -0.257 N 
HETATM    9  N   UNL     1      40.731 -16.062   5.135  1.00  0.00    -0.003 NA
HETATM   10  N   UNL     1      40.399 -15.523   6.295  1.00  0.00     0.018 NA
HETATM   11  N   UNL     1      41.025 -14.323   6.464  1.00  0.00    -0.145 NA
BRANCH   8  12
HETATM   12  C   UNL     1      42.181 -15.551   3.283  1.00  0.00     0.186 C 
BRANCH  12  13
HETATM   13  C   UNL     1      42.803 -16.925   3.278  1.00  0.00    -0.039 A 
HETATM   14  C   UNL     1      42.502 -17.823   2.241  1.00  0.00     0.009 A 
HETATM   15  C   UNL     1      43.104 -19.081   2.195  1.00  0.00     0.001 A 
HETATM   16  C   UNL     1      44.022 -19.451   3.175  1.00  0.00     0.000 A 
HETATM   17  C   UNL     1      44.344 -18.562   4.198  1.00  0.00     0.001 A 
HETATM   18  C   UNL     1      43.744 -17.303   4.249  1.00  0.00     0.009 A 
ENDBRANCH  12  13
ENDBRANCH   8  12
ENDBRANCH   3   7
ENDBRANCH   1   3
BRANCH   1  19
HETATM   19  C   UNL     1      42.478 -11.665   2.733  1.00  0.00     0.278 C 
BRANCH  19  20
HETATM   20  C   UNL     1      41.648 -11.790   1.494  1.00  0.00     0.021 A 
HETATM   21  C   UNL     1      41.545 -10.793   0.541  1.00  0.00     0.170 A 
HETATM   22  N   UNL     1      40.898 -10.871  -0.633  1.00  0.00    -0.224 NA
HETATM   23  C   UNL     1      40.337 -12.046  -0.960  1.00  0.00     0.072 A 
HETATM   24  C   UNL     1      40.400 -13.169  -0.093  1.00  0.00    -0.004 A 
HETATM   25  C   UNL     1      39.708 -12.178  -2.192  1.00  0.00     0.072 A 
HETATM   26  C   UNL     1      41.056 -13.010   1.141  1.00  0.00     0.027 A 
HETATM   27  C   UNL     1      39.848 -14.405  -0.477  1.00  0.00     0.053 A 
HETATM   28  C   UNL     1      39.261 -14.490  -1.718  1.00  0.00     0.106 A 
HETATM   29  C   UNL     1      39.187 -13.404  -2.551  1.00  0.00     0.107 A 
HETATM   30  O   UNL     1      38.712 -15.604  -2.268  1.00  0.00    -0.323 OA
HETATM   31  O   UNL     1      38.582 -13.696  -3.733  1.00  0.00    -0.323 OA
HETATM   32  C   UNL     1      38.318 -15.105  -3.565  1.00  0.00     0.352 A 
BRANCH  21  33
HETATM   33  O   UNL     1      42.161  -9.601   0.698  1.00  0.00    -0.344 OA
HETATM   34  H   UNL     1      42.828  -9.658  -0.018  1.00  0.00     0.219 HD
ENDBRANCH  21  33
ENDBRANCH  19  20
ENDBRANCH   1  19
BRANCH   1  35
HETATM   35  C   UNL     1      40.400 -11.823   4.274  1.00  0.00     0.238 C 
BRANCH  35  36
HETATM   36  C   UNL     1      39.937 -10.740   5.250  1.00  0.00     0.054 C 
BRANCH  36  37
HETATM   37  C   UNL     1      39.029 -11.311   6.332  1.00  0.00     0.165 C 
BRANCH  37  38
HETATM   38  O   UNL     1      38.793 -12.682   6.067  1.00  0.00    -0.401 OA
HETATM   39  H   UNL     1      38.906 -13.168   6.907  1.00  0.00     0.209 HD
ENDBRANCH  37  38
ENDBRANCH  36  37
ENDBRANCH  35  36
ENDBRANCH   1  35
TORSDOF 12
ENDMDL
MODEL 5
REMARK VINA RESULT:      -7.2      3.847      7.965
REMARK  12 active torsions:
REMARK  status: ('A' for Active; 'I' for Inactive)
REMARK    1  A    between atoms: C_2  and  C_3 
REMARK    2  A    between atoms: C_3  and  N_4 
REMARK    3  A    between atoms: C_3  and  C_25 
REMARK    4  A    between atoms: N_4  and  C_6 
REMARK    5  A    between atoms: N_4  and  C_21 
REMARK    6  A    between atoms: C_6  and  C_7 
REMARK    7  A    between atoms: C_8  and  O_9 
REMARK    8  A    between atoms: C_21  and  C_22 
REMARK    9  A    between atoms: C_22  and  C_23 
REMARK   10  A    between atoms: C_23  and  O_24 
REMARK   11  A    between atoms: N_26  and  C_27 
REMARK   12  A    between atoms: C_27  and  C_28 
ROOT
HETATM    1  N   UNL     1      41.584 -13.290   3.858  1.00  0.00    -0.055 N 
HETATM    2  H   UNL     1      40.819 -13.836   4.270  1.00  0.00     0.281 HD
ENDROOT
BRANCH   1   3
HETATM    3  C   UNL     1      42.749 -13.661   4.819  1.00  0.00     0.263 C 
BRANCH   3   4
HETATM    4  C   UNL     1      43.474 -12.439   5.464  1.00  0.00     0.016 C 
HETATM    5  C   UNL     1      44.295 -11.674   4.413  1.00  0.00     0.012 C 
HETATM    6  C   UNL     1      44.377 -12.730   6.660  1.00  0.00     0.012 C 
ENDBRANCH   3   4
BRANCH   3   7
HETATM    7  C   UNL     1      42.426 -14.764   5.783  1.00  0.00     0.168 A 
HETATM    8  N   UNL     1      43.074 -15.973   5.912  1.00  0.00    -0.257 N 
HETATM    9  N   UNL     1      42.452 -16.712   6.844  1.00  0.00    -0.003 NA
HETATM   10  N   UNL     1      41.463 -15.964   7.297  1.00  0.00     0.018 NA
HETATM   11  N   UNL     1      41.436 -14.761   6.654  1.00  0.00    -0.145 NA
BRANCH   8  12
HETATM   12  C   UNL     1      44.254 -16.516   5.261  1.00  0.00     0.186 C 
BRANCH  12  13
HETATM   13  C   UNL     1      43.921 -17.513   4.181  1.00  0.00    -0.039 A 
HETATM   14  C   UNL     1      44.294 -18.859   4.333  1.00  0.00     0.009 A 
HETATM   15  C   UNL     1      43.952 -19.804   3.366  1.00  0.00     0.001 A 
HETATM   16  C   UNL     1      43.223 -19.420   2.243  1.00  0.00     0.000 A 
HETATM   17  C   UNL     1      42.830 -18.093   2.088  1.00  0.00     0.001 A 
HETATM   18  C   UNL     1      43.170 -17.143   3.053  1.00  0.00     0.009 A 
ENDBRANCH  12  13
ENDBRANCH   8  12
ENDBRANCH   3   7
ENDBRANCH   1   3
BRANCH   1  19
HETATM   19  C   UNL     1      40.956 -11.891   3.902  1.00  0.00     0.278 C 
BRANCH  19  20
HETATM   20  C   UNL     1      40.361 -11.294   5.138  1.00  0.00     0.021 A 
HETATM   21  C   UNL     1      39.526 -11.988   5.994  1.00  0.00     0.170 A 
HETATM   22  N   UNL     1      39.033 -11.549   7.163  1.00  0.00    -0.224 NA
HETATM   23  C   UNL     1      39.425 -10.338   7.591  1.00  0.00     0.072 A 
HETATM   24  C   UNL     1      40.313  -9.532   6.832  1.00  0.00    -0.004 A 
HETATM   25  C   UNL     1      38.978  -9.876   8.824  1.00  0.00     0.072 A 
HETATM   26  C   UNL     1      40.760 -10.032   5.596  1.00  0.00     0.027 A 
HETATM   27  C   UNL     1      40.750  -8.288   7.322  1.00  0.00     0.053 A 
HETATM   28  C   UNL     1      40.300  -7.889   8.560  1.00  0.00     0.106 A 
HETATM   29  C   UNL     1      39.433  -8.660   9.288  1.00  0.00     0.107 A 
HETATM   30  O   UNL     1      40.644  -6.743   9.204  1.00  0.00    -0.323 OA
HETATM   31  O   UNL     1      39.118  -8.098  10.485  1.00  0.00    -0.323 OA
HETATM   32  C   UNL     1      39.922  -6.899  10.445  1.00  0.00     0.352 A 
BRANCH  21  33
HETATM   33  O   UNL     1      39.148 -13.259   5.735  1.00  0.00    -0.344 OA
HETATM   34  H   UNL     1      38.868 -13.540   6.631  1.00  0.00     0.219 HD
ENDBRANCH  21  33
ENDBRANCH  19  20
ENDBRANCH   1  19
BRANCH   1  35
HETATM   35  C   UNL     1      41.728 -13.911   2.473  1.00  0.00     0.238 C 
BRANCH  35  36
HETATM   36  C   UNL     1      40.371 -14.169   1.814  1.00  0.00     0.054 C 
BRANCH  36  37
HETATM   37  C   UNL     1      39.745 -15.467   2.311  1.00  0.00     0.165 C 
BRANCH  37  38
HETATM   38  O   UNL     1      39.986 -15.599   3.700  1.00  0.00    -0.401 OA
HETATM   39  H   UNL     1      40.275 -16.518   3.863  1.00  0.00     0.209 HD
ENDBRANCH  37  38
ENDBRANCH  36  37
ENDBRANCH  35  36
ENDBRANCH   1  35
TORSDOF 12
ENDMDL
MODEL 6
REMARK VINA RESULT:      -7.1      2.570      7.844
REMARK  12 active torsions:
REMARK  status: ('A' for Active; 'I' for Inactive)
REMARK    1  A    between atoms: C_2  and  C_3 
REMARK    2  A    between atoms: C_3  and  N_4 
REMARK    3  A    between atoms: C_3  and  C_25 
REMARK    4  A    between atoms: N_4  and  C_6 
REMARK    5  A    between atoms: N_4  and  C_21 
REMARK    6  A    between atoms: C_6  and  C_7 
REMARK    7  A    between atoms: C_8  and  O_9 
REMARK    8  A    between atoms: C_21  and  C_22 
REMARK    9  A    between atoms: C_22  and  C_23 
REMARK   10  A    between atoms: C_23  and  O_24 
REMARK   11  A    between atoms: N_26  and  C_27 
REMARK   12  A    between atoms: C_27  and  C_28 
ROOT
HETATM    1  N   UNL     1      41.717 -13.707   3.714  1.00  0.00    -0.055 N 
HETATM    2  H   UNL     1      41.883 -12.735   3.434  1.00  0.00     0.281 HD
ENDROOT
BRANCH   1   3
HETATM    3  C   UNL     1      42.819 -13.885   4.796  1.00  0.00     0.263 C 
BRANCH   3   4
HETATM    4  C   UNL     1      43.315 -12.556   5.445  1.00  0.00     0.016 C 
HETATM    5  C   UNL     1      43.819 -11.578   4.368  1.00  0.00     0.012 C 
HETATM    6  C   UNL     1      44.387 -12.677   6.523  1.00  0.00     0.012 C 
ENDBRANCH   3   4
BRANCH   3   7
HETATM    7  C   UNL     1      42.545 -14.984   5.780  1.00  0.00     0.168 A 
HETATM    8  N   UNL     1      43.189 -16.199   5.871  1.00  0.00    -0.257 N 
HETATM    9  N   UNL     1      42.618 -16.932   6.841  1.00  0.00    -0.003 NA
HETATM   10  N   UNL     1      41.665 -16.173   7.352  1.00  0.00     0.018 NA
HETATM   11  N   UNL     1      41.611 -14.971   6.710  1.00  0.00    -0.145 NA
BRANCH   8  12
HETATM   12  C   UNL     1      44.321 -16.754   5.150  1.00  0.00     0.186 C 
BRANCH  12  13
HETATM   13  C   UNL     1      43.933 -17.882   4.227  1.00  0.00    -0.039 A 
HETATM   14  C   UNL     1      43.267 -17.601   3.023  1.00  0.00     0.009 A 
HETATM   15  C   UNL     1      42.942 -18.627   2.136  1.00  0.00     0.001 A 
HETATM   16  C   UNL     1      43.289 -19.943   2.434  1.00  0.00     0.000 A 
HETATM   17  C   UNL     1      43.967 -20.233   3.615  1.00  0.00     0.001 A 
HETATM   18  C   UNL     1      44.295 -19.210   4.506  1.00  0.00     0.009 A 
ENDBRANCH  12  13
ENDBRANCH   8  12
ENDBRANCH   3   7
ENDBRANCH   1   3
BRANCH   1  19
HETATM   19  C   UNL     1      41.849 -14.396   2.349  1.00  0.00     0.278 C 
BRANCH  19  20
HETATM   20  C   UNL     1      41.201 -13.883   1.101  1.00  0.00     0.021 A 
HETATM   21  C   UNL     1      40.171 -14.538   0.453  1.00  0.00     0.170 A 
HETATM   22  N   UNL     1      39.484 -14.093  -0.611  1.00  0.00    -0.224 NA
HETATM   23  C   UNL     1      39.770 -12.864  -1.071  1.00  0.00     0.072 A 
HETATM   24  C   UNL     1      40.779 -12.063  -0.474  1.00  0.00    -0.004 A 
HETATM   25  C   UNL     1      39.039 -12.350  -2.135  1.00  0.00     0.072 A 
HETATM   26  C   UNL     1      41.491 -12.603   0.610  1.00  0.00     0.027 A 
HETATM   27  C   UNL     1      41.029 -10.759  -0.941  1.00  0.00     0.053 A 
HETATM   28  C   UNL     1      40.258 -10.287  -1.979  1.00  0.00     0.106 A 
HETATM   29  C   UNL     1      39.294 -11.064  -2.565  1.00  0.00     0.107 A 
HETATM   30  O   UNL     1      40.334  -9.048  -2.531  1.00  0.00    -0.323 OA
HETATM   31  O   UNL     1      38.638 -10.414  -3.562  1.00  0.00    -0.323 OA
HETATM   32  C   UNL     1      39.274  -9.119  -3.510  1.00  0.00     0.352 A 
BRANCH  21  33
HETATM   33  O   UNL     1      39.710 -15.732   0.886  1.00  0.00    -0.344 OA
HETATM   34  H   UNL     1      38.819 -15.729   0.479  1.00  0.00     0.219 HD
ENDBRANCH  21  33
ENDBRANCH  19  20
ENDBRANCH   1  19
BRANCH   1  35
HETATM   35  C   UNL     1      40.308 -13.651   4.295  1.00  0.00     0.238 C 
BRANCH  35  36
HETATM   36  C   UNL     1      39.774 -12.219   4.372  1.00  0.00     0.054 C 
BRANCH  36  37
HETATM   37  C   UNL     1      39.739 -11.710   5.808  1.00  0.00     0.165 C 
BRANCH  37  38
HETATM   38  O   UNL     1      39.749 -12.816   6.694  1.00  0.00    -0.401 OA
HETATM   39  H   UNL     1      40.669 -13.141   6.749  1.00  0.00     0.209 HD
ENDBRANCH  37  38
ENDBRANCH  36  37
ENDBRANCH  35  36
ENDBRANCH   1  35
TORSDOF 12
ENDMDL
MODEL 7
REMARK VINA RESULT:      -7.0      4.420      6.548
REMARK  12 active torsions:
REMARK  status: ('A' for Active; 'I' for Inactive)
REMARK    1  A    between atoms: C_2  and  C_3 
REMARK    2  A    between atoms: C_3  and  N_4 
REMARK    3  A    between atoms: C_3  and  C_25 
REMARK    4  A    between atoms: N_4  and  C_6 
REMARK    5  A    between atoms: N_4  and  C_21 
REMARK    6  A    between atoms: C_6  and  C_7 
REMARK    7  A    between atoms: C_8  and  O_9 
REMARK    8  A    between atoms: C_21  and  C_22 
REMARK    9  A    between atoms: C_22  and  C_23 
REMARK   10  A    between atoms: C_23  and  O_24 
REMARK   11  A    between atoms: N_26  and  C_27 
REMARK   12  A    between atoms: C_27  and  C_28 
ROOT
HETATM    1  N   UNL     1      42.537 -11.670   6.016  1.00  0.00    -0.055 N 
HETATM    2  H   UNL     1      42.566 -11.864   7.023  1.00  0.00     0.281 HD
ENDROOT
BRANCH   1   3
HETATM    3  C   UNL     1      41.810 -10.296   6.010  1.00  0.00     0.263 C 
BRANCH   3   4
HETATM    4  C   UNL     1      41.727  -9.611   4.611  1.00  0.00     0.016 C 
HETATM    5  C   UNL     1      41.276  -8.146   4.747  1.00  0.00     0.012 C 
HETATM    6  C   UNL     1      40.845 -10.289   3.566  1.00  0.00     0.012 C 
ENDBRANCH   3   4
BRANCH   3   7
HETATM    7  C   UNL     1      40.524 -10.276   6.782  1.00  0.00     0.168 A 
HETATM    8  N   UNL     1      40.175  -9.408   7.794  1.00  0.00    -0.257 N 
HETATM    9  N   UNL     1      38.968  -9.749   8.274  1.00  0.00    -0.003 NA
HETATM   10  N   UNL     1      38.573 -10.783   7.554  1.00  0.00     0.018 NA
HETATM   11  N   UNL     1      39.520 -11.117   6.630  1.00  0.00    -0.145 NA
BRANCH   8  12
HETATM   12  C   UNL     1      40.852  -8.253   8.359  1.00  0.00     0.186 C 
BRANCH  12  13
HETATM   13  C   UNL     1      41.918  -8.630   9.357  1.00  0.00    -0.039 A 
HETATM   14  C   UNL     1      41.597  -9.462  10.442  1.00  0.00     0.009 A 
HETATM   15  C   UNL     1      42.580  -9.859  11.348  1.00  0.00     0.001 A 
HETATM   16  C   UNL     1      43.898  -9.440  11.175  1.00  0.00     0.000 A 
HETATM   17  C   UNL     1      44.234  -8.630  10.092  1.00  0.00     0.001 A 
HETATM   18  C   UNL     1      43.253  -8.231   9.183  1.00  0.00     0.009 A 
ENDBRANCH  12  13
ENDBRANCH   8  12
ENDBRANCH   3   7
ENDBRANCH   1   3
BRANCH   1  19
HETATM   19  C   UNL     1      41.815 -12.934   5.530  1.00  0.00     0.278 C 
BRANCH  19  20
HETATM   20  C   UNL     1      42.480 -14.270   5.415  1.00  0.00     0.021 A 
HETATM   21  C   UNL     1      43.041 -14.938   6.488  1.00  0.00     0.170 A 
HETATM   22  N   UNL     1      43.569 -16.172   6.475  1.00  0.00    -0.224 NA
HETATM   23  C   UNL     1      43.502 -16.869   5.330  1.00  0.00     0.072 A 
HETATM   24  C   UNL     1      42.914 -16.321   4.159  1.00  0.00    -0.004 A 
HETATM   25  C   UNL     1      43.987 -18.171   5.298  1.00  0.00     0.072 A 
HETATM   26  C   UNL     1      42.418 -15.008   4.226  1.00  0.00     0.027 A 
HETATM   27  C   UNL     1      42.809 -17.087   2.983  1.00  0.00     0.053 A 
HETATM   28  C   UNL     1      43.281 -18.380   3.012  1.00  0.00     0.106 A 
HETATM   29  C   UNL     1      43.860 -18.905   4.137  1.00  0.00     0.107 A 
HETATM   30  O   UNL     1      43.230 -19.272   1.989  1.00  0.00    -0.323 OA
HETATM   31  O   UNL     1      44.248 -20.196   3.967  1.00  0.00    -0.323 OA
HETATM   32  C   UNL     1      43.809 -20.439   2.613  1.00  0.00     0.352 A 
BRANCH  21  33
HETATM   33  O   UNL     1      43.069 -14.391   7.723  1.00  0.00    -0.344 OA
HETATM   34  H   UNL     1      43.252 -13.457   7.493  1.00  0.00     0.219 HD
ENDBRANCH  21  33
ENDBRANCH  19  20
ENDBRANCH   1  19
BRANCH   1  35
HETATM   35  C   UNL     1      44.015 -11.570   5.654  1.00  0.00     0.238 C 
BRANCH  35  36
HETATM   36  C   UNL     1      44.778 -10.641   6.600  1.00  0.00     0.054 C 
BRANCH  36  37
HETATM   37  C   UNL     1      45.081 -11.321   7.929  1.00  0.00     0.165 C 
BRANCH  37  38
HETATM   38  O   UNL     1      43.871 -11.778   8.507  1.00  0.00    -0.401 OA
HETATM   39  H   UNL     1      43.434 -12.359   7.854  1.00  0.00     0.209 HD
ENDBRANCH  37  38
ENDBRANCH  36  37
ENDBRANCH  35  36
ENDBRANCH   1  35
TORSDOF 12
ENDMDL
MODEL 8
REMARK VINA RESULT:      -6.9      5.128      7.677
REMARK  12 active torsions:
REMARK  status: ('A' for Active; 'I' for Inactive)
REMARK    1  A    between atoms: C_2  and  C_3 
REMARK    2  A    between atoms: C_3  and  N_4 
REMARK    3  A    between atoms: C_3  and  C_25 
REMARK    4  A    between atoms: N_4  and  C_6 
REMARK    5  A    between atoms: N_4  and  C_21 
REMARK    6  A    between atoms: C_6  and  C_7 
REMARK    7  A    between atoms: C_8  and  O_9 
REMARK    8  A    between atoms: C_21  and  C_22 
REMARK    9  A    between atoms: C_22  and  C_23 
REMARK   10  A    between atoms: C_23  and  O_24 
REMARK   11  A    between atoms: N_26  and  C_27 
REMARK   12  A    between atoms: C_27  and  C_28 
ROOT
HETATM    1  N   UNL     1      43.348 -12.440   6.824  1.00  0.00    -0.055 N 
HETATM    2  H   UNL     1      44.125 -12.799   6.258  1.00  0.00     0.281 HD
ENDROOT
BRANCH   1   3
HETATM    3  C   UNL     1      44.114 -11.498   7.795  1.00  0.00     0.263 C 
BRANCH   3   4
HETATM    4  C   UNL     1      45.593 -11.210   7.391  1.00  0.00     0.016 C 
HETATM    5  C   UNL     1      46.043  -9.833   7.911  1.00  0.00     0.012 C 
HETATM    6  C   UNL     1      45.927 -11.294   5.904  1.00  0.00     0.012 C 
ENDBRANCH   3   4
BRANCH   3   7
HETATM    7  C   UNL     1      43.341 -10.281   8.209  1.00  0.00     0.168 A 
HETATM    8  N   UNL     1      43.070  -9.864   9.494  1.00  0.00    -0.257 N 
HETATM    9  N   UNL     1      42.303  -8.763   9.451  1.00  0.00    -0.003 NA
HETATM   10  N   UNL     1      42.131  -8.493   8.170  1.00  0.00     0.018 NA
HETATM   11  N   UNL     1      42.766  -9.418   7.394  1.00  0.00    -0.145 NA
BRANCH   8  12
HETATM   12  C   UNL     1      43.480 -10.381  10.789  1.00  0.00     0.186 C 
BRANCH  12  13
HETATM   13  C   UNL     1      42.966  -9.554  11.940  1.00  0.00    -0.039 A 
HETATM   14  C   UNL     1      41.856  -9.996  12.677  1.00  0.00     0.009 A 
HETATM   15  C   UNL     1      41.396  -9.267  13.774  1.00  0.00     0.001 A 
HETATM   16  C   UNL     1      42.047  -8.096  14.155  1.00  0.00     0.000 A 
HETATM   17  C   UNL     1      43.161  -7.656  13.445  1.00  0.00     0.001 A 
HETATM   18  C   UNL     1      43.625  -8.382  12.347  1.00  0.00     0.009 A 
ENDBRANCH  12  13
ENDBRANCH   8  12
ENDBRANCH   3   7
ENDBRANCH   1   3
BRANCH   1  19
HETATM   19  C   UNL     1      42.763 -13.766   7.328  1.00  0.00     0.278 C 
BRANCH  19  20
HETATM   20  C   UNL     1      43.172 -15.103   6.794  1.00  0.00     0.021 A 
HETATM   21  C   UNL     1      43.478 -16.185   7.600  1.00  0.00     0.170 A 
HETATM   22  N   UNL     1      43.761 -17.432   7.191  1.00  0.00    -0.224 NA
HETATM   23  C   UNL     1      43.687 -17.691   5.876  1.00  0.00     0.072 A 
HETATM   24  C   UNL     1      43.344 -16.683   4.937  1.00  0.00    -0.004 A 
HETATM   25  C   UNL     1      43.919 -18.985   5.425  1.00  0.00     0.072 A 
HETATM   26  C   UNL     1      43.101 -15.387   5.424  1.00  0.00     0.027 A 
HETATM   27  C   UNL     1      43.225 -16.987   3.568  1.00  0.00     0.053 A 
HETATM   28  C   UNL     1      43.437 -18.289   3.177  1.00  0.00     0.106 A 
HETATM   29  C   UNL     1      43.781 -19.261   4.080  1.00  0.00     0.107 A 
HETATM   30  O   UNL     1      43.330 -18.771   1.911  1.00  0.00    -0.323 OA
HETATM   31  O   UNL     1      43.935 -20.479   3.498  1.00  0.00    -0.323 OA
HETATM   32  C   UNL     1      43.607 -20.172   2.126  1.00  0.00     0.352 A 
BRANCH  21  33
HETATM   33  O   UNL     1      43.474 -16.085   8.947  1.00  0.00    -0.344 OA
HETATM   34  H   UNL     1      43.399 -15.114   9.046  1.00  0.00     0.219 HD
ENDBRANCH  21  33
ENDBRANCH  19  20
ENDBRANCH   1  19
BRANCH   1  35
HETATM   35  C   UNL     1      42.506 -11.691   5.798  1.00  0.00     0.238 C 
BRANCH  35  36
HETATM   36  C   UNL     1      41.057 -12.181   5.774  1.00  0.00     0.054 C 
BRANCH  36  37
HETATM   37  C   UNL     1      40.634 -12.611   4.374  1.00  0.00     0.165 C 
BRANCH  37  38
HETATM   38  O   UNL     1      39.824 -13.769   4.466  1.00  0.00    -0.401 OA
HETATM   39  H   UNL     1      39.777 -14.021   5.409  1.00  0.00     0.209 HD
ENDBRANCH  37  38
ENDBRANCH  36  37
ENDBRANCH  35  36
ENDBRANCH   1  35
TORSDOF 12
ENDMDL
MODEL 9
REMARK VINA RESULT:      -6.9      4.116      6.464
REMARK  12 active torsions:
REMARK  status: ('A' for Active; 'I' for Inactive)
REMARK    1  A    between atoms: C_2  and  C_3 
REMARK    2  A    between atoms: C_3  and  N_4 
REMARK    3  A    between atoms: C_3  and  C_25 
REMARK    4  A    between atoms: N_4  and  C_6 
REMARK    5  A    between atoms: N_4  and  C_21 
REMARK    6  A    between atoms: C_6  and  C_7 
REMARK    7  A    between atoms: C_8  and  O_9 
REMARK    8  A    between atoms: C_21  and  C_22 
REMARK    9  A    between atoms: C_22  and  C_23 
REMARK   10  A    between atoms: C_23  and  O_24 
REMARK   11  A    between atoms: N_26  and  C_27 
REMARK   12  A    between atoms: C_27  and  C_28 
ROOT
HETATM    1  N   UNL     1      41.409 -11.336   6.288  1.00  0.00    -0.055 N 
HETATM    2  H   UNL     1      41.827 -11.532   7.204  1.00  0.00     0.281 HD
ENDROOT
BRANCH   1   3
HETATM    3  C   UNL     1      40.862  -9.901   6.525  1.00  0.00     0.263 C 
BRANCH   3   4
HETATM    4  C   UNL     1      40.147  -9.265   5.292  1.00  0.00     0.016 C 
HETATM    5  C   UNL     1      40.168  -7.729   5.380  1.00  0.00     0.012 C 
HETATM    6  C   UNL     1      38.712  -9.711   5.026  1.00  0.00     0.012 C 
ENDBRANCH   3   4
BRANCH   3   7
HETATM    7  C   UNL     1      40.124  -9.728   7.819  1.00  0.00     0.168 A 
HETATM    8  N   UNL     1      40.461  -8.895   8.865  1.00  0.00    -0.257 N 
HETATM    9  N   UNL     1      39.587  -9.067   9.869  1.00  0.00    -0.003 NA
HETATM   10  N   UNL     1      38.717  -9.963   9.439  1.00  0.00     0.018 NA
HETATM   11  N   UNL     1      39.034 -10.376   8.179  1.00  0.00    -0.145 NA
BRANCH   8  12
HETATM   12  C   UNL     1      41.523  -7.915   9.021  1.00  0.00     0.186 C 
BRANCH  12  13
HETATM   13  C   UNL     1      42.865  -8.545   9.298  1.00  0.00    -0.039 A 
HETATM   14  C   UNL     1      43.957  -8.258   8.461  1.00  0.00     0.009 A 
HETATM   15  C   UNL     1      45.216  -8.794   8.729  1.00  0.00     0.001 A 
HETATM   16  C   UNL     1      45.403  -9.613   9.841  1.00  0.00     0.000 A 
HETATM   17  C   UNL     1      44.334  -9.890  10.689  1.00  0.00     0.001 A 
HETATM   18  C   UNL     1      43.072  -9.356  10.426  1.00  0.00     0.009 A 
ENDBRANCH  12  13
ENDBRANCH   8  12
ENDBRANCH   3   7
ENDBRANCH   1   3
BRANCH   1  19
HETATM   19  C   UNL     1      40.446 -12.528   6.184  1.00  0.00     0.278 C 
BRANCH  19  20
HETATM   20  C   UNL     1      40.693 -13.710   5.301  1.00  0.00     0.021 A 
HETATM   21  C   UNL     1      40.105 -13.871   4.060  1.00  0.00     0.170 A 
HETATM   22  N   UNL     1      40.350 -14.855   3.180  1.00  0.00    -0.224 NA
HETATM   23  C   UNL     1      41.302 -15.749   3.490  1.00  0.00     0.072 A 
HETATM   24  C   UNL     1      42.016 -15.681   4.716  1.00  0.00    -0.004 A 
HETATM   25  C   UNL     1      41.620 -16.747   2.577  1.00  0.00     0.072 A 
HETATM   26  C   UNL     1      41.682 -14.652   5.614  1.00  0.00     0.027 A 
HETATM   27  C   UNL     1      43.044 -16.599   4.999  1.00  0.00     0.053 A 
HETATM   28  C   UNL     1      43.338 -17.550   4.050  1.00  0.00     0.106 A 
HETATM   29  C   UNL     1      42.641 -17.626   2.873  1.00  0.00     0.107 A 
HETATM   30  O   UNL     1      44.317 -18.489   4.136  1.00  0.00    -0.323 OA
HETATM   31  O   UNL     1      43.091 -18.623   2.066  1.00  0.00    -0.323 OA
HETATM   32  C   UNL     1      44.183 -19.143   2.855  1.00  0.00     0.352 A 
BRANCH  21  33
HETATM   33  O   UNL     1      39.214 -12.976   3.580  1.00  0.00    -0.344 OA
HETATM   34  H   UNL     1      39.694 -12.667   2.784  1.00  0.00     0.219 HD
ENDBRANCH  21  33
ENDBRANCH  19  20
ENDBRANCH   1  19
BRANCH   1  35
HETATM   35  C   UNL     1      42.614 -11.374   5.356  1.00  0.00     0.238 C 
BRANCH  35  36
HETATM   36  C   UNL     1      43.925 -11.111   6.100  1.00  0.00     0.054 C 
BRANCH  36  37
HETATM   37  C   UNL     1      44.331 -12.303   6.958  1.00  0.00     0.165 C 
BRANCH  37  38
HETATM   38  O   UNL     1      43.624 -12.258   8.184  1.00  0.00    -0.401 OA
HETATM   39  H   UNL     1      44.116 -11.665   8.786  1.00  0.00     0.209 HD
ENDBRANCH  37  38
ENDBRANCH  36  37
ENDBRANCH  35  36
ENDBRANCH   1  35
TORSDOF 12
ENDMDL
MODEL 10
REMARK VINA RESULT:      -6.9      3.530      5.650
REMARK  12 active torsions:
REMARK  status: ('A' for Active; 'I' for Inactive)
REMARK    1  A    between atoms: C_2  and  C_3 
REMARK    2  A    between atoms: C_3  and  N_4 
REMARK    3  A    between atoms: C_3  and  C_25 
REMARK    4  A    between atoms: N_4  and  C_6 
REMARK    5  A    between atoms: N_4  and  C_21 
REMARK    6  A    between atoms: C_6  and  C_7 
REMARK    7  A    between atoms: C_8  and  O_9 
REMARK    8  A    between atoms: C_21  and  C_22 
REMARK    9  A    between atoms: C_22  and  C_23 
REMARK   10  A    between atoms: C_23  and  O_24 
REMARK   11  A    between atoms: N_26  and  C_27 
REMARK   12  A    between atoms: C_27  and  C_28 
ROOT
HETATM    1  N   UNL     1      41.817 -12.471   4.722  1.00  0.00    -0.055 N 
HETATM    2  H   UNL     1      41.531 -11.757   4.043  1.00  0.00     0.281 HD
ENDROOT
BRANCH   1   3
HETATM    3  C   UNL     1      42.151 -11.579   5.951  1.00  0.00     0.263 C 
BRANCH   3   4
HETATM    4  C   UNL     1      43.503 -11.917   6.651  1.00  0.00     0.016 C 
HETATM    5  C   UNL     1      44.693 -11.441   5.800  1.00  0.00     0.012 C 
HETATM    6  C   UNL     1      43.735 -13.378   7.027  1.00  0.00     0.012 C 
ENDBRANCH   3   4
BRANCH   3   7
HETATM    7  C   UNL     1      41.922 -10.114   5.728  1.00  0.00     0.168 A 
HETATM    8  N   UNL     1      41.664  -9.157   6.686  1.00  0.00    -0.257 N 
HETATM    9  N   UNL     1      41.460  -7.973   6.087  1.00  0.00    -0.003 NA
HETATM   10  N   UNL     1      41.618  -8.192   4.794  1.00  0.00     0.018 NA
HETATM   11  N   UNL     1      41.905  -9.504   4.559  1.00  0.00    -0.145 NA
BRANCH   8  12
HETATM   12  C   UNL     1      41.609  -9.225   8.137  1.00  0.00     0.186 C 
BRANCH  12  13
HETATM   13  C   UNL     1      42.975  -9.289   8.773  1.00  0.00    -0.039 A 
HETATM   14  C   UNL     1      43.183 -10.103   9.898  1.00  0.00     0.009 A 
HETATM   15  C   UNL     1      44.450 -10.211  10.470  1.00  0.00     0.001 A 
HETATM   16  C   UNL     1      45.526  -9.518   9.919  1.00  0.00     0.000 A 
HETATM   17  C   UNL     1      45.337  -8.722   8.792  1.00  0.00     0.001 A 
HETATM   18  C   UNL     1      44.071  -8.612   8.215  1.00  0.00     0.009 A 
ENDBRANCH  12  13
ENDBRANCH   8  12
ENDBRANCH   3   7
ENDBRANCH   1   3
BRANCH   1  19
HETATM   19  C   UNL     1      42.940 -13.150   3.926  1.00  0.00     0.278 C 
BRANCH  19  20
HETATM   20  C   UNL     1      42.894 -14.583   3.497  1.00  0.00     0.021 A 
HETATM   21  C   UNL     1      42.665 -14.982   2.193  1.00  0.00     0.170 A 
HETATM   22  N   UNL     1      42.703 -16.239   1.722  1.00  0.00    -0.224 NA
HETATM   23  C   UNL     1      43.054 -17.215   2.574  1.00  0.00     0.072 A 
HETATM   24  C   UNL     1      43.357 -16.943   3.934  1.00  0.00    -0.004 A 
HETATM   25  C   UNL     1      43.158 -18.520   2.106  1.00  0.00     0.072 A 
HETATM   26  C   UNL     1      43.258 -15.612   4.376  1.00  0.00     0.027 A 
HETATM   27  C   UNL     1      43.771 -17.975   4.797  1.00  0.00     0.053 A 
HETATM   28  C   UNL     1      43.884 -19.243   4.277  1.00  0.00     0.106 A 
HETATM   29  C   UNL     1      43.580 -19.510   2.968  1.00  0.00     0.107 A 
HETATM   30  O   UNL     1      44.302 -20.348   4.949  1.00  0.00    -0.323 OA
HETATM   31  O   UNL     1      43.767 -20.817   2.648  1.00  0.00    -0.323 OA
HETATM   32  C   UNL     1      44.265 -21.338   3.899  1.00  0.00     0.352 A 
BRANCH  21  33
HETATM   33  O   UNL     1      42.414 -14.085   1.215  1.00  0.00    -0.344 OA
HETATM   34  H   UNL     1      43.319 -13.744   1.059  1.00  0.00     0.219 HD
ENDBRANCH  21  33
ENDBRANCH  19  20
ENDBRANCH   1  19
BRANCH   1  35
HETATM   35  C   UNL     1      40.543 -13.289   4.902  1.00  0.00     0.238 C 
BRANCH  35  36
HETATM   36  C   UNL     1      39.367 -12.704   4.116  1.00  0.00     0.054 C 
BRANCH  36  37
HETATM   37  C   UNL     1      39.815 -12.144   2.771  1.00  0.00     0.165 C 
BRANCH  37  38
HETATM   38  O   UNL     1      39.891 -10.733   2.855  1.00  0.00    -0.401 OA
HETATM   39  H   UNL     1      40.159 -10.506   3.767  1.00  0.00     0.209 HD
ENDBRANCH  37  38
ENDBRANCH  36  37
ENDBRANCH  35  36
ENDBRANCH   1  35
TORSDOF 12
ENDMDL
