MODEL 1
REMARK VINA RESULT:      -8.7      0.000      0.000
REMARK  6 active torsions:
REMARK  status: ('A' for Active; 'I' for Inactive)
REMARK    1  A    between atoms: O_2  and  C_3 
REMARK    2  A    between atoms: C_6  and  C_7 
REMARK    3  A    between atoms: C_11  and  C_12 
REMARK       I    between atoms: C_12  and  N_13 
REMARK    4  A    between atoms: N_13  and  N_14 
REMARK       I    between atoms: N_14  and  C_15 
REMARK    5  A    between atoms: C_15  and  C_16 
REMARK    6  A    between atoms: C_16  and  C_17 
ROOT
HETATM    1  C   UNL     1      42.566 -11.440   5.725  1.00  0.00     0.288 C 
HETATM    2  N   UNL     1      42.726 -11.575   7.088  1.00  0.00    -0.262 N 
HETATM    3  O   UNL     1      42.462 -10.337   5.189  1.00  0.00    -0.264 OA
HETATM    4  H   UNL     1      42.978 -12.464   7.517  1.00  0.00     0.190 HD
ENDROOT
BRANCH   1   5
HETATM    5  C   UNL     1      42.555 -12.669   4.980  1.00  0.00     0.121 A 
HETATM    6  N   UNL     1      42.004 -12.752   3.732  1.00  0.00    -0.272 N 
HETATM    7  N   UNL     1      42.088 -13.969   3.173  1.00  0.00    -0.174 NA
HETATM    8  H   UNL     1      41.554 -12.004   3.213  1.00  0.00     0.189 HD
HETATM    9  C   UNL     1      42.746 -14.714   4.076  1.00  0.00     0.089 A 
HETATM   10  C   UNL     1      43.036 -13.938   5.233  1.00  0.00     0.071 A 
BRANCH   9  11
HETATM   11  C   UNL     1      43.077 -16.120   3.825  1.00  0.00    -0.005 A 
HETATM   12  C   UNL     1      42.642 -16.769   2.662  1.00  0.00     0.016 A 
HETATM   13  C   UNL     1      42.965 -18.112   2.436  1.00  0.00     0.037 A 
HETATM   14  C   UNL     1      43.726 -18.830   3.358  1.00  0.00     0.068 A 
HETATM   15  C   UNL     1      44.158 -18.195   4.522  1.00  0.00     0.037 A 
HETATM   16  C   UNL     1      43.832 -16.851   4.753  1.00  0.00     0.016 A 
BRANCH  14  17
HETATM   17  O   UNL     1      43.971 -20.129   3.010  1.00  0.00    -0.356 OA
HETATM   18  C   UNL     1      43.581 -20.526   1.701  1.00  0.00     0.210 C 
ENDBRANCH  14  17
ENDBRANCH   9  11
ENDBRANCH   1   5
BRANCH   2  19
HETATM   19  N   UNL     1      43.053 -10.434   7.838  1.00  0.00    -0.267 N 
HETATM   20  C   UNL     1      44.353 -10.339   8.292  1.00  0.00     0.240 C 
HETATM   21  O   UNL     1      45.134 -11.289   8.242  1.00  0.00    -0.272 OA
HETATM   22  H   UNL     1      42.450  -9.620   7.713  1.00  0.00     0.190 HD
BRANCH  20  23
HETATM   23  C   UNL     1      44.730  -8.984   8.855  1.00  0.00     0.148 C 
BRANCH  23  24
HETATM   24  C   UNL     1      43.888  -8.594  10.041  1.00  0.00     0.011 A 
HETATM   25  C   UNL     1      42.993  -7.517  10.028  1.00  0.00     0.043 A 
HETATM   26 CL   UNL     1      42.793  -6.515   8.634  1.00  0.00    -0.084 Cl
HETATM   27  C   UNL     1      42.225  -7.210  11.159  1.00  0.00     0.024 A 
HETATM   28  C   UNL     1      42.334  -7.982  12.315  1.00  0.00     0.005 A 
HETATM   29  C   UNL     1      43.209  -9.063  12.339  1.00  0.00     0.043 A 
HETATM   30  C   UNL     1      43.971  -9.358  11.211  1.00  0.00     0.124 A 
HETATM   31  F   UNL     1      44.811 -10.401  11.267  1.00  0.00    -0.205 F 
ENDBRANCH  23  24
ENDBRANCH  20  23
ENDBRANCH   2  19
TORSDOF 6
ENDMDL
MODEL 2
REMARK VINA RESULT:      -8.3      1.727      2.162
REMARK  6 active torsions:
REMARK  status: ('A' for Active; 'I' for Inactive)
REMARK    1  A    between atoms: O_2  and  C_3 
REMARK    2  A    between atoms: C_6  and  C_7 
REMARK    3  A    between atoms: C_11  and  C_12 
REMARK       I    between atoms: C_12  and  N_13 
REMARK    4  A    between atoms: N_13  and  N_14 
REMARK       I    between atoms: N_14  and  C_15 
REMARK    5  A    between atoms: C_15  and  C_16 
REMARK    6  A    between atoms: C_16  and  C_17 
ROOT
HETATM    1  C   UNL     1      43.768 -11.865   7.365  1.00  0.00     0.288 C 
HETATM    2  N   UNL     1      42.717 -11.009   7.618  1.00  0.00    -0.262 N 
HETATM    3  O   UNL     1      44.879 -11.696   7.865  1.00  0.00    -0.264 OA
HETATM    4  H   UNL     1      41.761 -11.232   7.346  1.00  0.00     0.190 HD
ENDROOT
BRANCH   1   5
HETATM    5  C   UNL     1      43.466 -12.973   6.500  1.00  0.00     0.121 A 
HETATM    6  N   UNL     1      42.526 -12.884   5.513  1.00  0.00    -0.272 N 
HETATM    7  N   UNL     1      42.378 -14.004   4.791  1.00  0.00    -0.174 NA
HETATM    8  H   UNL     1      41.953 -12.076   5.288  1.00  0.00     0.189 HD
HETATM    9  C   UNL     1      43.276 -14.861   5.302  1.00  0.00     0.089 A 
HETATM   10  C   UNL     1      43.963 -14.256   6.392  1.00  0.00     0.071 A 
BRANCH   9  11
HETATM   11  C   UNL     1      43.457 -16.209   4.756  1.00  0.00    -0.005 A 
HETATM   12  C   UNL     1      43.050 -16.523   3.453  1.00  0.00     0.016 A 
HETATM   13  C   UNL     1      43.228 -17.815   2.945  1.00  0.00     0.037 A 
HETATM   14  C   UNL     1      43.817 -18.814   3.721  1.00  0.00     0.068 A 
HETATM   15  C   UNL     1      44.219 -18.513   5.022  1.00  0.00     0.037 A 
HETATM   16  C   UNL     1      44.037 -17.222   5.534  1.00  0.00     0.016 A 
BRANCH  14  17
HETATM   17  O   UNL     1      43.934 -20.026   3.100  1.00  0.00    -0.356 OA
HETATM   18  C   UNL     1      43.201 -20.202   1.894  1.00  0.00     0.210 C 
ENDBRANCH  14  17
ENDBRANCH   9  11
ENDBRANCH   1   5
BRANCH   2  19
HETATM   19  N   UNL     1      42.840 -10.096   8.678  1.00  0.00    -0.267 N 
HETATM   20  C   UNL     1      42.433  -8.800   8.436  1.00  0.00     0.240 C 
HETATM   21  O   UNL     1      42.179  -8.396   7.301  1.00  0.00    -0.272 OA
HETATM   22  H   UNL     1      42.888 -10.494   9.617  1.00  0.00     0.190 HD
BRANCH  20  23
HETATM   23  C   UNL     1      42.330  -7.926   9.669  1.00  0.00     0.148 C 
BRANCH  23  24
HETATM   24  C   UNL     1      41.777  -8.665  10.858  1.00  0.00     0.011 A 
HETATM   25  C   UNL     1      40.437  -9.060  10.964  1.00  0.00     0.043 A 
HETATM   26 CL   UNL     1      39.283  -8.707   9.727  1.00  0.00    -0.084 Cl
HETATM   27  C   UNL     1      39.983  -9.758  12.090  1.00  0.00     0.024 A 
HETATM   28  C   UNL     1      40.864 -10.080  13.123  1.00  0.00     0.005 A 
HETATM   29  C   UNL     1      42.199  -9.705  13.026  1.00  0.00     0.043 A 
HETATM   30  C   UNL     1      42.642  -9.009  11.904  1.00  0.00     0.124 A 
HETATM   31  F   UNL     1      43.933  -8.655  11.844  1.00  0.00    -0.205 F 
ENDBRANCH  23  24
ENDBRANCH  20  23
ENDBRANCH   2  19
TORSDOF 6
ENDMDL
MODEL 3
REMARK VINA RESULT:      -8.3      1.458      1.716
REMARK  6 active torsions:
REMARK  status: ('A' for Active; 'I' for Inactive)
REMARK    1  A    between atoms: O_2  and  C_3 
REMARK    2  A    between atoms: C_6  and  C_7 
REMARK    3  A    between atoms: C_11  and  C_12 
REMARK       I    between atoms: C_12  and  N_13 
REMARK    4  A    between atoms: N_13  and  N_14 
REMARK       I    between atoms: N_14  and  C_15 
REMARK    5  A    between atoms: C_15  and  C_16 
REMARK    6  A    between atoms: C_16  and  C_17 
ROOT
HETATM    1  C   UNL     1      42.198 -11.594   5.752  1.00  0.00     0.288 C 
HETATM    2  N   UNL     1      42.526 -11.606   7.091  1.00  0.00    -0.262 N 
HETATM    3  O   UNL     1      42.005 -10.544   5.140  1.00  0.00    -0.264 OA
HETATM    4  H   UNL     1      42.848 -12.451   7.561  1.00  0.00     0.190 HD
ENDROOT
BRANCH   1   5
HETATM    5  C   UNL     1      42.120 -12.884   5.123  1.00  0.00     0.121 A 
HETATM    6  N   UNL     1      41.064 -13.240   4.333  1.00  0.00    -0.272 N 
HETATM    7  N   UNL     1      41.155 -14.474   3.816  1.00  0.00    -0.174 NA
HETATM    8  H   UNL     1      40.249 -12.675   4.113  1.00  0.00     0.189 HD
HETATM    9  C   UNL     1      42.333 -14.944   4.259  1.00  0.00     0.089 A 
HETATM   10  C   UNL     1      42.958 -13.981   5.101  1.00  0.00     0.071 A 
BRANCH   9  11
HETATM   11  C   UNL     1      42.828 -16.270   3.880  1.00  0.00    -0.005 A 
HETATM   12  C   UNL     1      42.504 -16.838   2.642  1.00  0.00     0.016 A 
HETATM   13  C   UNL     1      42.983 -18.106   2.294  1.00  0.00     0.037 A 
HETATM   14  C   UNL     1      43.795 -18.829   3.169  1.00  0.00     0.068 A 
HETATM   15  C   UNL     1      44.118 -18.275   4.407  1.00  0.00     0.037 A 
HETATM   16  C   UNL     1      43.636 -17.007   4.759  1.00  0.00     0.016 A 
BRANCH  14  17
HETATM   17  O   UNL     1      44.196 -20.049   2.701  1.00  0.00    -0.356 OA
HETATM   18  C   UNL     1      43.486 -20.572   1.586  1.00  0.00     0.210 C 
ENDBRANCH  14  17
ENDBRANCH   9  11
ENDBRANCH   1   5
BRANCH   2  19
HETATM   19  N   UNL     1      42.920 -10.400   7.693  1.00  0.00    -0.267 N 
HETATM   20  C   UNL     1      44.243 -10.295   8.072  1.00  0.00     0.240 C 
HETATM   21  O   UNL     1      44.996 -11.268   8.091  1.00  0.00    -0.272 OA
HETATM   22  H   UNL     1      42.332  -9.586   7.507  1.00  0.00     0.190 HD
BRANCH  20  23
HETATM   23  C   UNL     1      44.682  -8.898   8.462  1.00  0.00     0.148 C 
BRANCH  23  24
HETATM   24  C   UNL     1      43.981  -8.394   9.695  1.00  0.00     0.011 A 
HETATM   25  C   UNL     1      44.081  -9.015  10.947  1.00  0.00     0.043 A 
HETATM   26 CL   UNL     1      45.014 -10.451  11.179  1.00  0.00    -0.084 Cl
HETATM   27  C   UNL     1      43.416  -8.490  12.062  1.00  0.00     0.024 A 
HETATM   28  C   UNL     1      42.649  -7.330  11.945  1.00  0.00     0.005 A 
HETATM   29  C   UNL     1      42.552  -6.695  10.712  1.00  0.00     0.043 A 
HETATM   30  C   UNL     1      43.214  -7.226   9.607  1.00  0.00     0.124 A 
HETATM   31  F   UNL     1      43.094  -6.595   8.431  1.00  0.00    -0.205 F 
ENDBRANCH  23  24
ENDBRANCH  20  23
ENDBRANCH   2  19
TORSDOF 6
ENDMDL
MODEL 4
REMARK VINA RESULT:      -8.2      2.126      2.654
REMARK  6 active torsions:
REMARK  status: ('A' for Active; 'I' for Inactive)
REMARK    1  A    between atoms: O_2  and  C_3 
REMARK    2  A    between atoms: C_6  and  C_7 
REMARK    3  A    between atoms: C_11  and  C_12 
REMARK       I    between atoms: C_12  and  N_13 
REMARK    4  A    between atoms: N_13  and  N_14 
REMARK       I    between atoms: N_14  and  C_15 
REMARK    5  A    between atoms: C_15  and  C_16 
REMARK    6  A    between atoms: C_16  and  C_17 
ROOT
HETATM    1  C   UNL     1      43.588 -11.943   7.335  1.00  0.00     0.288 C 
HETATM    2  N   UNL     1      42.692 -10.913   7.138  1.00  0.00    -0.262 N 
HETATM    3  O   UNL     1      44.605 -11.798   8.013  1.00  0.00    -0.264 OA
HETATM    4  H   UNL     1      41.774 -11.067   6.724  1.00  0.00     0.190 HD
ENDROOT
BRANCH   1   5
HETATM    5  C   UNL     1      43.239 -13.192   6.716  1.00  0.00     0.121 A 
HETATM    6  N   UNL     1      41.943 -13.522   6.437  1.00  0.00    -0.272 N 
HETATM    7  N   UNL     1      41.794 -14.718   5.849  1.00  0.00    -0.174 NA
HETATM    8  H   UNL     1      41.116 -12.964   6.629  1.00  0.00     0.189 HD
HETATM    9  C   UNL     1      43.044 -15.187   5.708  1.00  0.00     0.089 A 
HETATM   10  C   UNL     1      43.977 -14.266   6.261  1.00  0.00     0.071 A 
BRANCH   9  11
HETATM   11  C   UNL     1      43.319 -16.475   5.064  1.00  0.00    -0.005 A 
HETATM   12  C   UNL     1      43.140 -16.648   3.686  1.00  0.00     0.016 A 
HETATM   13  C   UNL     1      43.406 -17.884   3.085  1.00  0.00     0.037 A 
HETATM   14  C   UNL     1      43.857 -18.966   3.842  1.00  0.00     0.068 A 
HETATM   15  C   UNL     1      44.032 -18.805   5.216  1.00  0.00     0.037 A 
HETATM   16  C   UNL     1      43.762 -17.570   5.821  1.00  0.00     0.016 A 
BRANCH  14  17
HETATM   17  O   UNL     1      44.082 -20.109   3.127  1.00  0.00    -0.356 OA
HETATM   18  C   UNL     1      43.382 -20.244   1.897  1.00  0.00     0.210 C 
ENDBRANCH  14  17
ENDBRANCH   9  11
ENDBRANCH   1   5
BRANCH   2  19
HETATM   19  N   UNL     1      42.798  -9.772   7.950  1.00  0.00    -0.267 N 
HETATM   20  C   UNL     1      41.618  -9.207   8.390  1.00  0.00     0.240 C 
HETATM   21  O   UNL     1      40.524  -9.538   7.931  1.00  0.00    -0.272 OA
HETATM   22  H   UNL     1      43.688  -9.638   8.431  1.00  0.00     0.190 HD
BRANCH  20  23
HETATM   23  C   UNL     1      41.781  -8.156   9.468  1.00  0.00     0.148 C 
BRANCH  23  24
HETATM   24  C   UNL     1      41.544  -8.703  10.851  1.00  0.00     0.011 A 
HETATM   25  C   UNL     1      42.574  -9.156  11.686  1.00  0.00     0.043 A 
HETATM   26 CL   UNL     1      44.227  -9.147  11.181  1.00  0.00    -0.084 Cl
HETATM   27  C   UNL     1      42.294  -9.642  12.970  1.00  0.00     0.024 A 
HETATM   28  C   UNL     1      40.981  -9.672  13.441  1.00  0.00     0.005 A 
HETATM   29  C   UNL     1      39.950  -9.214  12.628  1.00  0.00     0.043 A 
HETATM   30  C   UNL     1      40.238  -8.735  11.352  1.00  0.00     0.124 A 
HETATM   31  F   UNL     1      39.221  -8.307  10.590  1.00  0.00    -0.205 F 
ENDBRANCH  23  24
ENDBRANCH  20  23
ENDBRANCH   2  19
TORSDOF 6
ENDMDL
MODEL 5
REMARK VINA RESULT:      -8.1      3.662     10.552
REMARK  6 active torsions:
REMARK  status: ('A' for Active; 'I' for Inactive)
REMARK    1  A    between atoms: O_2  and  C_3 
REMARK    2  A    between atoms: C_6  and  C_7 
REMARK    3  A    between atoms: C_11  and  C_12 
REMARK       I    between atoms: C_12  and  N_13 
REMARK    4  A    between atoms: N_13  and  N_14 
REMARK       I    between atoms: N_14  and  C_15 
REMARK    5  A    between atoms: C_15  and  C_16 
REMARK    6  A    between atoms: C_16  and  C_17 
ROOT
HETATM    1  C   UNL     1      44.130 -11.229   7.285  1.00  0.00     0.288 C 
HETATM    2  N   UNL     1      43.134 -12.158   7.070  1.00  0.00    -0.262 N 
HETATM    3  O   UNL     1      44.906 -10.889   6.393  1.00  0.00    -0.264 OA
HETATM    4  H   UNL     1      42.391 -12.320   7.748  1.00  0.00     0.190 HD
ENDROOT
BRANCH   1   5
HETATM    5  C   UNL     1      44.182 -10.675   8.610  1.00  0.00     0.121 A 
HETATM    6  N   UNL     1      45.361 -10.305   9.194  1.00  0.00    -0.272 N 
HETATM    7  N   UNL     1      45.228  -9.796  10.428  1.00  0.00    -0.174 NA
HETATM    8  H   UNL     1      46.290 -10.380   8.791  1.00  0.00     0.189 HD
HETATM    9  C   UNL     1      43.906  -9.803  10.660  1.00  0.00     0.089 A 
HETATM   10  C   UNL     1      43.217 -10.369   9.550  1.00  0.00     0.071 A 
BRANCH   9  11
HETATM   11  C   UNL     1      43.337  -9.283  11.907  1.00  0.00    -0.005 A 
HETATM   12  C   UNL     1      43.719  -8.034  12.412  1.00  0.00     0.016 A 
HETATM   13  C   UNL     1      43.168  -7.551  13.604  1.00  0.00     0.037 A 
HETATM   14  C   UNL     1      42.226  -8.299  14.312  1.00  0.00     0.068 A 
HETATM   15  C   UNL     1      41.844  -9.547  13.821  1.00  0.00     0.037 A 
HETATM   16  C   UNL     1      42.398 -10.034  12.630  1.00  0.00     0.016 A 
BRANCH  14  17
HETATM   17  O   UNL     1      41.768  -7.706  15.455  1.00  0.00    -0.356 OA
HETATM   18  C   UNL     1      41.334  -6.356  15.347  1.00  0.00     0.210 C 
ENDBRANCH  14  17
ENDBRANCH   9  11
ENDBRANCH   1   5
BRANCH   2  19
HETATM   19  N   UNL     1      42.825 -12.510   5.746  1.00  0.00    -0.267 N 
HETATM   20  C   UNL     1      41.735 -13.337   5.559  1.00  0.00     0.240 C 
HETATM   21  O   UNL     1      41.189 -13.919   6.496  1.00  0.00    -0.272 OA
HETATM   22  H   UNL     1      43.180 -11.891   5.017  1.00  0.00     0.190 HD
BRANCH  20  23
HETATM   23  C   UNL     1      41.279 -13.469   4.121  1.00  0.00     0.148 C 
BRANCH  23  24
HETATM   24  C   UNL     1      41.944 -14.615   3.405  1.00  0.00     0.011 A 
HETATM   25  C   UNL     1      41.549 -15.950   3.556  1.00  0.00     0.043 A 
HETATM   26 CL   UNL     1      40.259 -16.405   4.612  1.00  0.00    -0.084 Cl
HETATM   27  C   UNL     1      42.198 -16.973   2.852  1.00  0.00     0.024 A 
HETATM   28  C   UNL     1      43.244 -16.674   1.978  1.00  0.00     0.005 A 
HETATM   29  C   UNL     1      43.638 -15.351   1.808  1.00  0.00     0.043 A 
HETATM   30  C   UNL     1      42.989 -14.341   2.515  1.00  0.00     0.124 A 
HETATM   31  F   UNL     1      43.398 -13.077   2.335  1.00  0.00    -0.205 F 
ENDBRANCH  23  24
ENDBRANCH  20  23
ENDBRANCH   2  19
TORSDOF 6
ENDMDL
MODEL 6
REMARK VINA RESULT:      -8.0     18.016     20.638
REMARK  6 active torsions:
REMARK  status: ('A' for Active; 'I' for Inactive)
REMARK    1  A    between atoms: O_2  and  C_3 
REMARK    2  A    between atoms: C_6  and  C_7 
REMARK    3  A    between atoms: C_11  and  C_12 
REMARK       I    between atoms: C_12  and  N_13 
REMARK    4  A    between atoms: N_13  and  N_14 
REMARK       I    between atoms: N_14  and  C_15 
REMARK    5  A    between atoms: C_15  and  C_16 
REMARK    6  A    between atoms: C_16  and  C_17 
ROOT
HETATM    1  C   UNL     1      47.033 -28.940   2.475  1.00  0.00     0.288 C 
HETATM    2  N   UNL     1      47.252 -28.231   1.313  1.00  0.00    -0.262 N 
HETATM    3  O   UNL     1      45.910 -29.056   2.964  1.00  0.00    -0.264 OA
HETATM    4  H   UNL     1      48.141 -28.270   0.816  1.00  0.00     0.190 HD
ENDROOT
BRANCH   1   5
HETATM    5  C   UNL     1      48.198 -29.549   3.056  1.00  0.00     0.121 A 
HETATM    6  N   UNL     1      49.433 -29.438   2.482  1.00  0.00    -0.272 N 
HETATM    7  N   UNL     1      50.412 -30.056   3.160  1.00  0.00    -0.174 NA
HETATM    8  H   UNL     1      49.664 -28.950   1.622  1.00  0.00     0.189 HD
HETATM    9  C   UNL     1      49.806 -30.572   4.240  1.00  0.00     0.089 A 
HETATM   10  C   UNL     1      48.411 -30.294   4.199  1.00  0.00     0.071 A 
BRANCH   9  11
HETATM   11  C   UNL     1      50.551 -31.306   5.268  1.00  0.00    -0.005 A 
HETATM   12  C   UNL     1      51.859 -30.943   5.612  1.00  0.00     0.016 A 
HETATM   13  C   UNL     1      52.558 -31.653   6.595  1.00  0.00     0.037 A 
HETATM   14  C   UNL     1      51.968 -32.732   7.254  1.00  0.00     0.068 A 
HETATM   15  C   UNL     1      50.669 -33.106   6.914  1.00  0.00     0.037 A 
HETATM   16  C   UNL     1      49.969 -32.399   5.927  1.00  0.00     0.016 A 
BRANCH  14  17
HETATM   17  O   UNL     1      52.761 -33.331   8.192  1.00  0.00    -0.356 OA
HETATM   18  C   UNL     1      52.568 -32.933   9.544  1.00  0.00     0.210 C 
ENDBRANCH  14  17
ENDBRANCH   9  11
ENDBRANCH   1   5
BRANCH   2  19
HETATM   19  N   UNL     1      46.143 -27.875   0.529  1.00  0.00    -0.267 N 
HETATM   20  C   UNL     1      46.262 -28.046  -0.835  1.00  0.00     0.240 C 
HETATM   21  O   UNL     1      47.344 -28.288  -1.371  1.00  0.00    -0.272 OA
HETATM   22  H   UNL     1      45.241 -27.845   1.006  1.00  0.00     0.190 HD
BRANCH  20  23
HETATM   23  C   UNL     1      44.966 -27.909  -1.607  1.00  0.00     0.148 C 
BRANCH  23  24
HETATM   24  C   UNL     1      44.746 -29.040  -2.577  1.00  0.00     0.011 A 
HETATM   25  C   UNL     1      44.342 -30.322  -2.184  1.00  0.00     0.043 A 
HETATM   26 CL   UNL     1      44.081 -30.727  -0.525  1.00  0.00    -0.084 Cl
HETATM   27  C   UNL     1      44.140 -31.331  -3.135  1.00  0.00     0.024 A 
HETATM   28  C   UNL     1      44.329 -31.070  -4.492  1.00  0.00     0.005 A 
HETATM   29  C   UNL     1      44.717 -29.797  -4.897  1.00  0.00     0.043 A 
HETATM   30  C   UNL     1      44.919 -28.801  -3.945  1.00  0.00     0.124 A 
HETATM   31  F   UNL     1      45.301 -27.587  -4.367  1.00  0.00    -0.205 F 
ENDBRANCH  23  24
ENDBRANCH  20  23
ENDBRANCH   2  19
TORSDOF 6
ENDMDL
MODEL 7
REMARK VINA RESULT:      -7.9      3.485     10.683
REMARK  6 active torsions:
REMARK  status: ('A' for Active; 'I' for Inactive)
REMARK    1  A    between atoms: O_2  and  C_3 
REMARK    2  A    between atoms: C_6  and  C_7 
REMARK    3  A    between atoms: C_11  and  C_12 
REMARK       I    between atoms: C_12  and  N_13 
REMARK    4  A    between atoms: N_13  and  N_14 
REMARK       I    between atoms: N_14  and  C_15 
REMARK    5  A    between atoms: C_15  and  C_16 
REMARK    6  A    between atoms: C_16  and  C_17 
ROOT
HETATM    1  C   UNL     1      44.018 -10.778   8.209  1.00  0.00     0.288 C 
HETATM    2  N   UNL     1      43.545 -12.025   7.856  1.00  0.00    -0.262 N 
HETATM    3  O   UNL     1      44.943 -10.239   7.604  1.00  0.00    -0.264 OA
HETATM    4  H   UNL     1      42.681 -12.403   8.239  1.00  0.00     0.190 HD
ENDROOT
BRANCH   1   5
HETATM    5  C   UNL     1      43.342 -10.151   9.312  1.00  0.00     0.121 A 
HETATM    6  N   UNL     1      42.005  -9.872   9.275  1.00  0.00    -0.272 N 
HETATM    7  N   UNL     1      41.531  -9.297  10.390  1.00  0.00    -0.174 NA
HETATM    8  H   UNL     1      41.365 -10.054   8.507  1.00  0.00     0.189 HD
HETATM    9  C   UNL     1      42.592  -9.218  11.210  1.00  0.00     0.089 A 
HETATM   10  C   UNL     1      43.752  -9.724  10.559  1.00  0.00     0.071 A 
BRANCH   9  11
HETATM   11  C   UNL     1      42.483  -8.673  12.566  1.00  0.00    -0.005 A 
HETATM   12  C   UNL     1      41.566  -9.198  13.485  1.00  0.00     0.016 A 
HETATM   13  C   UNL     1      41.472  -8.667  14.777  1.00  0.00     0.037 A 
HETATM   14  C   UNL     1      42.288  -7.609  15.177  1.00  0.00     0.068 A 
HETATM   15  C   UNL     1      43.199  -7.074  14.267  1.00  0.00     0.037 A 
HETATM   16  C   UNL     1      43.292  -7.602  12.971  1.00  0.00     0.016 A 
BRANCH  14  17
HETATM   17  O   UNL     1      42.095  -7.192  16.464  1.00  0.00    -0.356 OA
HETATM   18  C   UNL     1      40.929  -7.669  17.124  1.00  0.00     0.210 C 
ENDBRANCH  14  17
ENDBRANCH   9  11
ENDBRANCH   1   5
BRANCH   2  19
HETATM   19  N   UNL     1      43.937 -12.561   6.619  1.00  0.00    -0.267 N 
HETATM   20  C   UNL     1      42.931 -12.850   5.718  1.00  0.00     0.240 C 
HETATM   21  O   UNL     1      41.743 -12.851   6.043  1.00  0.00    -0.272 OA
HETATM   22  H   UNL     1      44.901 -12.388   6.333  1.00  0.00     0.190 HD
BRANCH  20  23
HETATM   23  C   UNL     1      43.407 -13.166   4.315  1.00  0.00     0.148 C 
BRANCH  23  24
HETATM   24  C   UNL     1      42.759 -14.400   3.747  1.00  0.00     0.011 A 
HETATM   25  C   UNL     1      41.843 -14.371   2.688  1.00  0.00     0.043 A 
HETATM   26 CL   UNL     1      41.355 -12.888   1.947  1.00  0.00    -0.084 Cl
HETATM   27  C   UNL     1      41.283 -15.555   2.192  1.00  0.00     0.024 A 
HETATM   28  C   UNL     1      41.639 -16.787   2.742  1.00  0.00     0.005 A 
HETATM   29  C   UNL     1      42.556 -16.833   3.786  1.00  0.00     0.043 A 
HETATM   30  C   UNL     1      43.106 -15.650   4.274  1.00  0.00     0.124 A 
HETATM   31  F   UNL     1      43.982 -15.727   5.286  1.00  0.00    -0.205 F 
ENDBRANCH  23  24
ENDBRANCH  20  23
ENDBRANCH   2  19
TORSDOF 6
ENDMDL
MODEL 8
REMARK VINA RESULT:      -7.9      3.760     10.660
REMARK  6 active torsions:
REMARK  status: ('A' for Active; 'I' for Inactive)
REMARK    1  A    between atoms: O_2  and  C_3 
REMARK    2  A    between atoms: C_6  and  C_7 
REMARK    3  A    between atoms: C_11  and  C_12 
REMARK       I    between atoms: C_12  and  N_13 
REMARK    4  A    between atoms: N_13  and  N_14 
REMARK       I    between atoms: N_14  and  C_15 
REMARK    5  A    between atoms: C_15  and  C_16 
REMARK    6  A    between atoms: C_16  and  C_17 
ROOT
HETATM    1  C   UNL     1      43.458 -11.689   6.960  1.00  0.00     0.288 C 
HETATM    2  N   UNL     1      43.225 -12.948   7.472  1.00  0.00    -0.262 N 
HETATM    3  O   UNL     1      43.454 -11.469   5.749  1.00  0.00    -0.264 OA
HETATM    4  H   UNL     1      43.062 -13.105   8.465  1.00  0.00     0.190 HD
ENDROOT
BRANCH   1   5
HETATM    5  C   UNL     1      43.680 -10.657   7.935  1.00  0.00     0.121 A 
HETATM    6  N   UNL     1      44.816  -9.898   7.937  1.00  0.00    -0.272 N 
HETATM    7  N   UNL     1      44.859  -8.973   8.908  1.00  0.00    -0.174 NA
HETATM    8  H   UNL     1      45.600  -9.971   7.295  1.00  0.00     0.189 HD
HETATM    9  C   UNL     1      43.691  -9.106   9.557  1.00  0.00     0.089 A 
HETATM   10  C   UNL     1      42.933 -10.169   8.989  1.00  0.00     0.071 A 
BRANCH   9  11
HETATM   11  C   UNL     1      43.328  -8.238  10.681  1.00  0.00    -0.005 A 
HETATM   12  C   UNL     1      43.570  -8.629  12.004  1.00  0.00     0.016 A 
HETATM   13  C   UNL     1      43.217  -7.792  13.068  1.00  0.00     0.037 A 
HETATM   14  C   UNL     1      42.621  -6.551  12.836  1.00  0.00     0.068 A 
HETATM   15  C   UNL     1      42.370  -6.156  11.523  1.00  0.00     0.037 A 
HETATM   16  C   UNL     1      42.719  -6.995  10.456  1.00  0.00     0.016 A 
BRANCH  14  17
HETATM   17  O   UNL     1      42.334  -5.835  13.964  1.00  0.00    -0.356 OA
HETATM   18  C   UNL     1      41.127  -6.162  14.641  1.00  0.00     0.210 C 
ENDBRANCH  14  17
ENDBRANCH   9  11
ENDBRANCH   1   5
BRANCH   2  19
HETATM   19  N   UNL     1      42.701 -13.930   6.616  1.00  0.00    -0.267 N 
HETATM   20  C   UNL     1      42.506 -15.186   7.155  1.00  0.00     0.240 C 
HETATM   21  O   UNL     1      42.961 -15.504   8.253  1.00  0.00    -0.272 OA
HETATM   22  H   UNL     1      42.193 -13.594   5.797  1.00  0.00     0.190 HD
BRANCH  20  23
HETATM   23  C   UNL     1      41.697 -16.129   6.288  1.00  0.00     0.148 C 
BRANCH  23  24
HETATM   24  C   UNL     1      42.527 -16.791   5.220  1.00  0.00     0.011 A 
HETATM   25  C   UNL     1      43.312 -17.928   5.451  1.00  0.00     0.043 A 
HETATM   26 CL   UNL     1      43.414 -18.664   7.011  1.00  0.00    -0.084 Cl
HETATM   27  C   UNL     1      44.053 -18.508   4.413  1.00  0.00     0.024 A 
HETATM   28  C   UNL     1      44.012 -17.967   3.128  1.00  0.00     0.005 A 
HETATM   29  C   UNL     1      43.226 -16.846   2.882  1.00  0.00     0.043 A 
HETATM   30  C   UNL     1      42.495 -16.273   3.920  1.00  0.00     0.124 A 
HETATM   31  F   UNL     1      41.754 -15.189   3.652  1.00  0.00    -0.205 F 
ENDBRANCH  23  24
ENDBRANCH  20  23
ENDBRANCH   2  19
TORSDOF 6
ENDMDL
MODEL 9
REMARK VINA RESULT:      -7.8      2.759      3.406
REMARK  6 active torsions:
REMARK  status: ('A' for Active; 'I' for Inactive)
REMARK    1  A    between atoms: O_2  and  C_3 
REMARK    2  A    between atoms: C_6  and  C_7 
REMARK    3  A    between atoms: C_11  and  C_12 
REMARK       I    between atoms: C_12  and  N_13 
REMARK    4  A    between atoms: N_13  and  N_14 
REMARK       I    between atoms: N_14  and  C_15 
REMARK    5  A    between atoms: C_15  and  C_16 
REMARK    6  A    between atoms: C_16  and  C_17 
ROOT
HETATM    1  C   UNL     1      44.170 -12.194   6.839  1.00  0.00     0.288 C 
HETATM    2  N   UNL     1      43.381 -11.677   7.845  1.00  0.00    -0.262 N 
HETATM    3  O   UNL     1      45.375 -11.957   6.771  1.00  0.00    -0.264 OA
HETATM    4  H   UNL     1      42.428 -12.000   8.004  1.00  0.00     0.190 HD
ENDROOT
BRANCH   1   5
HETATM    5  C   UNL     1      43.492 -13.042   5.897  1.00  0.00     0.121 A 
HETATM    6  N   UNL     1      43.273 -14.368   6.146  1.00  0.00    -0.272 N 
HETATM    7  N   UNL     1      42.617 -15.010   5.168  1.00  0.00    -0.174 NA
HETATM    8  H   UNL     1      43.553 -14.887   6.972  1.00  0.00     0.189 HD
HETATM    9  C   UNL     1      42.367 -14.066   4.247  1.00  0.00     0.089 A 
HETATM   10  C   UNL     1      42.921 -12.821   4.660  1.00  0.00     0.071 A 
BRANCH   9  11
HETATM   11  C   UNL     1      41.623 -14.361   3.019  1.00  0.00    -0.005 A 
HETATM   12  C   UNL     1      40.784 -15.479   2.932  1.00  0.00     0.016 A 
HETATM   13  C   UNL     1      40.080 -15.748   1.753  1.00  0.00     0.037 A 
HETATM   14  C   UNL     1      40.195 -14.910   0.643  1.00  0.00     0.068 A 
HETATM   15  C   UNL     1      41.034 -13.799   0.717  1.00  0.00     0.037 A 
HETATM   16  C   UNL     1      41.743 -13.529   1.896  1.00  0.00     0.016 A 
BRANCH  14  17
HETATM   17  O   UNL     1      39.450 -15.289  -0.439  1.00  0.00    -0.356 OA
HETATM   18  C   UNL     1      39.261 -14.316  -1.459  1.00  0.00     0.210 C 
ENDBRANCH  14  17
ENDBRANCH   9  11
ENDBRANCH   1   5
BRANCH   2  19
HETATM   19  N   UNL     1      44.013 -11.104   8.960  1.00  0.00    -0.267 N 
HETATM   20  C   UNL     1      43.932  -9.731   9.085  1.00  0.00     0.240 C 
HETATM   21  O   UNL     1      43.525  -9.015   8.171  1.00  0.00    -0.272 OA
HETATM   22  H   UNL     1      44.182 -11.722   9.754  1.00  0.00     0.190 HD
BRANCH  20  23
HETATM   23  C   UNL     1      44.386  -9.189  10.425  1.00  0.00     0.148 C 
BRANCH  23  24
HETATM   24  C   UNL     1      43.242  -8.966  11.378  1.00  0.00     0.011 A 
HETATM   25  C   UNL     1      42.494  -7.782  11.418  1.00  0.00     0.043 A 
HETATM   26 CL   UNL     1      42.841  -6.449  10.375  1.00  0.00    -0.084 Cl
HETATM   27  C   UNL     1      41.430  -7.638  12.318  1.00  0.00     0.024 A 
HETATM   28  C   UNL     1      41.094  -8.678  13.185  1.00  0.00     0.005 A 
HETATM   29  C   UNL     1      41.820  -9.864  13.147  1.00  0.00     0.043 A 
HETATM   30  C   UNL     1      42.878  -9.997  12.251  1.00  0.00     0.124 A 
HETATM   31  F   UNL     1      43.563 -11.149  12.244  1.00  0.00    -0.205 F 
ENDBRANCH  23  24
ENDBRANCH  20  23
ENDBRANCH   2  19
TORSDOF 6
ENDMDL
MODEL 10
REMARK VINA RESULT:      -7.8      2.085      2.733
REMARK  6 active torsions:
REMARK  status: ('A' for Active; 'I' for Inactive)
REMARK    1  A    between atoms: O_2  and  C_3 
REMARK    2  A    between atoms: C_6  and  C_7 
REMARK    3  A    between atoms: C_11  and  C_12 
REMARK       I    between atoms: C_12  and  N_13 
REMARK    4  A    between atoms: N_13  and  N_14 
REMARK       I    between atoms: N_14  and  C_15 
REMARK    5  A    between atoms: C_15  and  C_16 
REMARK    6  A    between atoms: C_16  and  C_17 
ROOT
HETATM    1  C   UNL     1      41.790 -10.212   5.740  1.00  0.00     0.288 C 
HETATM    2  N   UNL     1      41.469 -10.568   7.034  1.00  0.00    -0.262 N 
HETATM    3  O   UNL     1      41.699  -9.051   5.344  1.00  0.00    -0.264 OA
HETATM    4  H   UNL     1      41.697 -11.485   7.414  1.00  0.00     0.190 HD
ENDROOT
BRANCH   1   5
HETATM    5  C   UNL     1      42.255 -11.284   4.903  1.00  0.00     0.121 A 
HETATM    6  N   UNL     1      43.248 -11.102   3.982  1.00  0.00    -0.272 N 
HETATM    7  N   UNL     1      43.569 -12.207   3.293  1.00  0.00    -0.174 NA
HETATM    8  H   UNL     1      43.743 -10.238   3.781  1.00  0.00     0.189 HD
HETATM    9  C   UNL     1      42.777 -13.166   3.798  1.00  0.00     0.089 A 
HETATM   10  C   UNL     1      41.921 -12.619   4.796  1.00  0.00     0.071 A 
BRANCH   9  11
HETATM   11  C   UNL     1      42.846 -14.553   3.329  1.00  0.00    -0.005 A 
HETATM   12  C   UNL     1      42.475 -15.617   4.161  1.00  0.00     0.016 A 
HETATM   13  C   UNL     1      42.547 -16.937   3.701  1.00  0.00     0.037 A 
HETATM   14  C   UNL     1      42.987 -17.221   2.407  1.00  0.00     0.068 A 
HETATM   15  C   UNL     1      43.365 -16.169   1.574  1.00  0.00     0.037 A 
HETATM   16  C   UNL     1      43.298 -14.847   2.034  1.00  0.00     0.016 A 
BRANCH  14  17
HETATM   17  O   UNL     1      43.003 -18.550   2.088  1.00  0.00    -0.356 OA
HETATM   18  C   UNL     1      43.958 -19.360   2.763  1.00  0.00     0.210 C 
ENDBRANCH  14  17
ENDBRANCH   9  11
ENDBRANCH   1   5
BRANCH   2  19
HETATM   19  N   UNL     1      41.307  -9.548   7.985  1.00  0.00    -0.267 N 
HETATM   20  C   UNL     1      40.039  -9.375   8.503  1.00  0.00     0.240 C 
HETATM   21  O   UNL     1      39.052  -9.925   8.014  1.00  0.00    -0.272 OA
HETATM   22  H   UNL     1      42.150  -9.244   8.473  1.00  0.00     0.190 HD
BRANCH  20  23
HETATM   23  C   UNL     1      39.966  -8.459   9.708  1.00  0.00     0.148 C 
BRANCH  23  24
HETATM   24  C   UNL     1      41.072  -8.713  10.697  1.00  0.00     0.011 A 
HETATM   25  C   UNL     1      42.259  -7.971  10.731  1.00  0.00     0.043 A 
HETATM   26 CL   UNL     1      42.569  -6.696   9.607  1.00  0.00    -0.084 Cl
HETATM   27  C   UNL     1      43.248  -8.245  11.685  1.00  0.00     0.024 A 
HETATM   28  C   UNL     1      43.059  -9.258  12.626  1.00  0.00     0.005 A 
HETATM   29  C   UNL     1      41.879  -9.995  12.612  1.00  0.00     0.043 A 
HETATM   30  C   UNL     1      40.903  -9.717  11.658  1.00  0.00     0.124 A 
HETATM   31  F   UNL     1      39.781 -10.450  11.666  1.00  0.00    -0.205 F 
ENDBRANCH  23  24
ENDBRANCH  20  23
ENDBRANCH   2  19
TORSDOF 6
ENDMDL
