MODEL 1
REMARK VINA RESULT:      -8.6      0.000      0.000
REMARK  5 active torsions:
REMARK  status: ('A' for Active; 'I' for Inactive)
REMARK    1  A    between atoms: C_2  and  N_3 
REMARK    2  A    between atoms: C_6  and  C_7 
REMARK    3  A    between atoms: C_7  and  N_8 
REMARK    4  A    between atoms: C_11  and  O_12 
REMARK    5  A    between atoms: C_13  and  N_14 
ROOT
HETATM    1  N   UNL     1      41.863 -12.512   4.442  1.00  0.00    -0.065 N 
HETATM    2  H   UNL     1      41.862 -13.266   5.144  1.00  0.00     0.280 HD
HETATM    3  C   UNL     1      43.298 -12.103   4.168  1.00  0.00     0.268 C 
HETATM    4  C   UNL     1      43.949 -11.594   5.466  1.00  0.00     0.174 C 
HETATM    5  C   UNL     1      43.094 -10.451   6.063  1.00  0.00     0.220 C 
HETATM    6  C   UNL     1      41.641 -10.867   6.281  1.00  0.00     0.063 C 
HETATM    7  C   UNL     1      41.026 -11.377   4.974  1.00  0.00     0.237 C 
ENDROOT
BRANCH   1   8
HETATM    8  C   UNL     1      41.218 -13.188   3.223  1.00  0.00     0.276 C 
BRANCH   8   9
HETATM    9  C   UNL     1      41.987 -14.398   2.847  1.00  0.00     0.004 A 
HETATM   10  C   UNL     1      42.984 -14.516   1.861  1.00  0.00     0.149 A 
HETATM   11  N   UNL     1      43.545 -15.721   1.850  1.00  0.00    -0.180 NA
HETATM   12  N   UNL     1      42.864 -16.453   2.763  1.00  0.00    -0.245 N 
HETATM   13  C   UNL     1      41.906 -15.669   3.387  1.00  0.00     0.129 A 
BRANCH  12  14
HETATM   14  C   UNL     1      43.206 -17.808   3.034  1.00  0.00     0.058 A 
HETATM   15  C   UNL     1      42.909 -18.796   2.080  1.00  0.00     0.034 A 
HETATM   16  C   UNL     1      43.264 -20.127   2.311  1.00  0.00     0.044 A 
HETATM   17  C   UNL     1      43.912 -20.469   3.491  1.00  0.00     0.116 A 
HETATM   18  C   UNL     1      44.205 -19.506   4.450  1.00  0.00     0.044 A 
HETATM   19  F   UNL     1      44.262 -21.742   3.711  1.00  0.00    -0.206 F 
HETATM   20  C   UNL     1      43.851 -18.171   4.227  1.00  0.00     0.034 A 
ENDBRANCH  12  14
ENDBRANCH   8   9
ENDBRANCH   1   8
BRANCH   4  21
HETATM   21  O   UNL     1      45.257 -11.065   5.263  1.00  0.00    -0.392 OA
HETATM   22  H   UNL     1      45.209 -10.109   5.050  1.00  0.00     0.210 HD
ENDBRANCH   4  21
BRANCH   5  23
HETATM   23  N   UNL     1      43.775  -9.915   7.344  1.00  0.00    -0.064 N 
HETATM   24  H   UNL     1      44.657  -9.513   6.972  1.00  0.00     0.280 HD
HETATM   25  C   UNL     1      43.031  -8.733   7.939  1.00  0.00     0.235 C 
HETATM   26  C   UNL     1      43.856  -7.975   8.974  1.00  0.00     0.028 C 
HETATM   27  C   UNL     1      43.978  -8.710  10.304  1.00  0.00     0.002 C 
HETATM   28  C   UNL     1      45.135  -9.700  10.382  1.00  0.00     0.002 C 
HETATM   29  C   UNL     1      45.418 -10.524   9.131  1.00  0.00     0.028 C 
HETATM   30  C   UNL     1      44.181 -10.966   8.365  1.00  0.00     0.235 C 
ENDBRANCH   5  23
TORSDOF 5
ENDMDL
MODEL 2
REMARK VINA RESULT:      -8.5      3.695      9.638
REMARK  5 active torsions:
REMARK  status: ('A' for Active; 'I' for Inactive)
REMARK    1  A    between atoms: C_2  and  N_3 
REMARK    2  A    between atoms: C_6  and  C_7 
REMARK    3  A    between atoms: C_7  and  N_8 
REMARK    4  A    between atoms: C_11  and  O_12 
REMARK    5  A    between atoms: C_13  and  N_14 
ROOT
HETATM    1  N   UNL     1      43.290 -13.390   4.576  1.00  0.00    -0.065 N 
HETATM    2  H   UNL     1      44.284 -13.561   4.787  1.00  0.00     0.280 HD
HETATM    3  C   UNL     1      42.441 -14.199   5.537  1.00  0.00     0.268 C 
HETATM    4  C   UNL     1      42.749 -15.697   5.367  1.00  0.00     0.174 C 
HETATM    5  C   UNL     1      42.550 -16.104   3.888  1.00  0.00     0.220 C 
HETATM    6  C   UNL     1      43.372 -15.242   2.933  1.00  0.00     0.063 C 
HETATM    7  C   UNL     1      43.050 -13.759   3.134  1.00  0.00     0.237 C 
ENDROOT
BRANCH   1   8
HETATM    8  C   UNL     1      43.151 -11.881   4.820  1.00  0.00     0.276 C 
BRANCH   8   9
HETATM    9  C   UNL     1      43.646 -11.537   6.174  1.00  0.00     0.004 A 
HETATM   10  C   UNL     1      44.885 -11.868   6.751  1.00  0.00     0.149 A 
HETATM   11  N   UNL     1      45.051 -11.314   7.948  1.00  0.00    -0.180 NA
HETATM   12  N   UNL     1      43.885 -10.686   8.229  1.00  0.00    -0.245 N 
HETATM   13  C   UNL     1      43.009 -10.805   7.161  1.00  0.00     0.129 A 
BRANCH  12  14
HETATM   14  C   UNL     1      43.704  -9.961   9.439  1.00  0.00     0.058 A 
HETATM   15  C   UNL     1      43.694 -10.655  10.662  1.00  0.00     0.034 A 
HETATM   16  C   UNL     1      43.549  -9.960  11.865  1.00  0.00     0.044 A 
HETATM   17  C   UNL     1      43.413  -8.579  11.846  1.00  0.00     0.116 A 
HETATM   18  C   UNL     1      43.411  -7.877  10.647  1.00  0.00     0.044 A 
HETATM   19  F   UNL     1      43.284  -7.910  12.999  1.00  0.00    -0.206 F 
HETATM   20  C   UNL     1      43.553  -8.564   9.437  1.00  0.00     0.034 A 
ENDBRANCH  12  14
ENDBRANCH   8   9
ENDBRANCH   1   8
BRANCH   4  21
HETATM   21  O   UNL     1      41.894 -16.533   6.142  1.00  0.00    -0.392 OA
HETATM   22  H   UNL     1      42.312 -16.741   7.005  1.00  0.00     0.210 HD
ENDBRANCH   4  21
BRANCH   5  23
HETATM   23  N   UNL     1      42.820 -17.618   3.731  1.00  0.00    -0.064 N 
HETATM   24  H   UNL     1      42.007 -18.039   4.223  1.00  0.00     0.280 HD
HETATM   25  C   UNL     1      42.681 -18.081   2.292  1.00  0.00     0.235 C 
HETATM   26  C   UNL     1      42.591 -19.599   2.165  1.00  0.00     0.028 C 
HETATM   27  C   UNL     1      43.926 -20.303   2.379  1.00  0.00     0.002 C 
HETATM   28  C   UNL     1      44.248 -20.632   3.832  1.00  0.00     0.002 C 
HETATM   29  C   UNL     1      43.865 -19.585   4.873  1.00  0.00     0.028 C 
HETATM   30  C   UNL     1      44.063 -18.144   4.431  1.00  0.00     0.235 C 
ENDBRANCH   5  23
TORSDOF 5
ENDMDL
MODEL 3
REMARK VINA RESULT:      -8.4      1.725      2.239
REMARK  5 active torsions:
REMARK  status: ('A' for Active; 'I' for Inactive)
REMARK    1  A    between atoms: C_2  and  N_3 
REMARK    2  A    between atoms: C_6  and  C_7 
REMARK    3  A    between atoms: C_7  and  N_8 
REMARK    4  A    between atoms: C_11  and  O_12 
REMARK    5  A    between atoms: C_13  and  N_14 
ROOT
HETATM    1  N   UNL     1      42.240 -11.536   5.924  1.00  0.00    -0.065 N 
HETATM    2  H   UNL     1      41.988 -12.231   6.641  1.00  0.00     0.280 HD
HETATM    3  C   UNL     1      43.689 -11.134   6.122  1.00  0.00     0.268 C 
HETATM    4  C   UNL     1      43.869 -10.515   7.519  1.00  0.00     0.174 C 
HETATM    5  C   UNL     1      42.881  -9.339   7.698  1.00  0.00     0.220 C 
HETATM    6  C   UNL     1      41.434  -9.752   7.442  1.00  0.00     0.063 C 
HETATM    7  C   UNL     1      41.290 -10.372   6.049  1.00  0.00     0.237 C 
ENDROOT
BRANCH   1   8
HETATM    8  C   UNL     1      42.035 -12.314   4.616  1.00  0.00     0.276 C 
BRANCH   8   9
HETATM    9  C   UNL     1      42.310 -13.755   4.833  1.00  0.00     0.004 A 
HETATM   10  C   UNL     1      42.153 -14.495   6.019  1.00  0.00     0.149 A 
HETATM   11  N   UNL     1      42.392 -15.790   5.843  1.00  0.00    -0.180 NA
HETATM   12  N   UNL     1      42.806 -15.918   4.560  1.00  0.00    -0.245 N 
HETATM   13  C   UNL     1      42.764 -14.689   3.920  1.00  0.00     0.129 A 
BRANCH  12  14
HETATM   14  C   UNL     1      43.139 -17.187   4.009  1.00  0.00     0.058 A 
HETATM   15  C   UNL     1      42.680 -17.520   2.722  1.00  0.00     0.034 A 
HETATM   16  C   UNL     1      43.021 -18.747   2.149  1.00  0.00     0.044 A 
HETATM   17  C   UNL     1      43.815 -19.638   2.858  1.00  0.00     0.116 A 
HETATM   18  C   UNL     1      44.270 -19.330   4.135  1.00  0.00     0.044 A 
HETATM   19  F   UNL     1      44.151 -20.810   2.306  1.00  0.00    -0.206 F 
HETATM   20  C   UNL     1      43.932 -18.104   4.717  1.00  0.00     0.034 A 
ENDBRANCH  12  14
ENDBRANCH   8   9
ENDBRANCH   1   8
BRANCH   4  21
HETATM   21  O   UNL     1      45.177  -9.989   7.731  1.00  0.00    -0.392 OA
HETATM   22  H   UNL     1      45.842 -10.711   7.708  1.00  0.00     0.210 HD
ENDBRANCH   4  21
BRANCH   5  23
HETATM   23  N   UNL     1      43.096  -8.694   9.087  1.00  0.00    -0.064 N 
HETATM   24  H   UNL     1      44.084  -8.380   9.034  1.00  0.00     0.280 HD
HETATM   25  C   UNL     1      42.292  -7.418   9.259  1.00  0.00     0.235 C 
HETATM   26  C   UNL     1      42.750  -6.588  10.455  1.00  0.00     0.028 C 
HETATM   27  C   UNL     1      42.318  -7.172  11.796  1.00  0.00     0.002 C 
HETATM   28  C   UNL     1      43.277  -8.202  12.382  1.00  0.00     0.002 C 
HETATM   29  C   UNL     1      43.920  -9.175  11.401  1.00  0.00     0.028 C 
HETATM   30  C   UNL     1      43.011  -9.641  10.275  1.00  0.00     0.235 C 
ENDBRANCH   5  23
TORSDOF 5
ENDMDL
MODEL 4
REMARK VINA RESULT:      -8.4      3.616      6.778
REMARK  5 active torsions:
REMARK  status: ('A' for Active; 'I' for Inactive)
REMARK    1  A    between atoms: C_2  and  N_3 
REMARK    2  A    between atoms: C_6  and  C_7 
REMARK    3  A    between atoms: C_7  and  N_8 
REMARK    4  A    between atoms: C_11  and  O_12 
REMARK    5  A    between atoms: C_13  and  N_14 
ROOT
HETATM    1  N   UNL     1      41.921 -12.863   3.721  1.00  0.00    -0.065 N 
HETATM    2  H   UNL     1      42.369 -13.606   3.166  1.00  0.00     0.280 HD
HETATM    3  C   UNL     1      40.451 -13.197   3.888  1.00  0.00     0.268 C 
HETATM    4  C   UNL     1      39.777 -13.279   2.508  1.00  0.00     0.174 C 
HETATM    5  C   UNL     1      40.018 -11.962   1.732  1.00  0.00     0.220 C 
HETATM    6  C   UNL     1      41.500 -11.617   1.621  1.00  0.00     0.063 C 
HETATM    7  C   UNL     1      42.143 -11.553   3.010  1.00  0.00     0.237 C 
ENDROOT
BRANCH   1   8
HETATM    8  C   UNL     1      42.681 -12.937   5.053  1.00  0.00     0.276 C 
BRANCH   8   9
HETATM    9  C   UNL     1      43.142 -14.324   5.299  1.00  0.00     0.004 A 
HETATM   10  C   UNL     1      43.675 -14.860   6.485  1.00  0.00     0.149 A 
HETATM   11  N   UNL     1      43.893 -16.168   6.397  1.00  0.00    -0.180 NA
HETATM   12  N   UNL     1      43.601 -16.506   5.119  1.00  0.00    -0.245 N 
HETATM   13  C   UNL     1      43.139 -15.397   4.426  1.00  0.00     0.129 A 
BRANCH  12  14
HETATM   14  C   UNL     1      43.705 -17.849   4.662  1.00  0.00     0.058 A 
HETATM   15  C   UNL     1      43.631 -18.115   3.284  1.00  0.00     0.034 A 
HETATM   16  C   UNL     1      43.762 -19.422   2.811  1.00  0.00     0.044 A 
HETATM   17  C   UNL     1      43.966 -20.460   3.711  1.00  0.00     0.116 A 
HETATM   18  C   UNL     1      44.034 -20.217   5.078  1.00  0.00     0.044 A 
HETATM   19  F   UNL     1      44.103 -21.712   3.259  1.00  0.00    -0.206 F 
HETATM   20  C   UNL     1      43.900 -18.911   5.560  1.00  0.00     0.034 A 
ENDBRANCH  12  14
ENDBRANCH   8   9
ENDBRANCH   1   8
BRANCH   4  21
HETATM   21  O   UNL     1      38.365 -13.458   2.587  1.00  0.00    -0.392 OA
HETATM   22  H   UNL     1      37.990 -12.895   3.298  1.00  0.00     0.210 HD
ENDBRANCH   4  21
BRANCH   5  23
HETATM   23  N   UNL     1      39.302 -12.035   0.363  1.00  0.00    -0.064 N 
HETATM   24  H   UNL     1      38.365 -12.398   0.624  1.00  0.00     0.280 HD
HETATM   25  C   UNL     1      39.036 -10.658  -0.219  1.00  0.00     0.235 C 
HETATM   26  C   UNL     1      38.036 -10.687  -1.371  1.00  0.00     0.028 C 
HETATM   27  C   UNL     1      38.620 -11.243  -2.664  1.00  0.00     0.002 C 
HETATM   28  C   UNL     1      38.537 -12.759  -2.802  1.00  0.00     0.002 C 
HETATM   29  C   UNL     1      38.795 -13.577  -1.541  1.00  0.00     0.028 C 
HETATM   30  C   UNL     1      39.883 -13.025  -0.634  1.00  0.00     0.235 C 
ENDBRANCH   5  23
TORSDOF 5
ENDMDL
MODEL 5
REMARK VINA RESULT:      -8.3      2.510      3.704
REMARK  5 active torsions:
REMARK  status: ('A' for Active; 'I' for Inactive)
REMARK    1  A    between atoms: C_2  and  N_3 
REMARK    2  A    between atoms: C_6  and  C_7 
REMARK    3  A    between atoms: C_7  and  N_8 
REMARK    4  A    between atoms: C_11  and  O_12 
REMARK    5  A    between atoms: C_13  and  N_14 
ROOT
HETATM    1  N   UNL     1      42.544 -10.792   7.171  1.00  0.00    -0.065 N 
HETATM    2  H   UNL     1      41.947 -11.563   7.503  1.00  0.00     0.280 HD
HETATM    3  C   UNL     1      43.863 -10.840   7.918  1.00  0.00     0.268 C 
HETATM    4  C   UNL     1      43.612 -10.678   9.427  1.00  0.00     0.174 C 
HETATM    5  C   UNL     1      42.813  -9.378   9.684  1.00  0.00     0.220 C 
HETATM    6  C   UNL     1      41.515  -9.326   8.882  1.00  0.00     0.063 C 
HETATM    7  C   UNL     1      41.799  -9.500   7.387  1.00  0.00     0.237 C 
ENDROOT
BRANCH   1   8
HETATM    8  C   UNL     1      42.717 -11.121   5.681  1.00  0.00     0.276 C 
BRANCH   8   9
HETATM    9  C   UNL     1      42.438 -12.557   5.441  1.00  0.00     0.004 A 
HETATM   10  C   UNL     1      41.267 -13.273   5.746  1.00  0.00     0.149 A 
HETATM   11  N   UNL     1      41.309 -14.525   5.304  1.00  0.00    -0.180 NA
HETATM   12  N   UNL     1      42.547 -14.691   4.783  1.00  0.00    -0.245 N 
HETATM   13  C   UNL     1      43.259 -13.504   4.853  1.00  0.00     0.129 A 
BRANCH  12  14
HETATM   14  C   UNL     1      42.947 -15.924   4.194  1.00  0.00     0.058 A 
HETATM   15  C   UNL     1      42.688 -16.151   2.832  1.00  0.00     0.034 A 
HETATM   16  C   UNL     1      43.099 -17.340   2.225  1.00  0.00     0.044 A 
HETATM   17  C   UNL     1      43.766 -18.298   2.977  1.00  0.00     0.116 A 
HETATM   18  C   UNL     1      44.023 -18.094   4.328  1.00  0.00     0.044 A 
HETATM   19  F   UNL     1      44.170 -19.434   2.396  1.00  0.00    -0.206 F 
HETATM   20  C   UNL     1      43.612 -16.908   4.944  1.00  0.00     0.034 A 
ENDBRANCH  12  14
ENDBRANCH   8   9
ENDBRANCH   1   8
BRANCH   4  21
HETATM   21  O   UNL     1      44.814 -10.578  10.185  1.00  0.00    -0.392 OA
HETATM   22  H   UNL     1      44.622 -10.245  11.087  1.00  0.00     0.210 HD
ENDBRANCH   4  21
BRANCH   5  23
HETATM   23  N   UNL     1      42.600  -9.199  11.205  1.00  0.00    -0.064 N 
HETATM   24  H   UNL     1      43.217  -9.933  11.602  1.00  0.00     0.280 HD
HETATM   25  C   UNL     1      43.178  -7.891  11.716  1.00  0.00     0.235 C 
HETATM   26  C   UNL     1      43.298  -7.851  13.236  1.00  0.00     0.028 C 
HETATM   27  C   UNL     1      41.959  -7.664  13.942  1.00  0.00     0.002 C 
HETATM   28  C   UNL     1      41.200  -8.956  14.223  1.00  0.00     0.002 C 
HETATM   29  C   UNL     1      41.244 -10.027  13.139  1.00  0.00     0.028 C 
HETATM   30  C   UNL     1      41.198  -9.495  11.714  1.00  0.00     0.235 C 
ENDBRANCH   5  23
TORSDOF 5
ENDMDL
MODEL 6
REMARK VINA RESULT:      -8.0      4.437     10.136
REMARK  5 active torsions:
REMARK  status: ('A' for Active; 'I' for Inactive)
REMARK    1  A    between atoms: C_2  and  N_3 
REMARK    2  A    between atoms: C_6  and  C_7 
REMARK    3  A    between atoms: C_7  and  N_8 
REMARK    4  A    between atoms: C_11  and  O_12 
REMARK    5  A    between atoms: C_13  and  N_14 
ROOT
HETATM    1  N   UNL     1      41.719 -10.745   6.283  1.00  0.00    -0.065 N 
HETATM    2  H   UNL     1      42.227 -11.301   6.985  1.00  0.00     0.280 HD
HETATM    3  C   UNL     1      40.412 -11.443   5.959  1.00  0.00     0.268 C 
HETATM    4  C   UNL     1      40.700 -12.843   5.389  1.00  0.00     0.174 C 
HETATM    5  C   UNL     1      41.646 -12.725   4.171  1.00  0.00     0.220 C 
HETATM    6  C   UNL     1      42.931 -11.972   4.506  1.00  0.00     0.063 C 
HETATM    7  C   UNL     1      42.610 -10.588   5.078  1.00  0.00     0.237 C 
ENDROOT
BRANCH   1   8
HETATM    8  C   UNL     1      41.490  -9.413   7.013  1.00  0.00     0.276 C 
BRANCH   8   9
HETATM    9  C   UNL     1      42.050  -9.482   8.384  1.00  0.00     0.004 A 
HETATM   10  C   UNL     1      43.303  -9.983   8.782  1.00  0.00     0.149 A 
HETATM   11  N   UNL     1      43.532  -9.801  10.078  1.00  0.00    -0.180 NA
HETATM   12  N   UNL     1      42.396  -9.265  10.583  1.00  0.00    -0.245 N 
HETATM   13  C   UNL     1      41.473  -9.059   9.569  1.00  0.00     0.129 A 
BRANCH  12  14
HETATM   14  C   UNL     1      42.284  -8.919  11.959  1.00  0.00     0.058 A 
HETATM   15  C   UNL     1      43.194  -8.002  12.513  1.00  0.00     0.034 A 
HETATM   16  C   UNL     1      43.084  -7.624  13.853  1.00  0.00     0.044 A 
HETATM   17  C   UNL     1      42.070  -8.160  14.636  1.00  0.00     0.116 A 
HETATM   18  C   UNL     1      41.167  -9.075  14.107  1.00  0.00     0.044 A 
HETATM   19  F   UNL     1      41.956  -7.791  15.918  1.00  0.00    -0.206 F 
HETATM   20  C   UNL     1      41.271  -9.461  12.767  1.00  0.00     0.034 A 
ENDBRANCH  12  14
ENDBRANCH   8   9
ENDBRANCH   1   8
BRANCH   4  21
HETATM   21  O   UNL     1      39.526 -13.512   4.935  1.00  0.00    -0.392 OA
HETATM   22  H   UNL     1      39.415 -14.364   5.408  1.00  0.00     0.210 HD
ENDBRANCH   4  21
BRANCH   5  23
HETATM   23  N   UNL     1      41.898 -14.130   3.578  1.00  0.00    -0.064 N 
HETATM   24  H   UNL     1      40.964 -14.577   3.666  1.00  0.00     0.280 HD
HETATM   25  C   UNL     1      42.165 -14.084   2.084  1.00  0.00     0.235 C 
HETATM   26  C   UNL     1      42.064 -15.455   1.422  1.00  0.00     0.028 C 
HETATM   27  C   UNL     1      43.255 -16.359   1.720  1.00  0.00     0.002 C 
HETATM   28  C   UNL     1      43.132 -17.176   3.001  1.00  0.00     0.002 C 
HETATM   29  C   UNL     1      42.501 -16.478   4.201  1.00  0.00     0.028 C 
HETATM   30  C   UNL     1      42.868 -15.010   4.351  1.00  0.00     0.235 C 
ENDBRANCH   5  23
TORSDOF 5
ENDMDL
MODEL 7
REMARK VINA RESULT:      -7.9      3.887      7.250
REMARK  5 active torsions:
REMARK  status: ('A' for Active; 'I' for Inactive)
REMARK    1  A    between atoms: C_2  and  N_3 
REMARK    2  A    between atoms: C_6  and  C_7 
REMARK    3  A    between atoms: C_7  and  N_8 
REMARK    4  A    between atoms: C_11  and  O_12 
REMARK    5  A    between atoms: C_13  and  N_14 
ROOT
HETATM    1  N   UNL     1      41.543 -12.477   3.120  1.00  0.00    -0.065 N 
HETATM    2  H   UNL     1      41.825 -13.367   2.685  1.00  0.00     0.280 HD
HETATM    3  C   UNL     1      40.038 -12.481   3.308  1.00  0.00     0.268 C 
HETATM    4  C   UNL     1      39.345 -12.623   1.942  1.00  0.00     0.174 C 
HETATM    5  C   UNL     1      39.838 -11.506   0.991  1.00  0.00     0.220 C 
HETATM    6  C   UNL     1      41.359 -11.485   0.858  1.00  0.00     0.063 C 
HETATM    7  C   UNL     1      42.017 -11.354   2.235  1.00  0.00     0.237 C 
ENDROOT
BRANCH   1   8
HETATM    8  C   UNL     1      42.287 -12.511   4.463  1.00  0.00     0.276 C 
BRANCH   8   9
HETATM    9  C   UNL     1      42.805 -13.876   4.723  1.00  0.00     0.004 A 
HETATM   10  C   UNL     1      43.312 -14.393   5.929  1.00  0.00     0.149 A 
HETATM   11  N   UNL     1      43.596 -15.688   5.846  1.00  0.00    -0.180 NA
HETATM   12  N   UNL     1      43.376 -16.032   4.555  1.00  0.00    -0.245 N 
HETATM   13  C   UNL     1      42.891 -14.943   3.847  1.00  0.00     0.129 A 
BRANCH  12  14
HETATM   14  C   UNL     1      43.565 -17.366   4.098  1.00  0.00     0.058 A 
HETATM   15  C   UNL     1      44.056 -18.335   4.990  1.00  0.00     0.034 A 
HETATM   16  C   UNL     1      44.219 -19.658   4.572  1.00  0.00     0.044 A 
HETATM   17  C   UNL     1      43.895 -20.010   3.268  1.00  0.00     0.116 A 
HETATM   18  C   UNL     1      43.416 -19.063   2.370  1.00  0.00     0.044 A 
HETATM   19  F   UNL     1      44.041 -21.279   2.869  1.00  0.00    -0.206 F 
HETATM   20  C   UNL     1      43.252 -17.736   2.780  1.00  0.00     0.034 A 
ENDBRANCH  12  14
ENDBRANCH   8   9
ENDBRANCH   1   8
BRANCH   4  21
HETATM   21  O   UNL     1      37.928 -12.500   2.020  1.00  0.00    -0.392 OA
HETATM   22  H   UNL     1      37.547 -13.256   2.517  1.00  0.00     0.210 HD
ENDBRANCH   4  21
BRANCH   5  23
HETATM   23  N   UNL     1      39.107 -11.628  -0.366  1.00  0.00    -0.064 N 
HETATM   24  H   UNL     1      39.745 -11.116  -1.007  1.00  0.00     0.280 HD
HETATM   25  C   UNL     1      39.098 -13.054  -0.888  1.00  0.00     0.235 C 
HETATM   26  C   UNL     1      38.708 -13.142  -2.360  1.00  0.00     0.028 C 
HETATM   27  C   UNL     1      37.218 -12.925  -2.604  1.00  0.00     0.002 C 
HETATM   28  C   UNL     1      36.805 -11.468  -2.776  1.00  0.00     0.002 C 
HETATM   29  C   UNL     1      37.494 -10.450  -1.874  1.00  0.00     0.028 C 
HETATM   30  C   UNL     1      37.759 -10.929  -0.456  1.00  0.00     0.235 C 
ENDBRANCH   5  23
TORSDOF 5
ENDMDL
MODEL 8
REMARK VINA RESULT:      -7.8      3.920      9.524
REMARK  5 active torsions:
REMARK  status: ('A' for Active; 'I' for Inactive)
REMARK    1  A    between atoms: C_2  and  N_3 
REMARK    2  A    between atoms: C_6  and  C_7 
REMARK    3  A    between atoms: C_7  and  N_8 
REMARK    4  A    between atoms: C_11  and  O_12 
REMARK    5  A    between atoms: C_13  and  N_14 
ROOT
HETATM    1  N   UNL     1      41.348 -11.845   5.030  1.00  0.00    -0.065 N 
HETATM    2  H   UNL     1      41.430 -12.124   6.017  1.00  0.00     0.280 HD
HETATM    3  C   UNL     1      40.307 -12.722   4.359  1.00  0.00     0.268 C 
HETATM    4  C   UNL     1      40.742 -14.195   4.437  1.00  0.00     0.174 C 
HETATM    5  C   UNL     1      42.156 -14.353   3.829  1.00  0.00     0.220 C 
HETATM    6  C   UNL     1      43.176 -13.424   4.482  1.00  0.00     0.063 C 
HETATM    7  C   UNL     1      42.710 -11.968   4.396  1.00  0.00     0.237 C 
ENDROOT
BRANCH   1   8
HETATM    8  C   UNL     1      40.885 -10.384   5.133  1.00  0.00     0.276 C 
BRANCH   8   9
HETATM    9  C   UNL     1      40.816  -9.972   6.555  1.00  0.00     0.004 A 
HETATM   10  C   UNL     1      39.682  -9.918   7.385  1.00  0.00     0.149 A 
HETATM   11  N   UNL     1      39.986  -9.602   8.639  1.00  0.00    -0.180 NA
HETATM   12  N   UNL     1      41.316  -9.346   8.643  1.00  0.00    -0.245 N 
HETATM   13  C   UNL     1      41.848  -9.565   7.382  1.00  0.00     0.129 A 
BRANCH  12  14
HETATM   14  C   UNL     1      42.000  -8.987   9.838  1.00  0.00     0.058 A 
HETATM   15  C   UNL     1      42.010  -7.642  10.247  1.00  0.00     0.034 A 
HETATM   16  C   UNL     1      42.649  -7.272  11.433  1.00  0.00     0.044 A 
HETATM   17  C   UNL     1      43.276  -8.241  12.205  1.00  0.00     0.116 A 
HETATM   18  C   UNL     1      43.284  -9.574  11.811  1.00  0.00     0.044 A 
HETATM   19  F   UNL     1      43.880  -7.890  13.347  1.00  0.00    -0.206 F 
HETATM   20  C   UNL     1      42.649  -9.953  10.624  1.00  0.00     0.034 A 
ENDBRANCH  12  14
ENDBRANCH   8   9
ENDBRANCH   1   8
BRANCH   4  21
HETATM   21  O   UNL     1      39.882 -15.069   3.711  1.00  0.00    -0.392 OA
HETATM   22  H   UNL     1      39.248 -14.552   3.171  1.00  0.00     0.210 HD
ENDBRANCH   4  21
BRANCH   5  23
HETATM   23  N   UNL     1      42.570 -15.843   3.873  1.00  0.00    -0.064 N 
HETATM   24  H   UNL     1      41.682 -16.310   4.142  1.00  0.00     0.280 HD
HETATM   25  C   UNL     1      42.893 -16.390   2.494  1.00  0.00     0.235 C 
HETATM   26  C   UNL     1      42.955 -17.914   2.462  1.00  0.00     0.028 C 
HETATM   27  C   UNL     1      44.217 -18.480   3.104  1.00  0.00     0.002 C 
HETATM   28  C   UNL     1      44.122 -18.702   4.609  1.00  0.00     0.002 C 
HETATM   29  C   UNL     1      43.377 -17.643   5.413  1.00  0.00     0.028 C 
HETATM   30  C   UNL     1      43.589 -16.214   4.938  1.00  0.00     0.235 C 
ENDBRANCH   5  23
TORSDOF 5
ENDMDL
MODEL 9
REMARK VINA RESULT:      -7.8      5.346      7.322
REMARK  5 active torsions:
REMARK  status: ('A' for Active; 'I' for Inactive)
REMARK    1  A    between atoms: C_2  and  N_3 
REMARK    2  A    between atoms: C_6  and  C_7 
REMARK    3  A    between atoms: C_7  and  N_8 
REMARK    4  A    between atoms: C_11  and  O_12 
REMARK    5  A    between atoms: C_13  and  N_14 
ROOT
HETATM    1  N   UNL     1      40.333 -13.035  -0.317  1.00  0.00    -0.065 N 
HETATM    2  H   UNL     1      41.273 -13.074   0.100  1.00  0.00     0.280 HD
HETATM    3  C   UNL     1      40.468 -13.051  -1.828  1.00  0.00     0.268 C 
HETATM    4  C   UNL     1      41.282 -11.829  -2.289  1.00  0.00     0.174 C 
HETATM    5  C   UNL     1      40.628 -10.535  -1.749  1.00  0.00     0.220 C 
HETATM    6  C   UNL     1      40.452 -10.562  -0.233  1.00  0.00     0.063 C 
HETATM    7  C   UNL     1      39.647 -11.793   0.193  1.00  0.00     0.237 C 
ENDROOT
BRANCH   1   8
HETATM    8  C   UNL     1      39.678 -14.319   0.212  1.00  0.00     0.276 C 
BRANCH   8   9
HETATM    9  C   UNL     1      40.447 -14.844   1.366  1.00  0.00     0.004 A 
HETATM   10  C   UNL     1      40.452 -14.368   2.689  1.00  0.00     0.149 A 
HETATM   11  N   UNL     1      41.176 -15.132   3.500  1.00  0.00    -0.180 NA
HETATM   12  N   UNL     1      41.744 -16.074   2.710  1.00  0.00    -0.245 N 
HETATM   13  C   UNL     1      41.315 -15.921   1.400  1.00  0.00     0.129 A 
BRANCH  12  14
HETATM   14  C   UNL     1      42.586 -17.087   3.248  1.00  0.00     0.058 A 
HETATM   15  C   UNL     1      42.989 -17.005   4.592  1.00  0.00     0.034 A 
HETATM   16  C   UNL     1      43.789 -18.004   5.150  1.00  0.00     0.044 A 
HETATM   17  C   UNL     1      44.185 -19.081   4.368  1.00  0.00     0.116 A 
HETATM   18  C   UNL     1      43.803 -19.175   3.034  1.00  0.00     0.044 A 
HETATM   19  F   UNL     1      44.943 -20.046   4.903  1.00  0.00    -0.206 F 
HETATM   20  C   UNL     1      43.004 -18.177   2.467  1.00  0.00     0.034 A 
ENDBRANCH  12  14
ENDBRANCH   8   9
ENDBRANCH   1   8
BRANCH   4  21
HETATM   21  O   UNL     1      41.340 -11.701  -3.707  1.00  0.00    -0.392 OA
HETATM   22  H   UNL     1      41.033 -12.528  -4.137  1.00  0.00     0.210 HD
ENDBRANCH   4  21
BRANCH   5  23
HETATM   23  N   UNL     1      41.426  -9.309  -2.250  1.00  0.00    -0.064 N 
HETATM   24  H   UNL     1      42.181  -9.751  -2.809  1.00  0.00     0.280 HD
HETATM   25  C   UNL     1      40.640  -8.481  -3.250  1.00  0.00     0.235 C 
HETATM   26  C   UNL     1      41.513  -7.490  -4.015  1.00  0.00     0.028 C 
HETATM   27  C   UNL     1      41.932  -6.286  -3.180  1.00  0.00     0.002 C 
HETATM   28  C   UNL     1      43.204  -6.488  -2.362  1.00  0.00     0.002 C 
HETATM   29  C   UNL     1      43.391  -7.854  -1.713  1.00  0.00     0.028 C 
HETATM   30  C   UNL     1      42.116  -8.485  -1.174  1.00  0.00     0.235 C 
ENDBRANCH   5  23
TORSDOF 5
ENDMDL
MODEL 10
REMARK VINA RESULT:      -7.5      2.031      2.317
REMARK  5 active torsions:
REMARK  status: ('A' for Active; 'I' for Inactive)
REMARK    1  A    between atoms: C_2  and  N_3 
REMARK    2  A    between atoms: C_6  and  C_7 
REMARK    3  A    between atoms: C_7  and  N_8 
REMARK    4  A    between atoms: C_11  and  O_12 
REMARK    5  A    between atoms: C_13  and  N_14 
ROOT
HETATM    1  N   UNL     1      40.215 -11.799   4.011  1.00  0.00    -0.065 N 
HETATM    2  H   UNL     1      41.086 -12.343   4.083  1.00  0.00     0.280 HD
HETATM    3  C   UNL     1      40.540 -10.432   3.439  1.00  0.00     0.268 C 
HETATM    4  C   UNL     1      41.523  -9.701   4.370  1.00  0.00     0.174 C 
HETATM    5  C   UNL     1      40.936  -9.639   5.800  1.00  0.00     0.220 C 
HETATM    6  C   UNL     1      40.566 -11.020   6.336  1.00  0.00     0.063 C 
HETATM    7  C   UNL     1      39.596 -11.724   5.383  1.00  0.00     0.237 C 
ENDROOT
BRANCH   1   8
HETATM    8  C   UNL     1      39.374 -12.640   3.040  1.00  0.00     0.276 C 
BRANCH   8   9
HETATM    9  C   UNL     1      40.010 -13.963   2.832  1.00  0.00     0.004 A 
HETATM   10  C   UNL     1      39.866 -14.828   1.732  1.00  0.00     0.149 A 
HETATM   11  N   UNL     1      40.658 -15.891   1.816  1.00  0.00    -0.180 NA
HETATM   12  N   UNL     1      41.270 -15.801   3.020  1.00  0.00    -0.245 N 
HETATM   13  C   UNL     1      40.892 -14.632   3.662  1.00  0.00     0.129 A 
BRANCH  12  14
HETATM   14  C   UNL     1      42.215 -16.775   3.449  1.00  0.00     0.058 A 
HETATM   15  C   UNL     1      42.784 -17.644   2.503  1.00  0.00     0.034 A 
HETATM   16  C   UNL     1      43.737 -18.587   2.896  1.00  0.00     0.044 A 
HETATM   17  C   UNL     1      44.118 -18.661   4.229  1.00  0.00     0.116 A 
HETATM   18  C   UNL     1      43.559 -17.816   5.180  1.00  0.00     0.044 A 
HETATM   19  F   UNL     1      45.038 -19.557   4.607  1.00  0.00    -0.206 F 
HETATM   20  C   UNL     1      42.602 -16.871   4.796  1.00  0.00     0.034 A 
ENDBRANCH  12  14
ENDBRANCH   8   9
ENDBRANCH   1   8
BRANCH   4  21
HETATM   21  O   UNL     1      41.773  -8.356   3.970  1.00  0.00    -0.392 OA
HETATM   22  H   UNL     1      42.157  -7.845   4.714  1.00  0.00     0.210 HD
ENDBRANCH   4  21
BRANCH   5  23
HETATM   23  N   UNL     1      41.909  -8.866   6.721  1.00  0.00    -0.064 N 
HETATM   24  H   UNL     1      42.617  -8.514   6.048  1.00  0.00     0.280 HD
HETATM   25  C   UNL     1      41.276  -7.616   7.305  1.00  0.00     0.235 C 
HETATM   26  C   UNL     1      42.301  -6.665   7.916  1.00  0.00     0.028 C 
HETATM   27  C   UNL     1      42.849  -7.147   9.255  1.00  0.00     0.002 C 
HETATM   28  C   UNL     1      44.052  -8.078   9.154  1.00  0.00     0.002 C 
HETATM   29  C   UNL     1      44.031  -9.105   8.026  1.00  0.00     0.028 C 
HETATM   30  C   UNL     1      42.665  -9.708   7.737  1.00  0.00     0.235 C 
ENDBRANCH   5  23
TORSDOF 5
ENDMDL
