MODEL 1
REMARK VINA RESULT:      -9.1      0.000      0.000
REMARK  3 active torsions:
REMARK  status: ('A' for Active; 'I' for Inactive)
REMARK    1  A    between atoms: C_10  and  C_11 
REMARK       I    between atoms: C_11  and  N_12 
REMARK    2  A    between atoms: C_14  and  O_15 
REMARK    3  A    between atoms: O_15  and  C_16 
ROOT
HETATM    1  C   UNL     1      42.736 -15.049   3.712  1.00  0.00     0.255 C 
HETATM    2  N   UNL     1      41.808 -14.868   2.702  1.00  0.00    -0.345 N 
HETATM    3  C   UNL     1      41.245 -13.544   2.460  1.00  0.00     0.158 C 
HETATM    4  C   UNL     1      39.870 -13.812   1.833  1.00  0.00     0.148 C 
HETATM    5  C   UNL     1      40.144 -15.096   1.050  1.00  0.00     0.054 C 
HETATM    6  C   UNL     1      41.040 -15.883   1.994  1.00  0.00     0.129 C 
HETATM    7  O   UNL     1      43.204 -14.118   4.363  1.00  0.00    -0.267 OA
ENDROOT
BRANCH   1   8
HETATM    8  C   UNL     1      43.138 -16.417   4.085  1.00  0.00     0.050 A 
HETATM    9  C   UNL     1      43.446 -16.659   5.423  1.00  0.00     0.136 A 
HETATM   10  N   UNL     1      43.811 -17.858   5.947  1.00  0.00    -0.240 NA
HETATM   11  C   UNL     1      43.873 -18.827   5.015  1.00  0.00     0.155 A 
HETATM   12  N   UNL     1      44.205 -20.132   5.226  1.00  0.00    -0.260 N 
HETATM   13  C   UNL     1      43.624 -18.714   3.654  1.00  0.00     0.038 A 
HETATM   14  N   UNL     1      44.176 -20.891   4.111  1.00  0.00    -0.177 NA
HETATM   15  H   UNL     1      44.454 -20.558   6.110  1.00  0.00     0.191 HD
HETATM   16  C   UNL     1      43.829 -20.025   3.147  1.00  0.00     0.065 A 
HETATM   17  C   UNL     1      43.679 -20.488   1.746  1.00  0.00     0.073 C 
HETATM   18  C   UNL     1      43.262 -17.452   3.154  1.00  0.00     0.036 A 
ENDBRANCH   1   8
BRANCH   4  19
HETATM   19  O   UNL     1      39.500 -12.732   0.984  1.00  0.00    -0.344 OA
BRANCH  19  20
HETATM   20  C   UNL     1      39.705 -12.876  -0.360  1.00  0.00     0.070 A 
HETATM   21  C   UNL     1      38.933 -13.647  -1.230  1.00  0.00     0.060 A 
HETATM   22  C   UNL     1      39.273 -13.716  -2.583  1.00  0.00     0.036 A 
HETATM   23 CL   UNL     1      38.320 -14.676  -3.649  1.00  0.00    -0.084 Cl
HETATM   24  C   UNL     1      40.376 -13.024  -3.079  1.00  0.00     0.024 A 
HETATM   25  C   UNL     1      41.152 -12.259  -2.212  1.00  0.00     0.004 A 
HETATM   26  C   UNL     1      40.819 -12.193  -0.857  1.00  0.00     0.037 A 
ENDBRANCH  19  20
ENDBRANCH   4  19
TORSDOF 3
ENDMDL
MODEL 2
REMARK VINA RESULT:      -9.0      2.255      2.626
REMARK  3 active torsions:
REMARK  status: ('A' for Active; 'I' for Inactive)
REMARK    1  A    between atoms: C_10  and  C_11 
REMARK       I    between atoms: C_11  and  N_12 
REMARK    2  A    between atoms: C_14  and  O_15 
REMARK    3  A    between atoms: O_15  and  C_16 
ROOT
HETATM    1  C   UNL     1      42.884 -14.523   2.257  1.00  0.00     0.255 C 
HETATM    2  N   UNL     1      41.812 -14.502   1.384  1.00  0.00    -0.345 N 
HETATM    3  C   UNL     1      41.376 -13.240   0.799  1.00  0.00     0.158 C 
HETATM    4  C   UNL     1      39.886 -13.445   0.492  1.00  0.00     0.148 C 
HETATM    5  C   UNL     1      39.854 -14.934   0.148  1.00  0.00     0.054 C 
HETATM    6  C   UNL     1      40.810 -15.537   1.165  1.00  0.00     0.129 C 
HETATM    7  O   UNL     1      43.573 -13.534   2.493  1.00  0.00    -0.267 OA
ENDROOT
BRANCH   1   8
HETATM    8  C   UNL     1      43.184 -15.759   3.003  1.00  0.00     0.050 A 
HETATM    9  C   UNL     1      43.348 -15.660   4.383  1.00  0.00     0.136 A 
HETATM   10  N   UNL     1      43.603 -16.693   5.227  1.00  0.00    -0.240 NA
HETATM   11  C   UNL     1      43.710 -17.869   4.580  1.00  0.00     0.155 A 
HETATM   12  N   UNL     1      43.959 -19.083   5.146  1.00  0.00    -0.260 N 
HETATM   13  C   UNL     1      43.601 -18.100   3.216  1.00  0.00     0.038 A 
HETATM   14  N   UNL     1      44.004 -20.100   4.261  1.00  0.00    -0.177 NA
HETATM   15  H   UNL     1      44.100 -19.275   6.130  1.00  0.00     0.191 HD
HETATM   16  C   UNL     1      43.794 -19.501   3.079  1.00  0.00     0.065 A 
HETATM   17  C   UNL     1      43.759 -20.302   1.831  1.00  0.00     0.073 C 
HETATM   18  C   UNL     1      43.349 -17.000   2.380  1.00  0.00     0.036 A 
ENDBRANCH   1   8
BRANCH   4  19
HETATM   19  O   UNL     1      39.495 -12.630  -0.606  1.00  0.00    -0.344 OA
BRANCH  19  20
HETATM   20  C   UNL     1      38.441 -11.778  -0.425  1.00  0.00     0.070 A 
HETATM   21  C   UNL     1      37.723 -11.135  -1.434  1.00  0.00     0.060 A 
HETATM   22  C   UNL     1      36.676 -10.273  -1.100  1.00  0.00     0.036 A 
HETATM   23 CL   UNL     1      35.799  -9.477  -2.351  1.00  0.00    -0.084 Cl
HETATM   24  C   UNL     1      36.335 -10.045   0.231  1.00  0.00     0.024 A 
HETATM   25  C   UNL     1      37.054 -10.681   1.241  1.00  0.00     0.004 A 
HETATM   26  C   UNL     1      38.106 -11.538   0.910  1.00  0.00     0.037 A 
ENDBRANCH  19  20
ENDBRANCH   4  19
TORSDOF 3
ENDMDL
MODEL 3
REMARK VINA RESULT:      -9.0      5.038      6.943
REMARK  3 active torsions:
REMARK  status: ('A' for Active; 'I' for Inactive)
REMARK    1  A    between atoms: C_10  and  C_11 
REMARK       I    between atoms: C_11  and  N_12 
REMARK    2  A    between atoms: C_14  and  O_15 
REMARK    3  A    between atoms: O_15  and  C_16 
ROOT
HETATM    1  C   UNL     1      43.067 -15.464   3.900  1.00  0.00     0.255 C 
HETATM    2  N   UNL     1      43.074 -14.625   5.000  1.00  0.00    -0.345 N 
HETATM    3  C   UNL     1      42.977 -13.182   4.816  1.00  0.00     0.158 C 
HETATM    4  C   UNL     1      43.672 -12.582   6.045  1.00  0.00     0.148 C 
HETATM    5  C   UNL     1      43.337 -13.621   7.115  1.00  0.00     0.054 C 
HETATM    6  C   UNL     1      43.477 -14.936   6.365  1.00  0.00     0.129 C 
HETATM    7  O   UNL     1      42.872 -15.062   2.756  1.00  0.00    -0.267 OA
ENDROOT
BRANCH   1   8
HETATM    8  C   UNL     1      43.375 -16.893   4.081  1.00  0.00     0.050 A 
HETATM    9  C   UNL     1      43.708 -17.328   5.363  1.00  0.00     0.136 A 
HETATM   10  N   UNL     1      43.997 -18.607   5.715  1.00  0.00    -0.240 NA
HETATM   11  C   UNL     1      43.953 -19.450   4.666  1.00  0.00     0.155 A 
HETATM   12  N   UNL     1      44.191 -20.792   4.697  1.00  0.00    -0.260 N 
HETATM   13  C   UNL     1      43.669 -19.145   3.342  1.00  0.00     0.038 A 
HETATM   14  N   UNL     1      44.067 -21.396   3.498  1.00  0.00    -0.177 NA
HETATM   15  H   UNL     1      44.436 -21.345   5.509  1.00  0.00     0.191 HD
HETATM   16  C   UNL     1      43.756 -20.391   2.666  1.00  0.00     0.065 A 
HETATM   17  C   UNL     1      43.523 -20.657   1.225  1.00  0.00     0.073 C 
HETATM   18  C   UNL     1      43.388 -17.807   3.022  1.00  0.00     0.036 A 
ENDBRANCH   1   8
BRANCH   4  19
HETATM   19  O   UNL     1      43.124 -11.304   6.343  1.00  0.00    -0.344 OA
BRANCH  19  20
HETATM   20  C   UNL     1      43.870 -10.452   7.109  1.00  0.00     0.070 A 
HETATM   21  C   UNL     1      43.387  -9.356   7.826  1.00  0.00     0.060 A 
HETATM   22  C   UNL     1      44.273  -8.558   8.553  1.00  0.00     0.036 A 
HETATM   23 CL   UNL     1      43.670  -7.202   9.429  1.00  0.00    -0.084 Cl
HETATM   24  C   UNL     1      45.637  -8.841   8.576  1.00  0.00     0.024 A 
HETATM   25  C   UNL     1      46.122  -9.931   7.858  1.00  0.00     0.004 A 
HETATM   26  C   UNL     1      45.241 -10.726   7.123  1.00  0.00     0.037 A 
ENDBRANCH  19  20
ENDBRANCH   4  19
TORSDOF 3
ENDMDL
MODEL 4
REMARK VINA RESULT:      -8.8      3.573      8.350
REMARK  3 active torsions:
REMARK  status: ('A' for Active; 'I' for Inactive)
REMARK    1  A    between atoms: C_10  and  C_11 
REMARK       I    between atoms: C_11  and  N_12 
REMARK    2  A    between atoms: C_14  and  O_15 
REMARK    3  A    between atoms: O_15  and  C_16 
ROOT
HETATM    1  C   UNL     1      41.768 -12.400   2.982  1.00  0.00     0.255 C 
HETATM    2  N   UNL     1      41.775 -13.660   3.552  1.00  0.00    -0.345 N 
HETATM    3  C   UNL     1      43.038 -14.358   3.760  1.00  0.00     0.158 C 
HETATM    4  C   UNL     1      42.672 -15.848   3.735  1.00  0.00     0.148 C 
HETATM    5  C   UNL     1      41.270 -15.821   4.343  1.00  0.00     0.054 C 
HETATM    6  C   UNL     1      40.655 -14.576   3.721  1.00  0.00     0.129 C 
HETATM    7  O   UNL     1      42.795 -11.775   2.731  1.00  0.00    -0.267 OA
ENDROOT
BRANCH   1   8
HETATM    8  C   UNL     1      40.484 -11.795   2.584  1.00  0.00     0.050 A 
HETATM    9  C   UNL     1      39.851 -10.957   3.500  1.00  0.00     0.136 A 
HETATM   10  N   UNL     1      38.681 -10.299   3.296  1.00  0.00    -0.240 NA
HETATM   11  C   UNL     1      38.154 -10.557   2.084  1.00  0.00     0.155 A 
HETATM   12  N   UNL     1      36.993 -10.048   1.582  1.00  0.00    -0.260 N 
HETATM   13  C   UNL     1      38.661 -11.390   1.096  1.00  0.00     0.038 A 
HETATM   14  N   UNL     1      36.707 -10.468   0.333  1.00  0.00    -0.177 NA
HETATM   15  H   UNL     1      36.362  -9.408   2.048  1.00  0.00     0.191 HD
HETATM   16  C   UNL     1      37.721 -11.295   0.036  1.00  0.00     0.065 A 
HETATM   17  C   UNL     1      37.775 -11.966  -1.286  1.00  0.00     0.073 C 
HETATM   18  C   UNL     1      39.868 -12.060   1.357  1.00  0.00     0.036 A 
ENDBRANCH   1   8
BRANCH   4  19
HETATM   19  O   UNL     1      43.589 -16.591   4.528  1.00  0.00    -0.344 OA
BRANCH  19  20
HETATM   20  C   UNL     1      43.709 -17.930   4.279  1.00  0.00     0.070 A 
HETATM   21  C   UNL     1      43.631 -18.543   3.029  1.00  0.00     0.060 A 
HETATM   22  C   UNL     1      43.753 -19.931   2.927  1.00  0.00     0.036 A 
HETATM   23 CL   UNL     1      43.648 -20.681   1.380  1.00  0.00    -0.084 Cl
HETATM   24  C   UNL     1      43.955 -20.716   4.060  1.00  0.00     0.024 A 
HETATM   25  C   UNL     1      44.028 -20.107   5.311  1.00  0.00     0.004 A 
HETATM   26  C   UNL     1      43.899 -18.721   5.417  1.00  0.00     0.037 A 
ENDBRANCH  19  20
ENDBRANCH   4  19
TORSDOF 3
ENDMDL
MODEL 5
REMARK VINA RESULT:      -8.8      5.257      8.657
REMARK  3 active torsions:
REMARK  status: ('A' for Active; 'I' for Inactive)
REMARK    1  A    between atoms: C_10  and  C_11 
REMARK       I    between atoms: C_11  and  N_12 
REMARK    2  A    between atoms: C_14  and  O_15 
REMARK    3  A    between atoms: O_15  and  C_16 
ROOT
HETATM    1  C   UNL     1      40.652 -12.013   5.755  1.00  0.00     0.255 C 
HETATM    2  N   UNL     1      41.332 -12.659   4.738  1.00  0.00    -0.345 N 
HETATM    3  C   UNL     1      41.106 -14.080   4.501  1.00  0.00     0.158 C 
HETATM    4  C   UNL     1      42.407 -14.581   3.858  1.00  0.00     0.148 C 
HETATM    5  C   UNL     1      42.846 -13.347   3.070  1.00  0.00     0.054 C 
HETATM    6  C   UNL     1      42.513 -12.204   4.016  1.00  0.00     0.129 C 
HETATM    7  O   UNL     1      39.770 -12.553   6.417  1.00  0.00    -0.267 OA
ENDROOT
BRANCH   1   8
HETATM    8  C   UNL     1      41.039 -10.639   6.122  1.00  0.00     0.050 A 
HETATM    9  C   UNL     1      40.307  -9.589   5.570  1.00  0.00     0.136 A 
HETATM   10  N   UNL     1      40.507  -8.268   5.814  1.00  0.00    -0.240 NA
HETATM   11  C   UNL     1      41.535  -8.054   6.657  1.00  0.00     0.155 A 
HETATM   12  N   UNL     1      41.980  -6.843   7.096  1.00  0.00    -0.260 N 
HETATM   13  C   UNL     1      42.359  -9.000   7.249  1.00  0.00     0.038 A 
HETATM   14  N   UNL     1      43.024  -6.920   7.947  1.00  0.00    -0.177 NA
HETATM   15  H   UNL     1      41.605  -5.935   6.851  1.00  0.00     0.191 HD
HETATM   16  C   UNL     1      43.263  -8.237   8.036  1.00  0.00     0.065 A 
HETATM   17  C   UNL     1      44.355  -8.741   8.905  1.00  0.00     0.073 C 
HETATM   18  C   UNL     1      42.123 -10.353   6.958  1.00  0.00     0.036 A 
ENDBRANCH   1   8
BRANCH   4  19
HETATM   19  O   UNL     1      42.140 -15.694   3.015  1.00  0.00    -0.344 OA
BRANCH  19  20
HETATM   20  C   UNL     1      42.835 -16.850   3.242  1.00  0.00     0.070 A 
HETATM   21  C   UNL     1      42.902 -17.949   2.385  1.00  0.00     0.060 A 
HETATM   22  C   UNL     1      43.639 -19.075   2.758  1.00  0.00     0.036 A 
HETATM   23 CL   UNL     1      43.712 -20.431   1.698  1.00  0.00    -0.084 Cl
HETATM   24  C   UNL     1      44.312 -19.117   3.976  1.00  0.00     0.024 A 
HETATM   25  C   UNL     1      44.242 -18.024   4.837  1.00  0.00     0.004 A 
HETATM   26  C   UNL     1      43.500 -16.899   4.470  1.00  0.00     0.037 A 
ENDBRANCH  19  20
ENDBRANCH   4  19
TORSDOF 3
ENDMDL
MODEL 6
REMARK VINA RESULT:      -8.7      6.689      9.089
REMARK  3 active torsions:
REMARK  status: ('A' for Active; 'I' for Inactive)
REMARK    1  A    between atoms: C_10  and  C_11 
REMARK       I    between atoms: C_11  and  N_12 
REMARK    2  A    between atoms: C_14  and  O_15 
REMARK    3  A    between atoms: O_15  and  C_16 
ROOT
HETATM    1  C   UNL     1      42.557 -12.234   6.014  1.00  0.00     0.255 C 
HETATM    2  N   UNL     1      43.711 -11.759   6.610  1.00  0.00    -0.345 N 
HETATM    3  C   UNL     1      43.621 -10.853   7.750  1.00  0.00     0.158 C 
HETATM    4  C   UNL     1      44.921 -10.038   7.706  1.00  0.00     0.148 C 
HETATM    5  C   UNL     1      45.900 -11.067   7.139  1.00  0.00     0.054 C 
HETATM    6  C   UNL     1      45.069 -11.779   6.083  1.00  0.00     0.129 C 
HETATM    7  O   UNL     1      41.435 -12.017   6.465  1.00  0.00    -0.267 OA
ENDROOT
BRANCH   1   8
HETATM    8  C   UNL     1      42.653 -12.974   4.743  1.00  0.00     0.050 A 
HETATM    9  C   UNL     1      42.483 -12.255   3.561  1.00  0.00     0.136 A 
HETATM   10  N   UNL     1      42.562 -12.766   2.305  1.00  0.00    -0.240 NA
HETATM   11  C   UNL     1      42.807 -14.090   2.305  1.00  0.00     0.155 A 
HETATM   12  N   UNL     1      42.943 -14.887   1.208  1.00  0.00    -0.260 N 
HETATM   13  C   UNL     1      42.964 -14.925   3.403  1.00  0.00     0.038 A 
HETATM   14  N   UNL     1      43.196 -16.179   1.499  1.00  0.00    -0.177 NA
HETATM   15  H   UNL     1      42.878 -14.599   0.239  1.00  0.00     0.191 HD
HETATM   16  C   UNL     1      43.202 -16.207   2.840  1.00  0.00     0.065 A 
HETATM   17  C   UNL     1      43.462 -17.478   3.560  1.00  0.00     0.073 C 
HETATM   18  C   UNL     1      42.862 -14.355   4.682  1.00  0.00     0.036 A 
ENDBRANCH   1   8
BRANCH   4  19
HETATM   19  O   UNL     1      45.280  -9.616   9.016  1.00  0.00    -0.344 OA
BRANCH  19  20
HETATM   20  C   UNL     1      44.411  -8.800   9.684  1.00  0.00     0.070 A 
HETATM   21  C   UNL     1      43.791  -7.662   9.167  1.00  0.00     0.060 A 
HETATM   22  C   UNL     1      42.936  -6.909   9.976  1.00  0.00     0.036 A 
HETATM   23 CL   UNL     1      42.181  -5.501   9.333  1.00  0.00    -0.084 Cl
HETATM   24  C   UNL     1      42.692  -7.279  11.297  1.00  0.00     0.024 A 
HETATM   25  C   UNL     1      43.314  -8.411  11.818  1.00  0.00     0.004 A 
HETATM   26  C   UNL     1      44.174  -9.162  11.014  1.00  0.00     0.037 A 
ENDBRANCH  19  20
ENDBRANCH   4  19
TORSDOF 3
ENDMDL
MODEL 7
REMARK VINA RESULT:      -8.7      3.463      8.331
REMARK  3 active torsions:
REMARK  status: ('A' for Active; 'I' for Inactive)
REMARK    1  A    between atoms: C_10  and  C_11 
REMARK       I    between atoms: C_11  and  N_12 
REMARK    2  A    between atoms: C_14  and  O_15 
REMARK    3  A    between atoms: O_15  and  C_16 
ROOT
HETATM    1  C   UNL     1      41.258 -12.537   1.789  1.00  0.00     0.255 C 
HETATM    2  N   UNL     1      41.322 -13.773   2.405  1.00  0.00    -0.345 N 
HETATM    3  C   UNL     1      42.520 -14.157   3.142  1.00  0.00     0.158 C 
HETATM    4  C   UNL     1      42.542 -15.691   3.083  1.00  0.00     0.148 C 
HETATM    5  C   UNL     1      41.047 -16.011   3.086  1.00  0.00     0.054 C 
HETATM    6  C   UNL     1      40.467 -14.932   2.186  1.00  0.00     0.129 C 
HETATM    7  O   UNL     1      42.129 -11.681   1.918  1.00  0.00    -0.267 OA
ENDROOT
BRANCH   1   8
HETATM    8  C   UNL     1      40.139 -12.242   0.876  1.00  0.00     0.050 A 
HETATM    9  C   UNL     1      39.292 -11.185   1.208  1.00  0.00     0.136 A 
HETATM   10  N   UNL     1      38.231 -10.760   0.476  1.00  0.00    -0.240 NA
HETATM   11  C   UNL     1      38.048 -11.497  -0.637  1.00  0.00     0.155 A 
HETATM   12  N   UNL     1      37.074 -11.318  -1.573  1.00  0.00    -0.260 N 
HETATM   13  C   UNL     1      38.793 -12.586  -1.066  1.00  0.00     0.038 A 
HETATM   14  N   UNL     1      37.132 -12.196  -2.595  1.00  0.00    -0.177 NA
HETATM   15  H   UNL     1      36.350 -10.611  -1.566  1.00  0.00     0.191 HD
HETATM   16  C   UNL     1      38.177 -12.978  -2.284  1.00  0.00     0.065 A 
HETATM   17  C   UNL     1      38.578 -14.083  -3.188  1.00  0.00     0.073 C 
HETATM   18  C   UNL     1      39.874 -12.999  -0.270  1.00  0.00     0.036 A 
ENDBRANCH   1   8
BRANCH   4  19
HETATM   19  O   UNL     1      43.209 -16.216   4.223  1.00  0.00    -0.344 OA
BRANCH  19  20
HETATM   20  C   UNL     1      43.486 -17.555   4.241  1.00  0.00     0.070 A 
HETATM   21  C   UNL     1      43.646 -18.375   3.124  1.00  0.00     0.060 A 
HETATM   22  C   UNL     1      43.910 -19.736   3.293  1.00  0.00     0.036 A 
HETATM   23 CL   UNL     1      44.098 -20.743   1.909  1.00  0.00    -0.084 Cl
HETATM   24  C   UNL     1      44.017 -20.290   4.567  1.00  0.00     0.024 A 
HETATM   25  C   UNL     1      43.852 -19.475   5.685  1.00  0.00     0.004 A 
HETATM   26  C   UNL     1      43.581 -18.115   5.518  1.00  0.00     0.037 A 
ENDBRANCH  19  20
ENDBRANCH   4  19
TORSDOF 3
ENDMDL
MODEL 8
REMARK VINA RESULT:      -8.6      2.285      2.726
REMARK  3 active torsions:
REMARK  status: ('A' for Active; 'I' for Inactive)
REMARK    1  A    between atoms: C_10  and  C_11 
REMARK       I    between atoms: C_11  and  N_12 
REMARK    2  A    between atoms: C_14  and  O_15 
REMARK    3  A    between atoms: O_15  and  C_16 
ROOT
HETATM    1  C   UNL     1      42.956 -14.612   2.361  1.00  0.00     0.255 C 
HETATM    2  N   UNL     1      41.872 -14.537   1.506  1.00  0.00    -0.345 N 
HETATM    3  C   UNL     1      41.462 -13.247   0.963  1.00  0.00     0.158 C 
HETATM    4  C   UNL     1      39.963 -13.401   0.675  1.00  0.00     0.148 C 
HETATM    5  C   UNL     1      39.883 -14.878   0.291  1.00  0.00     0.054 C 
HETATM    6  C   UNL     1      40.837 -15.536   1.276  1.00  0.00     0.129 C 
HETATM    7  O   UNL     1      43.677 -13.649   2.612  1.00  0.00    -0.267 OA
ENDROOT
BRANCH   1   8
HETATM    8  C   UNL     1      43.232 -15.876   3.067  1.00  0.00     0.050 A 
HETATM    9  C   UNL     1      43.378 -15.826   4.452  1.00  0.00     0.136 A 
HETATM   10  N   UNL     1      43.610 -16.891   5.263  1.00  0.00    -0.240 NA
HETATM   11  C   UNL     1      43.713 -18.045   4.577  1.00  0.00     0.155 A 
HETATM   12  N   UNL     1      43.941 -19.281   5.104  1.00  0.00    -0.260 N 
HETATM   13  C   UNL     1      43.621 -18.228   3.204  1.00  0.00     0.038 A 
HETATM   14  N   UNL     1      43.987 -20.267   4.185  1.00  0.00    -0.177 NA
HETATM   15  H   UNL     1      44.066 -19.508   6.083  1.00  0.00     0.191 HD
HETATM   16  C   UNL     1      43.800 -19.625   3.022  1.00  0.00     0.065 A 
HETATM   17  C   UNL     1      43.773 -20.382   1.746  1.00  0.00     0.073 C 
HETATM   18  C   UNL     1      43.393 -17.097   2.404  1.00  0.00     0.036 A 
ENDBRANCH   1   8
BRANCH   4  19
HETATM   19  O   UNL     1      39.578 -12.544  -0.393  1.00  0.00    -0.344 OA
BRANCH  19  20
HETATM   20  C   UNL     1      39.936 -11.227  -0.317  1.00  0.00     0.070 A 
HETATM   21  C   UNL     1      41.029 -10.635  -0.952  1.00  0.00     0.060 A 
HETATM   22  C   UNL     1      41.285  -9.274  -0.767  1.00  0.00     0.036 A 
HETATM   23 CL   UNL     1      42.640  -8.553  -1.548  1.00  0.00    -0.084 Cl
HETATM   24  C   UNL     1      40.463  -8.496   0.044  1.00  0.00     0.024 A 
HETATM   25  C   UNL     1      39.375  -9.085   0.684  1.00  0.00     0.004 A 
HETATM   26  C   UNL     1      39.120 -10.447   0.507  1.00  0.00     0.037 A 
ENDBRANCH  19  20
ENDBRANCH   4  19
TORSDOF 3
ENDMDL
MODEL 9
REMARK VINA RESULT:      -8.4      2.714      3.443
REMARK  3 active torsions:
REMARK  status: ('A' for Active; 'I' for Inactive)
REMARK    1  A    between atoms: C_10  and  C_11 
REMARK       I    between atoms: C_11  and  N_12 
REMARK    2  A    between atoms: C_14  and  O_15 
REMARK    3  A    between atoms: O_15  and  C_16 
ROOT
HETATM    1  C   UNL     1      40.646 -15.411   1.773  1.00  0.00     0.255 C 
HETATM    2  N   UNL     1      40.857 -14.053   1.614  1.00  0.00    -0.345 N 
HETATM    3  C   UNL     1      40.069 -13.303   0.643  1.00  0.00     0.158 C 
HETATM    4  C   UNL     1      40.960 -12.117   0.249  1.00  0.00     0.148 C 
HETATM    5  C   UNL     1      41.708 -11.858   1.556  1.00  0.00     0.054 C 
HETATM    6  C   UNL     1      41.992 -13.261   2.068  1.00  0.00     0.129 C 
HETATM    7  O   UNL     1      39.740 -16.016   1.206  1.00  0.00    -0.267 OA
ENDROOT
BRANCH   1   8
HETATM    8  C   UNL     1      41.582 -16.196   2.597  1.00  0.00     0.050 A 
HETATM    9  C   UNL     1      41.909 -15.699   3.858  1.00  0.00     0.136 A 
HETATM   10  N   UNL     1      42.733 -16.298   4.756  1.00  0.00    -0.240 NA
HETATM   11  C   UNL     1      43.244 -17.453   4.291  1.00  0.00     0.155 A 
HETATM   12  N   UNL     1      44.097 -18.284   4.954  1.00  0.00    -0.260 N 
HETATM   13  C   UNL     1      43.027 -18.041   3.053  1.00  0.00     0.038 A 
HETATM   14  N   UNL     1      44.443 -19.384   4.254  1.00  0.00    -0.177 NA
HETATM   15  H   UNL     1      44.469 -18.152   5.887  1.00  0.00     0.191 HD
HETATM   16  C   UNL     1      43.797 -19.234   3.088  1.00  0.00     0.065 A 
HETATM   17  C   UNL     1      43.918 -20.265   2.029  1.00  0.00     0.073 C 
HETATM   18  C   UNL     1      42.178 -17.379   2.151  1.00  0.00     0.036 A 
ENDBRANCH   1   8
BRANCH   4  19
HETATM   19  O   UNL     1      40.157 -11.010  -0.142  1.00  0.00    -0.344 OA
BRANCH  19  20
HETATM   20  C   UNL     1      40.661 -10.156  -1.084  1.00  0.00     0.070 A 
HETATM   21  C   UNL     1      41.736  -9.284  -0.909  1.00  0.00     0.060 A 
HETATM   22  C   UNL     1      42.131  -8.451  -1.958  1.00  0.00     0.036 A 
HETATM   23 CL   UNL     1      43.454  -7.371  -1.732  1.00  0.00    -0.084 Cl
HETATM   24  C   UNL     1      41.467  -8.480  -3.183  1.00  0.00     0.024 A 
HETATM   25  C   UNL     1      40.390  -9.346  -3.358  1.00  0.00     0.004 A 
HETATM   26  C   UNL     1      39.988 -10.174  -2.308  1.00  0.00     0.037 A 
ENDBRANCH  19  20
ENDBRANCH   4  19
TORSDOF 3
ENDMDL
MODEL 10
REMARK VINA RESULT:      -8.3      5.739      7.862
REMARK  3 active torsions:
REMARK  status: ('A' for Active; 'I' for Inactive)
REMARK    1  A    between atoms: C_10  and  C_11 
REMARK       I    between atoms: C_11  and  N_12 
REMARK    2  A    between atoms: C_14  and  O_15 
REMARK    3  A    between atoms: O_15  and  C_16 
ROOT
HETATM    1  C   UNL     1      41.778 -14.079   4.977  1.00  0.00     0.255 C 
HETATM    2  N   UNL     1      42.511 -13.194   5.745  1.00  0.00    -0.345 N 
HETATM    3  C   UNL     1      41.982 -11.865   6.028  1.00  0.00     0.158 C 
HETATM    4  C   UNL     1      43.222 -10.990   6.258  1.00  0.00     0.148 C 
HETATM    5  C   UNL     1      44.182 -11.995   6.894  1.00  0.00     0.054 C 
HETATM    6  C   UNL     1      43.924 -13.263   6.095  1.00  0.00     0.129 C 
HETATM    7  O   UNL     1      40.634 -13.844   4.597  1.00  0.00    -0.267 OA
ENDROOT
BRANCH   1   8
HETATM    8  C   UNL     1      42.406 -15.333   4.523  1.00  0.00     0.050 A 
HETATM    9  C   UNL     1      42.809 -15.411   3.190  1.00  0.00     0.136 A 
HETATM   10  N   UNL     1      43.423 -16.473   2.609  1.00  0.00    -0.240 NA
HETATM   11  C   UNL     1      43.595 -17.498   3.466  1.00  0.00     0.155 A 
HETATM   12  N   UNL     1      44.179 -18.696   3.186  1.00  0.00    -0.260 N 
HETATM   13  C   UNL     1      43.215 -17.562   4.800  1.00  0.00     0.038 A 
HETATM   14  N   UNL     1      44.230 -19.538   4.238  1.00  0.00    -0.177 NA
HETATM   15  H   UNL     1      44.564 -18.989   2.297  1.00  0.00     0.191 HD
HETATM   16  C   UNL     1      43.634 -18.851   5.224  1.00  0.00     0.065 A 
HETATM   17  C   UNL     1      43.500 -19.447   6.576  1.00  0.00     0.073 C 
HETATM   18  C   UNL     1      42.572 -16.444   5.355  1.00  0.00     0.036 A 
ENDBRANCH   1   8
BRANCH   4  19
HETATM   19  O   UNL     1      42.908  -9.915   7.135  1.00  0.00    -0.344 OA
BRANCH  19  20
HETATM   20  C   UNL     1      43.571  -9.850   8.329  1.00  0.00     0.070 A 
HETATM   21  C   UNL     1      43.059 -10.220   9.573  1.00  0.00     0.060 A 
HETATM   22  C   UNL     1      43.849 -10.081  10.718  1.00  0.00     0.036 A 
HETATM   23 CL   UNL     1      43.207 -10.533  12.251  1.00  0.00    -0.084 Cl
HETATM   24  C   UNL     1      45.144  -9.576  10.635  1.00  0.00     0.024 A 
HETATM   25  C   UNL     1      45.656  -9.200   9.394  1.00  0.00     0.004 A 
HETATM   26  C   UNL     1      44.866  -9.332   8.250  1.00  0.00     0.037 A 
ENDBRANCH  19  20
ENDBRANCH   4  19
TORSDOF 3
ENDMDL
