MODEL 1
REMARK VINA RESULT:      -9.4      0.000      0.000
REMARK  7 active torsions:
REMARK  status: ('A' for Active; 'I' for Inactive)
REMARK    1  A    between atoms: C_7  and  C_8 
REMARK    2  A    between atoms: C_8  and  C_9 
REMARK    3  A    between atoms: C_9  and  C_10 
REMARK    4  A    between atoms: C_10  and  O_11 
REMARK    5  A    between atoms: C_13  and  C_14 
REMARK    6  A    between atoms: C_21  and  C_22 
REMARK       I    between atoms: C_22  and  N_23 
REMARK    7  A    between atoms: N_23  and  C_24 
ROOT
HETATM    1  C   UNL     1      40.109 -13.289   6.217  1.00  0.00     0.070 C 
HETATM    2  C   UNL     1      40.703 -13.756   4.910  1.00  0.00     0.037 C 
HETATM    3  N   UNL     1      39.798 -13.893   3.855  1.00  0.00    -0.192 N 
HETATM    4  C   UNL     1      40.202 -14.005   2.573  1.00  0.00     0.726 A 
HETATM    5  N   UNL     1      41.511 -14.292   2.317  1.00  0.00    -0.083 N 
HETATM    6  N   UNL     1      41.783 -14.253   0.997  1.00  0.00    -0.140 NA
HETATM    7  C   UNL     1      40.568 -13.963   0.505  1.00  0.00     0.166 A 
HETATM    8  N   UNL     1      39.570 -13.817   1.442  1.00  0.00    -0.046 NA
HETATM    9  C   UNL     1      42.513 -14.521   3.356  1.00  0.00     0.202 C 
HETATM   10  C   UNL     1      42.024 -14.017   4.713  1.00  0.00     0.062 C 
HETATM   11  H   UNL     1      38.859 -13.535   4.017  1.00  0.00     0.184 HD
ENDROOT
BRANCH  10  12
HETATM   12  C   UNL     1      43.052 -13.595   5.718  1.00  0.00     0.256 C 
HETATM   13  N   UNL     1      43.468 -12.286   5.607  1.00  0.00    -0.323 N 
HETATM   14  H   UNL     1      43.169 -11.749   4.805  1.00  0.00     0.169 HD
HETATM   15  O   UNL     1      43.397 -14.386   6.589  1.00  0.00    -0.267 OA
BRANCH  13  16
HETATM   16  C   UNL     1      44.277 -11.567   6.516  1.00  0.00     0.035 A 
HETATM   17  C   UNL     1      45.665 -11.451   6.412  1.00  0.00     0.029 A 
HETATM   18  C   UNL     1      46.393 -10.744   7.375  1.00  0.00     0.002 A 
HETATM   19  C   UNL     1      45.740 -10.154   8.455  1.00  0.00     0.000 A 
HETATM   20  C   UNL     1      44.358 -10.262   8.569  1.00  0.00     0.002 A 
HETATM   21  C   UNL     1      43.629 -10.959   7.600  1.00  0.00     0.029 A 
ENDBRANCH  13  16
ENDBRANCH  10  12
BRANCH   9  22
HETATM   22  C   UNL     1      42.890 -16.006   3.355  1.00  0.00    -0.028 A 
HETATM   23  C   UNL     1      42.504 -16.822   2.277  1.00  0.00     0.011 A 
HETATM   24  C   UNL     1      42.833 -18.179   2.254  1.00  0.00     0.019 A 
HETATM   25  C   UNL     1      43.547 -18.737   3.311  1.00  0.00     0.011 A 
HETATM   26 BR   UNL     1      43.993 -20.573   3.280  1.00  0.00    -0.051 Br
HETATM   27  C   UNL     1      43.928 -17.952   4.396  1.00  0.00     0.019 A 
HETATM   28  C   UNL     1      43.595 -16.596   4.423  1.00  0.00     0.011 A 
ENDBRANCH   9  22
BRANCH   7  29
HETATM   29  C   UNL     1      40.331 -13.754  -0.945  1.00  0.00     0.085 C 
BRANCH  29  30
HETATM   30  C   UNL     1      40.797 -12.385  -1.439  1.00  0.00     0.034 C 
BRANCH  30  31
HETATM   31  C   UNL     1      40.947 -12.312  -2.956  1.00  0.00     0.164 C 
BRANCH  31  32
HETATM   32  O   UNL     1      41.631 -13.470  -3.425  1.00  0.00    -0.401 OA
HETATM   33  H   UNL     1      42.529 -13.451  -3.055  1.00  0.00     0.209 HD
ENDBRANCH  31  32
ENDBRANCH  30  31
ENDBRANCH  29  30
ENDBRANCH   7  29
TORSDOF 7
ENDMDL
MODEL 2
REMARK VINA RESULT:      -9.4      3.732      7.954
REMARK  7 active torsions:
REMARK  status: ('A' for Active; 'I' for Inactive)
REMARK    1  A    between atoms: C_7  and  C_8 
REMARK    2  A    between atoms: C_8  and  C_9 
REMARK    3  A    between atoms: C_9  and  C_10 
REMARK    4  A    between atoms: C_10  and  O_11 
REMARK    5  A    between atoms: C_13  and  C_14 
REMARK    6  A    between atoms: C_21  and  C_22 
REMARK       I    between atoms: C_22  and  N_23 
REMARK    7  A    between atoms: N_23  and  C_24 
ROOT
HETATM    1  C   UNL     1      41.841 -16.019   7.149  1.00  0.00     0.070 C 
HETATM    2  C   UNL     1      42.492 -14.789   6.565  1.00  0.00     0.037 C 
HETATM    3  N   UNL     1      42.843 -13.800   7.488  1.00  0.00    -0.192 N 
HETATM    4  C   UNL     1      43.687 -12.795   7.176  1.00  0.00     0.726 A 
HETATM    5  N   UNL     1      43.972 -12.556   5.863  1.00  0.00    -0.083 N 
HETATM    6  N   UNL     1      44.917 -11.605   5.721  1.00  0.00    -0.140 NA
HETATM    7  C   UNL     1      45.139 -11.286   7.005  1.00  0.00     0.166 A 
HETATM    8  N   UNL     1      44.392 -11.986   7.926  1.00  0.00    -0.046 NA
HETATM    9  C   UNL     1      43.389 -13.308   4.753  1.00  0.00     0.202 C 
HETATM   10  C   UNL     1      42.760 -14.612   5.243  1.00  0.00     0.062 C 
HETATM   11  H   UNL     1      42.764 -14.053   8.471  1.00  0.00     0.184 HD
ENDROOT
BRANCH  10  12
HETATM   12  C   UNL     1      42.678 -15.757   4.280  1.00  0.00     0.256 C 
HETATM   13  N   UNL     1      43.609 -16.753   4.482  1.00  0.00    -0.323 N 
HETATM   14  H   UNL     1      44.347 -16.597   5.154  1.00  0.00     0.169 HD
HETATM   15  O   UNL     1      41.779 -15.775   3.446  1.00  0.00    -0.267 OA
BRANCH  13  16
HETATM   16  C   UNL     1      43.653 -18.020   3.857  1.00  0.00     0.035 A 
HETATM   17  C   UNL     1      43.333 -18.248   2.517  1.00  0.00     0.029 A 
HETATM   18  C   UNL     1      43.376 -19.542   1.986  1.00  0.00     0.002 A 
HETATM   19  C   UNL     1      43.731 -20.619   2.793  1.00  0.00     0.000 A 
HETATM   20  C   UNL     1      44.053 -20.405   4.129  1.00  0.00     0.002 A 
HETATM   21  C   UNL     1      44.022 -19.111   4.657  1.00  0.00     0.029 A 
ENDBRANCH  13  16
ENDBRANCH  10  12
BRANCH   9  22
HETATM   22  C   UNL     1      42.409 -12.399   4.005  1.00  0.00    -0.028 A 
HETATM   23  C   UNL     1      41.100 -12.237   4.492  1.00  0.00     0.011 A 
HETATM   24  C   UNL     1      40.187 -11.417   3.827  1.00  0.00     0.019 A 
HETATM   25  C   UNL     1      40.570 -10.754   2.663  1.00  0.00     0.011 A 
HETATM   26 BR   UNL     1      39.334  -9.644   1.763  1.00  0.00    -0.051 Br
HETATM   27  C   UNL     1      41.856 -10.911   2.155  1.00  0.00     0.019 A 
HETATM   28  C   UNL     1      42.769 -11.735   2.817  1.00  0.00     0.011 A 
ENDBRANCH   9  22
BRANCH   7  29
HETATM   29  C   UNL     1      46.163 -10.289   7.407  1.00  0.00     0.085 C 
BRANCH  29  30
HETATM   30  C   UNL     1      45.772  -9.495   8.653  1.00  0.00     0.034 C 
BRANCH  30  31
HETATM   31  C   UNL     1      44.548  -8.609   8.442  1.00  0.00     0.164 C 
BRANCH  31  32
HETATM   32  O   UNL     1      44.921  -7.240   8.567  1.00  0.00    -0.401 OA
HETATM   33  H   UNL     1      45.881  -7.210   8.712  1.00  0.00     0.209 HD
ENDBRANCH  31  32
ENDBRANCH  30  31
ENDBRANCH  29  30
ENDBRANCH   7  29
TORSDOF 7
ENDMDL
MODEL 3
REMARK VINA RESULT:      -8.6      2.271      2.849
REMARK  7 active torsions:
REMARK  status: ('A' for Active; 'I' for Inactive)
REMARK    1  A    between atoms: C_7  and  C_8 
REMARK    2  A    between atoms: C_8  and  C_9 
REMARK    3  A    between atoms: C_9  and  C_10 
REMARK    4  A    between atoms: C_10  and  O_11 
REMARK    5  A    between atoms: C_13  and  C_14 
REMARK    6  A    between atoms: C_21  and  C_22 
REMARK       I    between atoms: C_22  and  N_23 
REMARK    7  A    between atoms: N_23  and  C_24 
ROOT
HETATM    1  C   UNL     1      38.909 -10.829   4.612  1.00  0.00     0.070 C 
HETATM    2  C   UNL     1      39.556 -11.480   3.415  1.00  0.00     0.037 C 
HETATM    3  N   UNL     1      38.680 -11.885   2.405  1.00  0.00    -0.192 N 
HETATM    4  C   UNL     1      39.109 -12.200   1.166  1.00  0.00     0.726 A 
HETATM    5  N   UNL     1      40.441 -12.422   0.966  1.00  0.00    -0.083 N 
HETATM    6  N   UNL     1      40.726 -12.606  -0.338  1.00  0.00    -0.140 NA
HETATM    7  C   UNL     1      39.500 -12.514  -0.874  1.00  0.00     0.166 A 
HETATM    8  N   UNL     1      38.479 -12.279   0.021  1.00  0.00    -0.046 NA
HETATM    9  C   UNL     1      41.443 -12.370   2.028  1.00  0.00     0.202 C 
HETATM   10  C   UNL     1      40.896 -11.665   3.267  1.00  0.00     0.062 C 
HETATM   11  H   UNL     1      37.712 -11.581   2.499  1.00  0.00     0.184 HD
ENDROOT
BRANCH  10  12
HETATM   12  C   UNL     1      41.873 -10.979   4.175  1.00  0.00     0.256 C 
HETATM   13  N   UNL     1      42.396 -11.775   5.170  1.00  0.00    -0.323 N 
HETATM   14  H   UNL     1      42.007 -12.698   5.308  1.00  0.00     0.169 HD
HETATM   15  O   UNL     1      42.189  -9.817   3.945  1.00  0.00    -0.267 OA
BRANCH  13  16
HETATM   16  C   UNL     1      43.460 -11.458   6.046  1.00  0.00     0.035 A 
HETATM   17  C   UNL     1      43.294 -10.934   7.329  1.00  0.00     0.029 A 
HETATM   18  C   UNL     1      44.406 -10.621   8.118  1.00  0.00     0.002 A 
HETATM   19  C   UNL     1      45.694 -10.822   7.627  1.00  0.00     0.000 A 
HETATM   20  C   UNL     1      45.872 -11.344   6.350  1.00  0.00     0.002 A 
HETATM   21  C   UNL     1      44.761 -11.668   5.566  1.00  0.00     0.029 A 
ENDBRANCH  13  16
ENDBRANCH  10  12
BRANCH   9  22
HETATM   22  C   UNL     1      41.940 -13.794   2.304  1.00  0.00    -0.028 A 
HETATM   23  C   UNL     1      41.219 -14.624   3.180  1.00  0.00     0.011 A 
HETATM   24  C   UNL     1      41.652 -15.924   3.450  1.00  0.00     0.019 A 
HETATM   25  C   UNL     1      42.814 -16.406   2.852  1.00  0.00     0.011 A 
HETATM   26 BR   UNL     1      43.400 -18.164   3.218  1.00  0.00    -0.051 Br
HETATM   27  C   UNL     1      43.551 -15.597   1.993  1.00  0.00     0.019 A 
HETATM   28  C   UNL     1      43.122 -14.294   1.725  1.00  0.00     0.011 A 
ENDBRANCH   9  22
BRANCH   7  29
HETATM   29  C   UNL     1      39.266 -12.599  -2.338  1.00  0.00     0.085 C 
BRANCH  29  30
HETATM   30  C   UNL     1      38.045 -13.440  -2.704  1.00  0.00     0.034 C 
BRANCH  30  31
HETATM   31  C   UNL     1      38.404 -14.827  -3.228  1.00  0.00     0.164 C 
BRANCH  31  32
HETATM   32  O   UNL     1      38.051 -14.925  -4.604  1.00  0.00    -0.401 OA
HETATM   33  H   UNL     1      37.216 -15.419  -4.659  1.00  0.00     0.209 HD
ENDBRANCH  31  32
ENDBRANCH  30  31
ENDBRANCH  29  30
ENDBRANCH   7  29
TORSDOF 7
ENDMDL
MODEL 4
REMARK VINA RESULT:      -8.4      1.575      1.936
REMARK  7 active torsions:
REMARK  status: ('A' for Active; 'I' for Inactive)
REMARK    1  A    between atoms: C_7  and  C_8 
REMARK    2  A    between atoms: C_8  and  C_9 
REMARK    3  A    between atoms: C_9  and  C_10 
REMARK    4  A    between atoms: C_10  and  O_11 
REMARK    5  A    between atoms: C_13  and  C_14 
REMARK    6  A    between atoms: C_21  and  C_22 
REMARK       I    between atoms: C_22  and  N_23 
REMARK    7  A    between atoms: N_23  and  C_24 
ROOT
HETATM    1  C   UNL     1      39.501 -12.355   5.984  1.00  0.00     0.070 C 
HETATM    2  C   UNL     1      40.130 -12.668   4.649  1.00  0.00     0.037 C 
HETATM    3  N   UNL     1      39.269 -12.605   3.551  1.00  0.00    -0.192 N 
HETATM    4  C   UNL     1      39.726 -12.560   2.282  1.00  0.00     0.726 A 
HETATM    5  N   UNL     1      41.029 -12.883   2.038  1.00  0.00    -0.083 N 
HETATM    6  N   UNL     1      41.363 -12.675   0.749  1.00  0.00    -0.140 NA
HETATM    7  C   UNL     1      40.189 -12.251   0.257  1.00  0.00     0.166 A 
HETATM    8  N   UNL     1      39.157 -12.180   1.166  1.00  0.00    -0.046 NA
HETATM    9  C   UNL     1      41.968 -13.312   3.073  1.00  0.00     0.202 C 
HETATM   10  C   UNL     1      41.443 -12.975   4.467  1.00  0.00     0.062 C 
HETATM   11  H   UNL     1      38.343 -12.219   3.725  1.00  0.00     0.184 HD
ENDROOT
BRANCH  10  12
HETATM   12  C   UNL     1      42.444 -12.756   5.561  1.00  0.00     0.256 C 
HETATM   13  N   UNL     1      43.075 -11.531   5.533  1.00  0.00    -0.323 N 
HETATM   14  H   UNL     1      42.932 -10.930   4.734  1.00  0.00     0.169 HD
HETATM   15  O   UNL     1      42.586 -13.616   6.423  1.00  0.00    -0.267 OA
BRANCH  13  16
HETATM   16  C   UNL     1      43.917 -10.982   6.527  1.00  0.00     0.035 A 
HETATM   17  C   UNL     1      43.477 -10.154   7.562  1.00  0.00     0.029 A 
HETATM   18  C   UNL     1      44.385  -9.630   8.488  1.00  0.00     0.002 A 
HETATM   19  C   UNL     1      45.743  -9.922   8.382  1.00  0.00     0.000 A 
HETATM   20  C   UNL     1      46.193 -10.746   7.356  1.00  0.00     0.002 A 
HETATM   21  C   UNL     1      45.284 -11.280   6.438  1.00  0.00     0.029 A 
ENDBRANCH  13  16
ENDBRANCH  10  12
BRANCH   9  22
HETATM   22  C   UNL     1      42.269 -14.801   2.876  1.00  0.00    -0.028 A 
HETATM   23  C   UNL     1      43.191 -15.201   1.892  1.00  0.00     0.011 A 
HETATM   24  C   UNL     1      43.480 -16.552   1.691  1.00  0.00     0.019 A 
HETATM   25  C   UNL     1      42.847 -17.520   2.468  1.00  0.00     0.011 A 
HETATM   26 BR   UNL     1      43.238 -19.348   2.196  1.00  0.00    -0.051 Br
HETATM   27  C   UNL     1      41.921 -17.148   3.438  1.00  0.00     0.019 A 
HETATM   28  C   UNL     1      41.627 -15.797   3.637  1.00  0.00     0.011 A 
ENDBRANCH   9  22
BRANCH   7  29
HETATM   29  C   UNL     1      40.031 -11.828  -1.157  1.00  0.00     0.085 C 
BRANCH  29  30
HETATM   30  C   UNL     1      41.282 -11.166  -1.731  1.00  0.00     0.034 C 
BRANCH  30  31
HETATM   31  C   UNL     1      41.196  -9.644  -1.765  1.00  0.00     0.164 C 
BRANCH  31  32
HETATM   32  O   UNL     1      42.463  -9.085  -1.430  1.00  0.00    -0.401 OA
HETATM   33  H   UNL     1      43.144  -9.730  -1.683  1.00  0.00     0.209 HD
ENDBRANCH  31  32
ENDBRANCH  30  31
ENDBRANCH  29  30
ENDBRANCH   7  29
TORSDOF 7
ENDMDL
MODEL 5
REMARK VINA RESULT:      -8.3      3.557      8.364
REMARK  7 active torsions:
REMARK  status: ('A' for Active; 'I' for Inactive)
REMARK    1  A    between atoms: C_7  and  C_8 
REMARK    2  A    between atoms: C_8  and  C_9 
REMARK    3  A    between atoms: C_9  and  C_10 
REMARK    4  A    between atoms: C_10  and  O_11 
REMARK    5  A    between atoms: C_13  and  C_14 
REMARK    6  A    between atoms: C_21  and  C_22 
REMARK       I    between atoms: C_22  and  N_23 
REMARK    7  A    between atoms: N_23  and  C_24 
ROOT
HETATM    1  C   UNL     1      41.431 -16.202   4.098  1.00  0.00     0.070 C 
HETATM    2  C   UNL     1      41.969 -14.801   4.255  1.00  0.00     0.037 C 
HETATM    3  N   UNL     1      42.459 -14.486   5.525  1.00  0.00    -0.192 N 
HETATM    4  C   UNL     1      43.234 -13.404   5.747  1.00  0.00     0.726 A 
HETATM    5  N   UNL     1      43.300 -12.432   4.791  1.00  0.00    -0.083 N 
HETATM    6  N   UNL     1      44.203 -11.482   5.105  1.00  0.00    -0.140 NA
HETATM    7  C   UNL     1      44.628 -11.931   6.296  1.00  0.00     0.166 A 
HETATM    8  N   UNL     1      44.046 -13.102   6.729  1.00  0.00    -0.046 NA
HETATM    9  C   UNL     1      42.550 -12.472   3.537  1.00  0.00     0.202 C 
HETATM   10  C   UNL     1      42.018 -13.876   3.258  1.00  0.00     0.062 C 
HETATM   11  H   UNL     1      42.542 -15.260   6.181  1.00  0.00     0.184 HD
ENDROOT
BRANCH  10  12
HETATM   12  C   UNL     1      41.788 -14.271   1.830  1.00  0.00     0.256 C 
HETATM   13  N   UNL     1      40.671 -13.712   1.248  1.00  0.00    -0.323 N 
HETATM   14  H   UNL     1      40.025 -13.198   1.831  1.00  0.00     0.169 HD
HETATM   15  O   UNL     1      42.612 -14.982   1.266  1.00  0.00    -0.267 OA
BRANCH  13  16
HETATM   16  C   UNL     1      40.310 -13.755  -0.119  1.00  0.00     0.035 A 
HETATM   17  C   UNL     1      39.558 -14.777  -0.702  1.00  0.00     0.029 A 
HETATM   18  C   UNL     1      39.271 -14.755  -2.071  1.00  0.00     0.002 A 
HETATM   19  C   UNL     1      39.740 -13.715  -2.870  1.00  0.00     0.000 A 
HETATM   20  C   UNL     1      40.489 -12.690  -2.300  1.00  0.00     0.002 A 
HETATM   21  C   UNL     1      40.766 -12.706  -0.930  1.00  0.00     0.029 A 
ENDBRANCH  13  16
ENDBRANCH  10  12
BRANCH   9  22
HETATM   22  C   UNL     1      41.455 -11.401   3.586  1.00  0.00    -0.028 A 
HETATM   23  C   UNL     1      41.568 -10.253   2.782  1.00  0.00     0.011 A 
HETATM   24  C   UNL     1      40.585  -9.262   2.810  1.00  0.00     0.019 A 
HETATM   25  C   UNL     1      39.481  -9.404   3.647  1.00  0.00     0.011 A 
HETATM   26 BR   UNL     1      38.151  -8.063   3.686  1.00  0.00    -0.051 Br
HETATM   27  C   UNL     1      39.355 -10.526   4.462  1.00  0.00     0.019 A 
HETATM   28  C   UNL     1      40.340 -11.516   4.439  1.00  0.00     0.011 A 
ENDBRANCH   9  22
BRANCH   7  29
HETATM   29  C   UNL     1      45.697 -11.246   7.065  1.00  0.00     0.085 C 
BRANCH  29  30
HETATM   30  C   UNL     1      45.163 -10.433   8.243  1.00  0.00     0.034 C 
BRANCH  30  31
HETATM   31  C   UNL     1      45.747  -9.026   8.319  1.00  0.00     0.164 C 
BRANCH  31  32
HETATM   32  O   UNL     1      46.912  -8.947   7.504  1.00  0.00    -0.401 OA
HETATM   33  H   UNL     1      47.187  -8.015   7.473  1.00  0.00     0.209 HD
ENDBRANCH  31  32
ENDBRANCH  30  31
ENDBRANCH  29  30
ENDBRANCH   7  29
TORSDOF 7
ENDMDL
MODEL 6
REMARK VINA RESULT:      -8.2      3.400      6.814
REMARK  7 active torsions:
REMARK  status: ('A' for Active; 'I' for Inactive)
REMARK    1  A    between atoms: C_7  and  C_8 
REMARK    2  A    between atoms: C_8  and  C_9 
REMARK    3  A    between atoms: C_9  and  C_10 
REMARK    4  A    between atoms: C_10  and  O_11 
REMARK    5  A    between atoms: C_13  and  C_14 
REMARK    6  A    between atoms: C_21  and  C_22 
REMARK       I    between atoms: C_22  and  N_23 
REMARK    7  A    between atoms: N_23  and  C_24 
ROOT
HETATM    1  C   UNL     1      40.726 -14.111   0.569  1.00  0.00     0.070 C 
HETATM    2  C   UNL     1      40.594 -13.368   1.876  1.00  0.00     0.037 C 
HETATM    3  N   UNL     1      40.091 -12.068   1.778  1.00  0.00    -0.192 N 
HETATM    4  C   UNL     1      39.637 -11.392   2.854  1.00  0.00     0.726 A 
HETATM    5  N   UNL     1      39.943 -11.854   4.101  1.00  0.00    -0.083 N 
HETATM    6  N   UNL     1      39.320 -11.145   5.063  1.00  0.00    -0.140 NA
HETATM    7  C   UNL     1      38.670 -10.237   4.319  1.00  0.00     0.166 A 
HETATM    8  N   UNL     1      38.852 -10.350   2.958  1.00  0.00    -0.046 NA
HETATM    9  C   UNL     1      40.770 -13.032   4.352  1.00  0.00     0.202 C 
HETATM   10  C   UNL     1      40.907 -13.887   3.094  1.00  0.00     0.062 C 
HETATM   11  H   UNL     1      39.729 -11.792   0.868  1.00  0.00     0.184 HD
ENDROOT
BRANCH  10  12
HETATM   12  C   UNL     1      41.154 -15.356   3.265  1.00  0.00     0.256 C 
HETATM   13  N   UNL     1      42.472 -15.740   3.142  1.00  0.00    -0.323 N 
HETATM   14  H   UNL     1      43.148 -15.059   2.824  1.00  0.00     0.169 HD
HETATM   15  O   UNL     1      40.218 -16.090   3.561  1.00  0.00    -0.267 OA
BRANCH  13  16
HETATM   16  C   UNL     1      43.021 -17.010   3.431  1.00  0.00     0.035 A 
HETATM   17  C   UNL     1      43.580 -17.365   4.661  1.00  0.00     0.029 A 
HETATM   18  C   UNL     1      44.128 -18.637   4.851  1.00  0.00     0.002 A 
HETATM   19  C   UNL     1      44.131 -19.563   3.811  1.00  0.00     0.000 A 
HETATM   20  C   UNL     1      43.577 -19.222   2.582  1.00  0.00     0.002 A 
HETATM   21  C   UNL     1      43.018 -17.954   2.395  1.00  0.00     0.029 A 
ENDBRANCH  13  16
ENDBRANCH  10  12
BRANCH   9  22
HETATM   22  C   UNL     1      42.113 -12.575   4.931  1.00  0.00    -0.028 A 
HETATM   23  C   UNL     1      42.459 -12.926   6.248  1.00  0.00     0.011 A 
HETATM   24  C   UNL     1      43.676 -12.520   6.799  1.00  0.00     0.019 A 
HETATM   25  C   UNL     1      44.558 -11.753   6.042  1.00  0.00     0.011 A 
HETATM   26 BR   UNL     1      46.205 -11.203   6.787  1.00  0.00    -0.051 Br
HETATM   27  C   UNL     1      44.231 -11.382   4.741  1.00  0.00     0.019 A 
HETATM   28  C   UNL     1      43.011 -11.784   4.190  1.00  0.00     0.011 A 
ENDBRANCH   9  22
BRANCH   7  29
HETATM   29  C   UNL     1      37.770  -9.220   4.917  1.00  0.00     0.085 C 
BRANCH  29  30
HETATM   30  C   UNL     1      38.468  -7.891   5.199  1.00  0.00     0.034 C 
BRANCH  30  31
HETATM   31  C   UNL     1      39.158  -7.850   6.558  1.00  0.00     0.164 C 
BRANCH  31  32
HETATM   32  O   UNL     1      38.727  -8.954   7.348  1.00  0.00    -0.401 OA
HETATM   33  H   UNL     1      38.942  -8.755   8.275  1.00  0.00     0.209 HD
ENDBRANCH  31  32
ENDBRANCH  30  31
ENDBRANCH  29  30
ENDBRANCH   7  29
TORSDOF 7
ENDMDL
MODEL 7
REMARK VINA RESULT:      -7.9      4.123      7.854
REMARK  7 active torsions:
REMARK  status: ('A' for Active; 'I' for Inactive)
REMARK    1  A    between atoms: C_7  and  C_8 
REMARK    2  A    between atoms: C_8  and  C_9 
REMARK    3  A    between atoms: C_9  and  C_10 
REMARK    4  A    between atoms: C_10  and  O_11 
REMARK    5  A    between atoms: C_13  and  C_14 
REMARK    6  A    between atoms: C_21  and  C_22 
REMARK       I    between atoms: C_22  and  N_23 
REMARK    7  A    between atoms: N_23  and  C_24 
ROOT
HETATM    1  C   UNL     1      38.880 -13.853  -2.049  1.00  0.00     0.070 C 
HETATM    2  C   UNL     1      39.769 -13.854  -0.830  1.00  0.00     0.037 C 
HETATM    3  N   UNL     1      39.606 -14.943   0.029  1.00  0.00    -0.192 N 
HETATM    4  C   UNL     1      40.512 -15.247   0.983  1.00  0.00     0.726 A 
HETATM    5  N   UNL     1      41.450 -14.315   1.322  1.00  0.00    -0.083 N 
HETATM    6  N   UNL     1      42.350 -14.807   2.196  1.00  0.00    -0.140 NA
HETATM    7  C   UNL     1      41.871 -16.049   2.369  1.00  0.00     0.166 A 
HETATM    8  N   UNL     1      40.735 -16.350   1.650  1.00  0.00    -0.046 NA
HETATM    9  C   UNL     1      41.519 -12.979   0.735  1.00  0.00     0.202 C 
HETATM   10  C   UNL     1      40.697 -12.899  -0.550  1.00  0.00     0.062 C 
HETATM   11  H   UNL     1      39.016 -15.701  -0.309  1.00  0.00     0.184 HD
ENDROOT
BRANCH  10  12
HETATM   12  C   UNL     1      41.105 -11.895  -1.586  1.00  0.00     0.256 C 
HETATM   13  N   UNL     1      41.030 -10.580  -1.180  1.00  0.00    -0.323 N 
HETATM   14  H   UNL     1      40.594 -10.371  -0.293  1.00  0.00     0.169 HD
HETATM   15  O   UNL     1      41.532 -12.289  -2.665  1.00  0.00    -0.267 OA
BRANCH  13  16
HETATM   16  C   UNL     1      41.518  -9.446  -1.868  1.00  0.00     0.035 A 
HETATM   17  C   UNL     1      41.036  -9.005  -3.102  1.00  0.00     0.029 A 
HETATM   18  C   UNL     1      41.598  -7.887  -3.727  1.00  0.00     0.002 A 
HETATM   19  C   UNL     1      42.654  -7.205  -3.127  1.00  0.00     0.000 A 
HETATM   20  C   UNL     1      43.143  -7.634  -1.897  1.00  0.00     0.002 A 
HETATM   21  C   UNL     1      42.573  -8.744  -1.267  1.00  0.00     0.029 A 
ENDBRANCH  13  16
ENDBRANCH  10  12
BRANCH   9  22
HETATM   22  C   UNL     1      41.100 -11.954   1.794  1.00  0.00    -0.028 A 
HETATM   23  C   UNL     1      39.771 -11.931   2.252  1.00  0.00     0.011 A 
HETATM   24  C   UNL     1      39.364 -11.005   3.215  1.00  0.00     0.019 A 
HETATM   25  C   UNL     1      40.279 -10.088   3.726  1.00  0.00     0.011 A 
HETATM   26 BR   UNL     1      39.727  -8.835   5.028  1.00  0.00    -0.051 Br
HETATM   27  C   UNL     1      41.596 -10.083   3.277  1.00  0.00     0.019 A 
HETATM   28  C   UNL     1      42.004 -11.005   2.310  1.00  0.00     0.011 A 
ENDBRANCH   9  22
BRANCH   7  29
HETATM   29  C   UNL     1      42.554 -17.048   3.229  1.00  0.00     0.085 C 
BRANCH  29  30
HETATM   30  C   UNL     1      43.195 -18.185   2.435  1.00  0.00     0.034 C 
BRANCH  30  31
HETATM   31  C   UNL     1      44.021 -19.132   3.301  1.00  0.00     0.164 C 
BRANCH  31  32
HETATM   32  O   UNL     1      43.617 -20.476   3.060  1.00  0.00    -0.401 OA
HETATM   33  H   UNL     1      42.696 -20.564   3.357  1.00  0.00     0.209 HD
ENDBRANCH  31  32
ENDBRANCH  30  31
ENDBRANCH  29  30
ENDBRANCH   7  29
TORSDOF 7
ENDMDL
MODEL 8
REMARK VINA RESULT:      -7.9      3.467      6.934
REMARK  7 active torsions:
REMARK  status: ('A' for Active; 'I' for Inactive)
REMARK    1  A    between atoms: C_7  and  C_8 
REMARK    2  A    between atoms: C_8  and  C_9 
REMARK    3  A    between atoms: C_9  and  C_10 
REMARK    4  A    between atoms: C_10  and  O_11 
REMARK    5  A    between atoms: C_13  and  C_14 
REMARK    6  A    between atoms: C_21  and  C_22 
REMARK       I    between atoms: C_22  and  N_23 
REMARK    7  A    between atoms: N_23  and  C_24 
ROOT
HETATM    1  C   UNL     1      38.673 -12.688   2.669  1.00  0.00     0.070 C 
HETATM    2  C   UNL     1      40.064 -13.218   2.920  1.00  0.00     0.037 C 
HETATM    3  N   UNL     1      40.129 -14.527   3.403  1.00  0.00    -0.192 N 
HETATM    4  C   UNL     1      41.275 -15.240   3.391  1.00  0.00     0.726 A 
HETATM    5  N   UNL     1      42.456 -14.587   3.189  1.00  0.00    -0.083 N 
HETATM    6  N   UNL     1      43.490 -15.444   3.085  1.00  0.00    -0.140 NA
HETATM    7  C   UNL     1      42.859 -16.614   3.269  1.00  0.00     0.166 A 
HETATM    8  N   UNL     1      41.499 -16.527   3.473  1.00  0.00    -0.046 NA
HETATM    9  C   UNL     1      42.567 -13.140   3.013  1.00  0.00     0.202 C 
HETATM   10  C   UNL     1      41.209 -12.520   2.688  1.00  0.00     0.062 C 
HETATM   11  H   UNL     1      39.256 -15.050   3.406  1.00  0.00     0.184 HD
ENDROOT
BRANCH  10  12
HETATM   12  C   UNL     1      41.189 -11.247   1.896  1.00  0.00     0.256 C 
HETATM   13  N   UNL     1      41.101 -11.416   0.531  1.00  0.00    -0.323 N 
HETATM   14  H   UNL     1      41.188 -12.348   0.151  1.00  0.00     0.169 HD
HETATM   15  O   UNL     1      41.181 -10.174   2.489  1.00  0.00    -0.267 OA
BRANCH  13  16
HETATM   16  C   UNL     1      40.881 -10.412  -0.440  1.00  0.00     0.035 A 
HETATM   17  C   UNL     1      39.649 -10.162  -1.048  1.00  0.00     0.029 A 
HETATM   18  C   UNL     1      39.527  -9.166  -2.023  1.00  0.00     0.002 A 
HETATM   19  C   UNL     1      40.637  -8.417  -2.404  1.00  0.00     0.000 A 
HETATM   20  C   UNL     1      41.870  -8.656  -1.805  1.00  0.00     0.002 A 
HETATM   21  C   UNL     1      41.990  -9.643  -0.823  1.00  0.00     0.029 A 
ENDBRANCH  13  16
ENDBRANCH  10  12
BRANCH   9  22
HETATM   22  C   UNL     1      43.230 -12.543   4.258  1.00  0.00    -0.028 A 
HETATM   23  C   UNL     1      42.675 -12.788   5.527  1.00  0.00     0.011 A 
HETATM   24  C   UNL     1      43.259 -12.253   6.677  1.00  0.00     0.019 A 
HETATM   25  C   UNL     1      44.400 -11.462   6.572  1.00  0.00     0.011 A 
HETATM   26 BR   UNL     1      45.189 -10.738   8.128  1.00  0.00    -0.051 Br
HETATM   27  C   UNL     1      44.958 -11.194   5.325  1.00  0.00     0.019 A 
HETATM   28  C   UNL     1      44.372 -11.724   4.173  1.00  0.00     0.011 A 
ENDBRANCH   9  22
BRANCH   7  29
HETATM   29  C   UNL     1      43.567 -17.916   3.196  1.00  0.00     0.085 C 
BRANCH  29  30
HETATM   30  C   UNL     1      42.913 -18.904   2.231  1.00  0.00     0.034 C 
BRANCH  30  31
HETATM   31  C   UNL     1      43.427 -20.331   2.389  1.00  0.00     0.164 C 
BRANCH  31  32
HETATM   32  O   UNL     1      43.450 -20.975   1.119  1.00  0.00    -0.401 OA
HETATM   33  H   UNL     1      43.057 -20.365   0.473  1.00  0.00     0.209 HD
ENDBRANCH  31  32
ENDBRANCH  30  31
ENDBRANCH  29  30
ENDBRANCH   7  29
TORSDOF 7
ENDMDL
MODEL 9
REMARK VINA RESULT:      -7.9      3.123      7.358
REMARK  7 active torsions:
REMARK  status: ('A' for Active; 'I' for Inactive)
REMARK    1  A    between atoms: C_7  and  C_8 
REMARK    2  A    between atoms: C_8  and  C_9 
REMARK    3  A    between atoms: C_9  and  C_10 
REMARK    4  A    between atoms: C_10  and  O_11 
REMARK    5  A    between atoms: C_13  and  C_14 
REMARK    6  A    between atoms: C_21  and  C_22 
REMARK       I    between atoms: C_22  and  N_23 
REMARK    7  A    between atoms: N_23  and  C_24 
ROOT
HETATM    1  C   UNL     1      40.149 -16.379   5.973  1.00  0.00     0.070 C 
HETATM    2  C   UNL     1      40.689 -15.116   5.349  1.00  0.00     0.037 C 
HETATM    3  N   UNL     1      40.535 -13.956   6.113  1.00  0.00    -0.192 N 
HETATM    4  C   UNL     1      41.216 -12.823   5.843  1.00  0.00     0.726 A 
HETATM    5  N   UNL     1      41.838 -12.699   4.635  1.00  0.00    -0.083 N 
HETATM    6  N   UNL     1      42.571 -11.571   4.563  1.00  0.00    -0.140 NA
HETATM    7  C   UNL     1      42.319 -11.037   5.768  1.00  0.00     0.166 A 
HETATM    8  N   UNL     1      41.479 -11.771   6.576  1.00  0.00    -0.046 NA
HETATM    9  C   UNL     1      41.788 -13.715   3.585  1.00  0.00     0.202 C 
HETATM   10  C   UNL     1      41.311 -15.057   4.140  1.00  0.00     0.062 C 
HETATM   11  H   UNL     1      40.208 -14.086   7.069  1.00  0.00     0.184 HD
ENDROOT
BRANCH  10  12
HETATM   12  C   UNL     1      41.759 -16.305   3.443  1.00  0.00     0.256 C 
HETATM   13  N   UNL     1      42.772 -16.992   4.077  1.00  0.00    -0.323 N 
HETATM   14  H   UNL     1      43.227 -16.561   4.870  1.00  0.00     0.169 HD
HETATM   15  O   UNL     1      41.174 -16.666   2.427  1.00  0.00    -0.267 OA
BRANCH  13  16
HETATM   16  C   UNL     1      43.263 -18.278   3.755  1.00  0.00     0.035 A 
HETATM   17  C   UNL     1      43.258 -18.823   2.470  1.00  0.00     0.029 A 
HETATM   18  C   UNL     1      43.738 -20.118   2.245  1.00  0.00     0.002 A 
HETATM   19  C   UNL     1      44.218 -20.882   3.306  1.00  0.00     0.000 A 
HETATM   20  C   UNL     1      44.229 -20.349   4.591  1.00  0.00     0.002 A 
HETATM   21  C   UNL     1      43.761 -19.051   4.813  1.00  0.00     0.029 A 
ENDBRANCH  13  16
ENDBRANCH  10  12
BRANCH   9  22
HETATM   22  C   UNL     1      40.925 -13.189   2.433  1.00  0.00    -0.028 A 
HETATM   23  C   UNL     1      41.418 -13.239   1.117  1.00  0.00     0.011 A 
HETATM   24  C   UNL     1      40.653 -12.763   0.050  1.00  0.00     0.019 A 
HETATM   25  C   UNL     1      39.389 -12.227   0.288  1.00  0.00     0.011 A 
HETATM   26 BR   UNL     1      38.354 -11.583  -1.156  1.00  0.00    -0.051 Br
HETATM   27  C   UNL     1      38.888 -12.154   1.584  1.00  0.00     0.019 A 
HETATM   28  C   UNL     1      39.654 -12.625   2.653  1.00  0.00     0.011 A 
ENDBRANCH   9  22
BRANCH   7  29
HETATM   29  C   UNL     1      42.949  -9.771   6.221  1.00  0.00     0.085 C 
BRANCH  29  30
HETATM   30  C   UNL     1      43.656  -9.901   7.569  1.00  0.00     0.034 C 
BRANCH  30  31
HETATM   31  C   UNL     1      44.891 -10.793   7.517  1.00  0.00     0.164 C 
BRANCH  31  32
HETATM   32  O   UNL     1      45.362 -11.037   8.840  1.00  0.00    -0.401 OA
HETATM   33  H   UNL     1      44.636 -11.448   9.338  1.00  0.00     0.209 HD
ENDBRANCH  31  32
ENDBRANCH  30  31
ENDBRANCH  29  30
ENDBRANCH   7  29
TORSDOF 7
ENDMDL
MODEL 10
REMARK VINA RESULT:      -7.9      5.241      8.666
REMARK  7 active torsions:
REMARK  status: ('A' for Active; 'I' for Inactive)
REMARK    1  A    between atoms: C_7  and  C_8 
REMARK    2  A    between atoms: C_8  and  C_9 
REMARK    3  A    between atoms: C_9  and  C_10 
REMARK    4  A    between atoms: C_10  and  O_11 
REMARK    5  A    between atoms: C_13  and  C_14 
REMARK    6  A    between atoms: C_21  and  C_22 
REMARK       I    between atoms: C_22  and  N_23 
REMARK    7  A    between atoms: N_23  and  C_24 
ROOT
HETATM    1  C   UNL     1      38.826 -14.722  -2.288  1.00  0.00     0.070 C 
HETATM    2  C   UNL     1      38.457 -13.261  -2.197  1.00  0.00     0.037 C 
HETATM    3  N   UNL     1      37.437 -12.847  -3.057  1.00  0.00    -0.192 N 
HETATM    4  C   UNL     1      36.793 -11.672  -2.893  1.00  0.00     0.726 A 
HETATM    5  N   UNL     1      37.336 -10.732  -2.065  1.00  0.00    -0.083 N 
HETATM    6  N   UNL     1      36.521  -9.670  -1.913  1.00  0.00    -0.140 NA
HETATM    7  C   UNL     1      35.504 -10.024  -2.713  1.00  0.00     0.166 A 
HETATM    8  N   UNL     1      35.642 -11.241  -3.342  1.00  0.00    -0.046 NA
HETATM    9  C   UNL     1      38.604 -10.905  -1.359  1.00  0.00     0.202 C 
HETATM   10  C   UNL     1      39.029 -12.372  -1.341  1.00  0.00     0.062 C 
HETATM   11  H   UNL     1      36.942 -13.582  -3.558  1.00  0.00     0.184 HD
ENDROOT
BRANCH  10  12
HETATM   12  C   UNL     1      39.896 -12.839  -0.211  1.00  0.00     0.256 C 
HETATM   13  N   UNL     1      39.216 -13.402   0.847  1.00  0.00    -0.323 N 
HETATM   14  H   UNL     1      38.207 -13.347   0.859  1.00  0.00     0.169 HD
HETATM   15  O   UNL     1      41.114 -12.760  -0.320  1.00  0.00    -0.267 OA
BRANCH  13  16
HETATM   16  C   UNL     1      39.772 -14.087   1.952  1.00  0.00     0.035 A 
HETATM   17  C   UNL     1      39.999 -15.463   1.992  1.00  0.00     0.029 A 
HETATM   18  C   UNL     1      40.527 -16.064   3.140  1.00  0.00     0.002 A 
HETATM   19  C   UNL     1      40.825 -15.293   4.261  1.00  0.00     0.000 A 
HETATM   20  C   UNL     1      40.604 -13.920   4.233  1.00  0.00     0.002 A 
HETATM   21  C   UNL     1      40.087 -13.318   3.082  1.00  0.00     0.029 A 
ENDBRANCH  13  16
ENDBRANCH  10  12
BRANCH   9  22
HETATM   22  C   UNL     1      39.646  -9.974  -1.986  1.00  0.00    -0.028 A 
HETATM   23  C   UNL     1      40.239  -8.966  -1.204  1.00  0.00     0.011 A 
HETATM   24  C   UNL     1      41.190  -8.103  -1.753  1.00  0.00     0.019 A 
HETATM   25  C   UNL     1      41.554  -8.233  -3.091  1.00  0.00     0.011 A 
HETATM   26 BR   UNL     1      42.840  -7.065  -3.834  1.00  0.00    -0.051 Br
HETATM   27  C   UNL     1      40.970  -9.214  -3.887  1.00  0.00     0.019 A 
HETATM   28  C   UNL     1      40.015 -10.075  -3.341  1.00  0.00     0.011 A 
ENDBRANCH   9  22
BRANCH   7  29
HETATM   29  C   UNL     1      34.286  -9.188  -2.861  1.00  0.00     0.085 C 
BRANCH  29  30
HETATM   30  C   UNL     1      33.045  -9.816  -2.226  1.00  0.00     0.034 C 
BRANCH  30  31
HETATM   31  C   UNL     1      32.125 -10.487  -3.240  1.00  0.00     0.164 C 
BRANCH  31  32
HETATM   32  O   UNL     1      32.711 -11.707  -3.685  1.00  0.00    -0.401 OA
HETATM   33  H   UNL     1      33.210 -11.514  -4.496  1.00  0.00     0.209 HD
ENDBRANCH  31  32
ENDBRANCH  30  31
ENDBRANCH  29  30
ENDBRANCH   7  29
TORSDOF 7
ENDMDL
