MODEL 1
REMARK VINA RESULT:      -9.3      0.000      0.000
REMARK  8 active torsions:
REMARK  status: ('A' for Active; 'I' for Inactive)
REMARK    1  A    between atoms: C_3  and  C_4 
REMARK    2  A    between atoms: N_5  and  N_6 
REMARK    3  A    between atoms: C_17  and  C_18 
REMARK       I    between atoms: C_18  and  N_19 
REMARK    4  A    between atoms: N_19  and  C_20 
REMARK    5  A    between atoms: C_20  and  C_21 
REMARK    6  A    between atoms: C_21  and  C_22 
REMARK    7  A    between atoms: C_29  and  N_30 
REMARK    8  A    between atoms: C_31  and  O_32 
ROOT
HETATM    1  N   UNL     1      43.036 -12.224   4.790  1.00  0.00    -0.202 N 
HETATM    2  C   UNL     1      42.361 -13.002   3.872  1.00  0.00     0.183 A 
HETATM    3  C   UNL     1      42.099 -14.234   4.466  1.00  0.00     0.124 A 
HETATM    4  N   UNL     1      41.446 -15.212   3.786  1.00  0.00    -0.242 NA
HETATM    5  C   UNL     1      41.058 -14.871   2.541  1.00  0.00     0.086 A 
HETATM    6  C   UNL     1      41.330 -13.601   1.968  1.00  0.00     0.088 A 
HETATM    7  N   UNL     1      41.999 -12.637   2.620  1.00  0.00    -0.225 NA
HETATM    8  C   UNL     1      40.360 -15.801   1.780  1.00  0.00     0.034 A 
HETATM    9  C   UNL     1      39.924 -15.513   0.484  1.00  0.00     0.002 A 
HETATM   10  C   UNL     1      40.193 -14.270  -0.069  1.00  0.00     0.002 A 
HETATM   11  C   UNL     1      40.894 -13.326   0.680  1.00  0.00     0.034 A 
HETATM   12  C   UNL     1      42.618 -14.201   5.785  1.00  0.00     0.104 A 
HETATM   13  C   UNL     1      43.161 -12.935   5.972  1.00  0.00     0.123 A 
ENDROOT
BRANCH  12  14
HETATM   14  C   UNL     1      42.570 -15.207   6.824  1.00  0.00     0.257 C 
HETATM   15  N   UNL     1      42.144 -16.436   6.344  1.00  0.00    -0.356 N 
HETATM   16  H   UNL     1      41.746 -16.408   5.414  1.00  0.00     0.162 HD
HETATM   17  O   UNL     1      43.022 -15.027   7.947  1.00  0.00    -0.267 OA
BRANCH  15  18
HETATM   18  C   UNL     1      42.964 -17.603   6.603  1.00  0.00     0.127 C 
BRANCH  18  19
HETATM   19  C   UNL     1      44.206 -17.724   5.719  1.00  0.00     0.053 C 
BRANCH  19  20
HETATM   20  C   UNL     1      43.970 -18.637   4.540  1.00  0.00    -0.082 C 
HETATM   21  C   UNL     1      43.565 -17.977   3.246  1.00  0.00     0.034 C 
HETATM   22  C   UNL     1      42.981 -18.954   2.222  1.00  0.00     0.005 C 
HETATM   23  C   UNL     1      43.792 -20.244   2.156  1.00  0.00     0.004 C 
HETATM   24  C   UNL     1      43.854 -20.930   3.519  1.00  0.00     0.027 C 
HETATM   25  C   UNL     1      44.096 -19.973   4.650  1.00  0.00    -0.024 C 
ENDBRANCH  19  20
ENDBRANCH  18  19
ENDBRANCH  15  18
ENDBRANCH  12  14
BRANCH  13  26
HETATM   26  N   UNL     1      43.724 -12.346   7.070  1.00  0.00    -0.286 NA
HETATM   27  H   UNL     1      44.500 -11.702   6.902  1.00  0.00     0.125 HD
HETATM   28  H   UNL     1      43.967 -12.988   7.830  1.00  0.00     0.125 HD
ENDBRANCH  13  26
BRANCH   1  29
HETATM   29  N   UNL     1      43.384 -10.905   4.675  1.00  0.00    -0.176 NA
HETATM   30  C   UNL     1      42.467 -10.042   4.992  1.00  0.00     0.153 C 
BRANCH  30  31
HETATM   31  C   UNL     1      41.045 -10.281   5.275  1.00  0.00     0.016 A 
HETATM   32  C   UNL     1      40.645 -10.439   6.602  1.00  0.00     0.016 A 
HETATM   33  C   UNL     1      39.285 -10.536   6.902  1.00  0.00     0.001 A 
HETATM   34  C   UNL     1      38.336 -10.436   5.883  1.00  0.00     0.003 A 
HETATM   35  C   UNL     1      38.743 -10.267   4.558  1.00  0.00     0.037 A 
HETATM   36  C   UNL     1      40.099 -10.208   4.250  1.00  0.00     0.077 A 
BRANCH  36  37
HETATM   37  O   UNL     1      40.430 -10.070   2.932  1.00  0.00    -0.360 OA
HETATM   38  H   UNL     1      39.645  -9.770   2.435  1.00  0.00     0.217 HD
ENDBRANCH  36  37
ENDBRANCH  30  31
ENDBRANCH   1  29
TORSDOF 8
ENDMDL
MODEL 2
REMARK VINA RESULT:      -9.0      1.879      2.642
REMARK  8 active torsions:
REMARK  status: ('A' for Active; 'I' for Inactive)
REMARK    1  A    between atoms: C_3  and  C_4 
REMARK    2  A    between atoms: N_5  and  N_6 
REMARK    3  A    between atoms: C_17  and  C_18 
REMARK       I    between atoms: C_18  and  N_19 
REMARK    4  A    between atoms: N_19  and  C_20 
REMARK    5  A    between atoms: C_20  and  C_21 
REMARK    6  A    between atoms: C_21  and  C_22 
REMARK    7  A    between atoms: C_29  and  N_30 
REMARK    8  A    between atoms: C_31  and  O_32 
ROOT
HETATM    1  N   UNL     1      39.974 -12.249   4.557  1.00  0.00    -0.202 N 
HETATM    2  C   UNL     1      39.944 -12.778   3.283  1.00  0.00     0.183 A 
HETATM    3  C   UNL     1      40.176 -14.148   3.383  1.00  0.00     0.124 A 
HETATM    4  N   UNL     1      40.211 -14.932   2.274  1.00  0.00    -0.242 NA
HETATM    5  C   UNL     1      39.971 -14.285   1.117  1.00  0.00     0.086 A 
HETATM    6  C   UNL     1      39.724 -12.888   1.050  1.00  0.00     0.088 A 
HETATM    7  N   UNL     1      39.716 -12.098   2.135  1.00  0.00    -0.225 NA
HETATM    8  C   UNL     1      39.960 -15.013  -0.067  1.00  0.00     0.034 A 
HETATM    9  C   UNL     1      39.713 -14.406  -1.302  1.00  0.00     0.002 A 
HETATM   10  C   UNL     1      39.473 -13.041  -1.359  1.00  0.00     0.002 A 
HETATM   11  C   UNL     1      39.482 -12.296  -0.180  1.00  0.00     0.034 A 
HETATM   12  C   UNL     1      40.340 -14.463   4.756  1.00  0.00     0.104 A 
HETATM   13  C   UNL     1      40.175 -13.278   5.463  1.00  0.00     0.123 A 
ENDROOT
BRANCH  12  14
HETATM   14  C   UNL     1      40.560 -15.744   5.391  1.00  0.00     0.257 C 
HETATM   15  N   UNL     1      41.648 -16.416   4.853  1.00  0.00    -0.356 N 
HETATM   16  H   UNL     1      41.998 -16.022   3.988  1.00  0.00     0.162 HD
HETATM   17  O   UNL     1      39.961 -16.101   6.397  1.00  0.00    -0.267 OA
BRANCH  15  18
HETATM   18  C   UNL     1      42.684 -16.888   5.751  1.00  0.00     0.127 C 
BRANCH  18  19
HETATM   19  C   UNL     1      44.009 -17.237   5.074  1.00  0.00     0.053 C 
BRANCH  19  20
HETATM   20  C   UNL     1      43.891 -18.471   4.210  1.00  0.00    -0.082 C 
HETATM   21  C   UNL     1      43.578 -18.246   2.752  1.00  0.00     0.034 C 
HETATM   22  C   UNL     1      43.101 -19.509   2.031  1.00  0.00     0.005 C 
HETATM   23  C   UNL     1      43.944 -20.721   2.413  1.00  0.00     0.004 C 
HETATM   24  C   UNL     1      43.911 -20.966   3.921  1.00  0.00     0.027 C 
HETATM   25  C   UNL     1      44.037 -19.706   4.726  1.00  0.00    -0.024 C 
ENDBRANCH  19  20
ENDBRANCH  18  19
ENDBRANCH  15  18
ENDBRANCH  12  14
BRANCH  13  26
HETATM   26  N   UNL     1      40.160 -13.021   6.806  1.00  0.00    -0.286 NA
HETATM   27  H   UNL     1      40.111 -13.828   7.430  1.00  0.00     0.125 HD
HETATM   28  H   UNL     1      39.484 -12.312   7.104  1.00  0.00     0.125 HD
ENDBRANCH  13  26
BRANCH   1  29
HETATM   29  N   UNL     1      39.677 -10.968   4.940  1.00  0.00    -0.176 NA
HETATM   30  C   UNL     1      40.692 -10.191   5.171  1.00  0.00     0.153 C 
BRANCH  30  31
HETATM   31  C   UNL     1      42.114 -10.548   5.265  1.00  0.00     0.016 A 
HETATM   32  C   UNL     1      42.671 -10.750   6.529  1.00  0.00     0.016 A 
HETATM   33  C   UNL     1      43.982 -11.216   6.634  1.00  0.00     0.001 A 
HETATM   34  C   UNL     1      44.712 -11.515   5.482  1.00  0.00     0.003 A 
HETATM   35  C   UNL     1      44.145 -11.321   4.220  1.00  0.00     0.037 A 
HETATM   36  C   UNL     1      42.852 -10.820   4.111  1.00  0.00     0.077 A 
BRANCH  36  37
HETATM   37  O   UNL     1      42.367 -10.628   2.848  1.00  0.00    -0.360 OA
HETATM   38  H   UNL     1      41.766  -9.858   2.851  1.00  0.00     0.217 HD
ENDBRANCH  36  37
ENDBRANCH  30  31
ENDBRANCH   1  29
TORSDOF 8
ENDMDL
MODEL 3
REMARK VINA RESULT:      -8.7      2.437      4.465
REMARK  8 active torsions:
REMARK  status: ('A' for Active; 'I' for Inactive)
REMARK    1  A    between atoms: C_3  and  C_4 
REMARK    2  A    between atoms: N_5  and  N_6 
REMARK    3  A    between atoms: C_17  and  C_18 
REMARK       I    between atoms: C_18  and  N_19 
REMARK    4  A    between atoms: N_19  and  C_20 
REMARK    5  A    between atoms: C_20  and  C_21 
REMARK    6  A    between atoms: C_21  and  C_22 
REMARK    7  A    between atoms: C_29  and  N_30 
REMARK    8  A    between atoms: C_31  and  O_32 
ROOT
HETATM    1  N   UNL     1      40.159 -12.569   3.852  1.00  0.00    -0.202 N 
HETATM    2  C   UNL     1      40.453 -11.763   2.772  1.00  0.00     0.183 A 
HETATM    3  C   UNL     1      40.873 -12.582   1.728  1.00  0.00     0.124 A 
HETATM    4  N   UNL     1      41.239 -12.054   0.531  1.00  0.00    -0.242 NA
HETATM    5  C   UNL     1      41.122 -10.715   0.445  1.00  0.00     0.086 A 
HETATM    6  C   UNL     1      40.677  -9.908   1.525  1.00  0.00     0.088 A 
HETATM    7  N   UNL     1      40.341 -10.415   2.721  1.00  0.00    -0.225 NA
HETATM    8  C   UNL     1      41.449 -10.091  -0.753  1.00  0.00     0.034 A 
HETATM    9  C   UNL     1      41.347  -8.706  -0.913  1.00  0.00     0.002 A 
HETATM   10  C   UNL     1      40.912  -7.924   0.147  1.00  0.00     0.002 A 
HETATM   11  C   UNL     1      40.581  -8.534   1.356  1.00  0.00     0.034 A 
HETATM   12  C   UNL     1      40.823 -13.925   2.181  1.00  0.00     0.104 A 
HETATM   13  C   UNL     1      40.344 -13.892   3.485  1.00  0.00     0.123 A 
ENDROOT
BRANCH  12  14
HETATM   14  C   UNL     1      41.117 -15.152   1.472  1.00  0.00     0.257 C 
HETATM   15  N   UNL     1      42.451 -15.238   1.105  1.00  0.00    -0.356 N 
HETATM   16  H   UNL     1      42.969 -14.373   1.201  1.00  0.00     0.162 HD
HETATM   17  O   UNL     1      40.316 -16.072   1.372  1.00  0.00    -0.267 OA
BRANCH  15  18
HETATM   18  C   UNL     1      43.200 -16.421   1.484  1.00  0.00     0.127 C 
BRANCH  18  19
HETATM   19  C   UNL     1      43.215 -16.719   2.983  1.00  0.00     0.053 C 
BRANCH  19  20
HETATM   20  C   UNL     1      43.476 -18.180   3.263  1.00  0.00    -0.082 C 
HETATM   21  C   UNL     1      43.949 -18.526   4.652  1.00  0.00     0.034 C 
HETATM   22  C   UNL     1      44.550 -19.930   4.757  1.00  0.00     0.005 C 
HETATM   23  C   UNL     1      43.709 -20.954   4.001  1.00  0.00     0.004 C 
HETATM   24  C   UNL     1      43.574 -20.580   2.525  1.00  0.00     0.027 C 
HETATM   25  C   UNL     1      43.311 -19.118   2.311  1.00  0.00    -0.024 C 
ENDBRANCH  19  20
ENDBRANCH  18  19
ENDBRANCH  15  18
ENDBRANCH  12  14
BRANCH  13  26
HETATM   26  N   UNL     1      40.037 -14.896   4.361  1.00  0.00    -0.286 NA
HETATM   27  H   UNL     1      40.791 -15.231   4.962  1.00  0.00     0.125 HD
HETATM   28  H   UNL     1      39.543 -15.694   3.950  1.00  0.00     0.125 HD
ENDBRANCH  13  26
BRANCH   1  29
HETATM   29  N   UNL     1      39.599 -12.200   5.046  1.00  0.00    -0.176 NA
HETATM   30  C   UNL     1      40.429 -11.905   6.000  1.00  0.00     0.153 C 
BRANCH  30  31
HETATM   31  C   UNL     1      41.885 -12.095   6.036  1.00  0.00     0.016 A 
HETATM   32  C   UNL     1      42.710 -11.007   5.749  1.00  0.00     0.016 A 
HETATM   33  C   UNL     1      44.091 -11.131   5.905  1.00  0.00     0.001 A 
HETATM   34  C   UNL     1      44.635 -12.325   6.383  1.00  0.00     0.003 A 
HETATM   35  C   UNL     1      43.804 -13.408   6.679  1.00  0.00     0.037 A 
HETATM   36  C   UNL     1      42.429 -13.299   6.488  1.00  0.00     0.077 A 
BRANCH  36  37
HETATM   37  O   UNL     1      41.676 -14.404   6.770  1.00  0.00    -0.360 OA
HETATM   38  H   UNL     1      41.303 -14.315   7.669  1.00  0.00     0.217 HD
ENDBRANCH  36  37
ENDBRANCH  30  31
ENDBRANCH   1  29
TORSDOF 8
ENDMDL
MODEL 4
REMARK VINA RESULT:      -8.7      3.333      7.165
REMARK  8 active torsions:
REMARK  status: ('A' for Active; 'I' for Inactive)
REMARK    1  A    between atoms: C_3  and  C_4 
REMARK    2  A    between atoms: N_5  and  N_6 
REMARK    3  A    between atoms: C_17  and  C_18 
REMARK       I    between atoms: C_18  and  N_19 
REMARK    4  A    between atoms: N_19  and  C_20 
REMARK    5  A    between atoms: C_20  and  C_21 
REMARK    6  A    between atoms: C_21  and  C_22 
REMARK    7  A    between atoms: C_29  and  N_30 
REMARK    8  A    between atoms: C_31  and  O_32 
ROOT
HETATM    1  N   UNL     1      40.971 -13.371   5.671  1.00  0.00    -0.202 N 
HETATM    2  C   UNL     1      40.601 -12.649   4.554  1.00  0.00     0.183 A 
HETATM    3  C   UNL     1      41.626 -11.751   4.267  1.00  0.00     0.124 A 
HETATM    4  N   UNL     1      41.530 -10.897   3.214  1.00  0.00    -0.242 NA
HETATM    5  C   UNL     1      40.407 -11.027   2.482  1.00  0.00     0.086 A 
HETATM    6  C   UNL     1      39.386 -11.963   2.794  1.00  0.00     0.088 A 
HETATM    7  N   UNL     1      39.455 -12.792   3.847  1.00  0.00    -0.225 NA
HETATM    8  C   UNL     1      40.236 -10.212   1.369  1.00  0.00     0.034 A 
HETATM    9  C   UNL     1      39.098 -10.298   0.563  1.00  0.00     0.002 A 
HETATM   10  C   UNL     1      38.105 -11.215   0.873  1.00  0.00     0.002 A 
HETATM   11  C   UNL     1      38.260 -12.038   1.987  1.00  0.00     0.034 A 
HETATM   12  C   UNL     1      42.652 -11.939   5.228  1.00  0.00     0.104 A 
HETATM   13  C   UNL     1      42.237 -12.970   6.062  1.00  0.00     0.123 A 
ENDROOT
BRANCH  12  14
HETATM   14  C   UNL     1      43.939 -11.287   5.347  1.00  0.00     0.257 C 
HETATM   15  N   UNL     1      44.120 -10.710   6.594  1.00  0.00    -0.356 N 
HETATM   16  H   UNL     1      43.280 -10.651   7.155  1.00  0.00     0.162 HD
HETATM   17  O   UNL     1      44.819 -11.393   4.503  1.00  0.00    -0.267 OA
BRANCH  15  18
HETATM   18  C   UNL     1      45.312 -11.048   7.347  1.00  0.00     0.127 C 
BRANCH  18  19
HETATM   19  C   UNL     1      45.931  -9.886   8.125  1.00  0.00     0.053 C 
BRANCH  19  20
HETATM   20  C   UNL     1      45.011  -9.387   9.214  1.00  0.00    -0.082 C 
HETATM   21  C   UNL     1      44.930 -10.226  10.465  1.00  0.00     0.034 C 
HETATM   22  C   UNL     1      43.726  -9.886  11.346  1.00  0.00     0.005 C 
HETATM   23  C   UNL     1      43.533  -8.379  11.471  1.00  0.00     0.004 C 
HETATM   24  C   UNL     1      43.345  -7.729  10.101  1.00  0.00     0.027 C 
HETATM   25  C   UNL     1      44.289  -8.261   9.062  1.00  0.00    -0.024 C 
ENDBRANCH  19  20
ENDBRANCH  18  19
ENDBRANCH  15  18
ENDBRANCH  12  14
BRANCH  13  26
HETATM   26  N   UNL     1      42.864 -13.599   7.102  1.00  0.00    -0.286 NA
HETATM   27  H   UNL     1      42.345 -13.672   7.978  1.00  0.00     0.125 HD
HETATM   28  H   UNL     1      43.818 -13.277   7.292  1.00  0.00     0.125 HD
ENDBRANCH  13  26
BRANCH   1  29
HETATM   29  N   UNL     1      40.323 -14.440   6.229  1.00  0.00    -0.176 NA
HETATM   30  C   UNL     1      40.612 -15.606   5.736  1.00  0.00     0.153 C 
BRANCH  30  31
HETATM   31  C   UNL     1      41.395 -15.921   4.534  1.00  0.00     0.016 A 
HETATM   32  C   UNL     1      42.732 -16.292   4.684  1.00  0.00     0.016 A 
HETATM   33  C   UNL     1      43.455 -16.721   3.571  1.00  0.00     0.001 A 
HETATM   34  C   UNL     1      42.830 -16.815   2.326  1.00  0.00     0.003 A 
HETATM   35  C   UNL     1      41.488 -16.452   2.183  1.00  0.00     0.037 A 
HETATM   36  C   UNL     1      40.775 -15.987   3.284  1.00  0.00     0.077 A 
BRANCH  36  37
HETATM   37  O   UNL     1      39.475 -15.623   3.072  1.00  0.00    -0.360 OA
HETATM   38  H   UNL     1      39.352 -14.697   3.355  1.00  0.00     0.217 HD
ENDBRANCH  36  37
ENDBRANCH  30  31
ENDBRANCH   1  29
TORSDOF 8
ENDMDL
MODEL 5
REMARK VINA RESULT:      -8.7      3.694      6.097
REMARK  8 active torsions:
REMARK  status: ('A' for Active; 'I' for Inactive)
REMARK    1  A    between atoms: C_3  and  C_4 
REMARK    2  A    between atoms: N_5  and  N_6 
REMARK    3  A    between atoms: C_17  and  C_18 
REMARK       I    between atoms: C_18  and  N_19 
REMARK    4  A    between atoms: N_19  and  C_20 
REMARK    5  A    between atoms: C_20  and  C_21 
REMARK    6  A    between atoms: C_21  and  C_22 
REMARK    7  A    between atoms: C_29  and  N_30 
REMARK    8  A    between atoms: C_31  and  O_32 
ROOT
HETATM    1  N   UNL     1      40.665  -8.868   7.553  1.00  0.00    -0.202 N 
HETATM    2  C   UNL     1      41.967  -9.324   7.523  1.00  0.00     0.183 A 
HETATM    3  C   UNL     1      41.970 -10.569   6.900  1.00  0.00     0.124 A 
HETATM    4  N   UNL     1      43.125 -11.265   6.736  1.00  0.00    -0.242 NA
HETATM    5  C   UNL     1      44.230 -10.638   7.184  1.00  0.00     0.086 A 
HETATM    6  C   UNL     1      44.195  -9.360   7.804  1.00  0.00     0.088 A 
HETATM    7  N   UNL     1      43.057  -8.676   7.997  1.00  0.00    -0.225 NA
HETATM    8  C   UNL     1      45.462 -11.264   7.035  1.00  0.00     0.034 A 
HETATM    9  C   UNL     1      46.648 -10.668   7.473  1.00  0.00     0.002 A 
HETATM   10  C   UNL     1      46.606  -9.420   8.077  1.00  0.00     0.002 A 
HETATM   11  C   UNL     1      45.378  -8.779   8.236  1.00  0.00     0.034 A 
HETATM   12  C   UNL     1      40.635 -10.874   6.531  1.00  0.00     0.104 A 
HETATM   13  C   UNL     1      39.853  -9.791   6.914  1.00  0.00     0.123 A 
ENDROOT
BRANCH  12  14
HETATM   14  C   UNL     1      40.110 -12.024   5.825  1.00  0.00     0.257 C 
HETATM   15  N   UNL     1      41.050 -12.595   4.981  1.00  0.00    -0.356 N 
HETATM   16  H   UNL     1      41.876 -12.029   4.830  1.00  0.00     0.162 HD
HETATM   17  O   UNL     1      39.023 -12.525   6.082  1.00  0.00    -0.267 OA
BRANCH  15  18
HETATM   18  C   UNL     1      41.319 -14.014   5.103  1.00  0.00     0.127 C 
BRANCH  18  19
HETATM   19  C   UNL     1      42.795 -14.399   5.004  1.00  0.00     0.053 C 
BRANCH  19  20
HETATM   20  C   UNL     1      43.009 -15.567   4.071  1.00  0.00    -0.082 C 
HETATM   21  C   UNL     1      43.270 -16.906   4.715  1.00  0.00     0.034 C 
HETATM   22  C   UNL     1      43.846 -17.943   3.749  1.00  0.00     0.005 C 
HETATM   23  C   UNL     1      43.126 -17.914   2.404  1.00  0.00     0.004 C 
HETATM   24  C   UNL     1      43.213 -16.531   1.760  1.00  0.00     0.027 C 
HETATM   25  C   UNL     1      42.988 -15.412   2.734  1.00  0.00    -0.024 C 
ENDBRANCH  19  20
ENDBRANCH  18  19
ENDBRANCH  15  18
ENDBRANCH  12  14
BRANCH  13  26
HETATM   26  N   UNL     1      38.523  -9.528   6.738  1.00  0.00    -0.286 NA
HETATM   27  H   UNL     1      38.006 -10.157   6.121  1.00  0.00     0.125 HD
HETATM   28  H   UNL     1      38.300  -8.556   6.506  1.00  0.00     0.125 HD
ENDBRANCH  13  26
BRANCH   1  29
HETATM   29  N   UNL     1      40.216  -7.641   7.963  1.00  0.00    -0.176 NA
HETATM   30  C   UNL     1      40.201  -7.437   9.246  1.00  0.00     0.153 C 
BRANCH  30  31
HETATM   31  C   UNL     1      40.417  -8.406  10.328  1.00  0.00     0.016 A 
HETATM   32  C   UNL     1      41.569  -8.292  11.108  1.00  0.00     0.016 A 
HETATM   33  C   UNL     1      41.730  -9.118  12.221  1.00  0.00     0.001 A 
HETATM   34  C   UNL     1      40.725 -10.023  12.570  1.00  0.00     0.003 A 
HETATM   35  C   UNL     1      39.569 -10.125  11.792  1.00  0.00     0.037 A 
HETATM   36  C   UNL     1      39.423  -9.329  10.659  1.00  0.00     0.077 A 
BRANCH  36  37
HETATM   37  O   UNL     1      38.283  -9.498   9.926  1.00  0.00    -0.360 OA
HETATM   38  H   UNL     1      37.510  -9.277  10.481  1.00  0.00     0.217 HD
ENDBRANCH  36  37
ENDBRANCH  30  31
ENDBRANCH   1  29
TORSDOF 8
ENDMDL
MODEL 6
REMARK VINA RESULT:      -8.5      2.234      4.884
REMARK  8 active torsions:
REMARK  status: ('A' for Active; 'I' for Inactive)
REMARK    1  A    between atoms: C_3  and  C_4 
REMARK    2  A    between atoms: N_5  and  N_6 
REMARK    3  A    between atoms: C_17  and  C_18 
REMARK       I    between atoms: C_18  and  N_19 
REMARK    4  A    between atoms: N_19  and  C_20 
REMARK    5  A    between atoms: C_20  and  C_21 
REMARK    6  A    between atoms: C_21  and  C_22 
REMARK    7  A    between atoms: C_29  and  N_30 
REMARK    8  A    between atoms: C_31  and  O_32 
ROOT
HETATM    1  N   UNL     1      40.562 -12.645   5.452  1.00  0.00    -0.202 N 
HETATM    2  C   UNL     1      41.838 -12.258   5.809  1.00  0.00     0.183 A 
HETATM    3  C   UNL     1      42.677 -12.495   4.723  1.00  0.00     0.124 A 
HETATM    4  N   UNL     1      44.004 -12.214   4.792  1.00  0.00    -0.242 NA
HETATM    5  C   UNL     1      44.405 -11.669   5.957  1.00  0.00     0.086 A 
HETATM    6  C   UNL     1      43.522 -11.428   7.042  1.00  0.00     0.088 A 
HETATM    7  N   UNL     1      42.215 -11.728   6.996  1.00  0.00    -0.225 NA
HETATM    8  C   UNL     1      45.744 -11.324   6.108  1.00  0.00     0.034 A 
HETATM    9  C   UNL     1      46.227 -10.751   7.288  1.00  0.00     0.002 A 
HETATM   10  C   UNL     1      45.358 -10.519   8.343  1.00  0.00     0.002 A 
HETATM   11  C   UNL     1      44.013 -10.861   8.209  1.00  0.00     0.034 A 
HETATM   12  C   UNL     1      41.888 -13.029   3.672  1.00  0.00     0.104 A 
HETATM   13  C   UNL     1      40.579 -13.078   4.136  1.00  0.00     0.123 A 
ENDROOT
BRANCH  12  14
HETATM   14  C   UNL     1      42.270 -13.403   2.327  1.00  0.00     0.257 C 
HETATM   15  N   UNL     1      43.351 -14.271   2.312  1.00  0.00    -0.356 N 
HETATM   16  H   UNL     1      43.832 -14.358   3.198  1.00  0.00     0.162 HD
HETATM   17  O   UNL     1      41.601 -13.121   1.342  1.00  0.00    -0.267 OA
BRANCH  15  18
HETATM   18  C   UNL     1      43.229 -15.517   1.580  1.00  0.00     0.127 C 
BRANCH  18  19
HETATM   19  C   UNL     1      42.236 -16.516   2.175  1.00  0.00     0.053 C 
BRANCH  19  20
HETATM   20  C   UNL     1      42.936 -17.715   2.772  1.00  0.00    -0.082 C 
HETATM   21  C   UNL     1      43.577 -17.518   4.123  1.00  0.00     0.034 C 
HETATM   22  C   UNL     1      44.572 -18.622   4.489  1.00  0.00     0.005 C 
HETATM   23  C   UNL     1      44.028 -20.003   4.139  1.00  0.00     0.004 C 
HETATM   24  C   UNL     1      43.696 -20.106   2.651  1.00  0.00     0.027 C 
HETATM   25  C   UNL     1      42.998 -18.890   2.117  1.00  0.00    -0.024 C 
ENDBRANCH  19  20
ENDBRANCH  18  19
ENDBRANCH  15  18
ENDBRANCH  12  14
BRANCH  13  26
HETATM   26  N   UNL     1      39.414 -13.438   3.518  1.00  0.00    -0.286 NA
HETATM   27  H   UNL     1      39.469 -14.193   2.833  1.00  0.00     0.125 HD
HETATM   28  H   UNL     1      38.870 -12.660   3.133  1.00  0.00     0.125 HD
ENDBRANCH  13  26
BRANCH   1  29
HETATM   29  N   UNL     1      39.406 -12.479   6.166  1.00  0.00    -0.176 NA
HETATM   30  C   UNL     1      38.796 -11.342   6.010  1.00  0.00     0.153 C 
BRANCH  30  31
HETATM   31  C   UNL     1      39.273 -10.135   5.322  1.00  0.00     0.016 A 
HETATM   32  C   UNL     1      38.840  -9.894   4.018  1.00  0.00     0.016 A 
HETATM   33  C   UNL     1      39.175  -8.691   3.394  1.00  0.00     0.001 A 
HETATM   34  C   UNL     1      39.904  -7.724   4.089  1.00  0.00     0.003 A 
HETATM   35  C   UNL     1      40.326  -7.967   5.399  1.00  0.00     0.037 A 
HETATM   36  C   UNL     1      40.026  -9.181   6.009  1.00  0.00     0.077 A 
BRANCH  36  37
HETATM   37  O   UNL     1      40.492  -9.367   7.281  1.00  0.00    -0.360 OA
HETATM   38  H   UNL     1      40.646 -10.320   7.428  1.00  0.00     0.217 HD
ENDBRANCH  36  37
ENDBRANCH  30  31
ENDBRANCH   1  29
TORSDOF 8
ENDMDL
MODEL 7
REMARK VINA RESULT:      -8.5      3.812      5.673
REMARK  8 active torsions:
REMARK  status: ('A' for Active; 'I' for Inactive)
REMARK    1  A    between atoms: C_3  and  C_4 
REMARK    2  A    between atoms: N_5  and  N_6 
REMARK    3  A    between atoms: C_17  and  C_18 
REMARK       I    between atoms: C_18  and  N_19 
REMARK    4  A    between atoms: N_19  and  C_20 
REMARK    5  A    between atoms: C_20  and  C_21 
REMARK    6  A    between atoms: C_21  and  C_22 
REMARK    7  A    between atoms: C_29  and  N_30 
REMARK    8  A    between atoms: C_31  and  O_32 
ROOT
HETATM    1  N   UNL     1      39.811  -9.728   0.648  1.00  0.00    -0.202 N 
HETATM    2  C   UNL     1      39.632 -10.907  -0.047  1.00  0.00     0.183 A 
HETATM    3  C   UNL     1      40.513 -11.850   0.476  1.00  0.00     0.124 A 
HETATM    4  N   UNL     1      40.563 -13.111  -0.025  1.00  0.00    -0.242 NA
HETATM    5  C   UNL     1      39.683 -13.361  -1.014  1.00  0.00     0.086 A 
HETATM    6  C   UNL     1      38.788 -12.381  -1.516  1.00  0.00     0.088 A 
HETATM    7  N   UNL     1      38.749 -11.123  -1.050  1.00  0.00    -0.225 NA
HETATM    8  C   UNL     1      39.645 -14.635  -1.569  1.00  0.00     0.034 A 
HETATM    9  C   UNL     1      38.754 -14.964  -2.595  1.00  0.00     0.002 A 
HETATM   10  C   UNL     1      37.882 -14.001  -3.080  1.00  0.00     0.002 A 
HETATM   11  C   UNL     1      37.909 -12.718  -2.536  1.00  0.00     0.034 A 
HETATM   12  C   UNL     1      41.240 -11.231   1.525  1.00  0.00     0.104 A 
HETATM   13  C   UNL     1      40.762  -9.931   1.634  1.00  0.00     0.123 A 
ENDROOT
BRANCH  12  14
HETATM   14  C   UNL     1      42.242 -11.787   2.410  1.00  0.00     0.257 C 
HETATM   15  N   UNL     1      42.053 -13.143   2.628  1.00  0.00    -0.356 N 
HETATM   16  H   UNL     1      41.159 -13.499   2.314  1.00  0.00     0.162 HD
HETATM   17  O   UNL     1      43.231 -11.164   2.772  1.00  0.00    -0.267 OA
BRANCH  15  18
HETATM   18  C   UNL     1      43.164 -14.044   2.391  1.00  0.00     0.127 C 
BRANCH  18  19
HETATM   19  C   UNL     1      42.771 -15.418   1.847  1.00  0.00     0.053 C 
BRANCH  19  20
HETATM   20  C   UNL     1      43.238 -16.535   2.752  1.00  0.00    -0.082 C 
HETATM   21  C   UNL     1      43.507 -17.866   2.096  1.00  0.00     0.034 C 
HETATM   22  C   UNL     1      43.600 -19.025   3.091  1.00  0.00     0.005 C 
HETATM   23  C   UNL     1      44.421 -18.642   4.319  1.00  0.00     0.004 C 
HETATM   24  C   UNL     1      43.825 -17.426   5.026  1.00  0.00     0.027 C 
HETATM   25  C   UNL     1      43.384 -16.350   4.077  1.00  0.00    -0.024 C 
ENDBRANCH  19  20
ENDBRANCH  18  19
ENDBRANCH  15  18
ENDBRANCH  12  14
BRANCH  13  26
HETATM   26  N   UNL     1      41.058  -8.930   2.517  1.00  0.00    -0.286 NA
HETATM   27  H   UNL     1      40.935  -9.138   3.510  1.00  0.00     0.125 HD
HETATM   28  H   UNL     1      40.637  -8.022   2.300  1.00  0.00     0.125 HD
ENDBRANCH  13  26
BRANCH   1  29
HETATM   29  N   UNL     1      39.075  -8.578   0.550  1.00  0.00    -0.176 NA
HETATM   30  C   UNL     1      39.420  -7.758  -0.397  1.00  0.00     0.153 C 
BRANCH  30  31
HETATM   31  C   UNL     1      40.610  -7.802  -1.257  1.00  0.00     0.016 A 
HETATM   32  C   UNL     1      40.463  -8.215  -2.582  1.00  0.00     0.016 A 
HETATM   33  C   UNL     1      41.553  -8.140  -3.450  1.00  0.00     0.001 A 
HETATM   34  C   UNL     1      42.768  -7.618  -3.001  1.00  0.00     0.003 A 
HETATM   35  C   UNL     1      42.906  -7.196  -1.676  1.00  0.00     0.037 A 
HETATM   36  C   UNL     1      41.832  -7.306  -0.798  1.00  0.00     0.077 A 
BRANCH  36  37
HETATM   37  O   UNL     1      42.041  -6.902   0.490  1.00  0.00    -0.360 OA
HETATM   38  H   UNL     1      42.149  -5.931   0.507  1.00  0.00     0.217 HD
ENDBRANCH  36  37
ENDBRANCH  30  31
ENDBRANCH   1  29
TORSDOF 8
ENDMDL
MODEL 8
REMARK VINA RESULT:      -8.3      2.435      4.119
REMARK  8 active torsions:
REMARK  status: ('A' for Active; 'I' for Inactive)
REMARK    1  A    between atoms: C_3  and  C_4 
REMARK    2  A    between atoms: N_5  and  N_6 
REMARK    3  A    between atoms: C_17  and  C_18 
REMARK       I    between atoms: C_18  and  N_19 
REMARK    4  A    between atoms: N_19  and  C_20 
REMARK    5  A    between atoms: C_20  and  C_21 
REMARK    6  A    between atoms: C_21  and  C_22 
REMARK    7  A    between atoms: C_29  and  N_30 
REMARK    8  A    between atoms: C_31  and  O_32 
ROOT
HETATM    1  N   UNL     1      39.801 -12.354   3.230  1.00  0.00    -0.202 N 
HETATM    2  C   UNL     1      39.891 -12.548   1.867  1.00  0.00     0.183 A 
HETATM    3  C   UNL     1      40.149 -13.899   1.643  1.00  0.00     0.124 A 
HETATM    4  N   UNL     1      40.296 -14.381   0.382  1.00  0.00    -0.242 NA
HETATM    5  C   UNL     1      40.137 -13.467  -0.595  1.00  0.00     0.086 A 
HETATM    6  C   UNL     1      39.861 -12.099  -0.334  1.00  0.00     0.088 A 
HETATM    7  N   UNL     1      39.742 -11.604   0.908  1.00  0.00    -0.225 NA
HETATM    8  C   UNL     1      40.244 -13.877  -1.919  1.00  0.00     0.034 A 
HETATM    9  C   UNL     1      40.086 -12.982  -2.981  1.00  0.00     0.002 A 
HETATM   10  C   UNL     1      39.817 -11.647  -2.718  1.00  0.00     0.002 A 
HETATM   11  C   UNL     1      39.708 -11.219  -1.396  1.00  0.00     0.034 A 
HETATM   12  C   UNL     1      40.205 -14.546   2.904  1.00  0.00     0.104 A 
HETATM   13  C   UNL     1      39.952 -13.575   3.866  1.00  0.00     0.123 A 
ENDROOT
BRANCH  12  14
HETATM   14  C   UNL     1      40.404 -15.944   3.218  1.00  0.00     0.257 C 
HETATM   15  N   UNL     1      41.173 -16.591   2.263  1.00  0.00    -0.356 N 
HETATM   16  H   UNL     1      41.312 -16.066   1.409  1.00  0.00     0.162 HD
HETATM   17  O   UNL     1      40.076 -16.440   4.288  1.00  0.00    -0.267 OA
BRANCH  15  18
HETATM   18  C   UNL     1      42.341 -17.331   2.699  1.00  0.00     0.127 C 
BRANCH  18  19
HETATM   19  C   UNL     1      43.481 -16.469   3.242  1.00  0.00     0.053 C 
BRANCH  19  20
HETATM   20  C   UNL     1      43.418 -16.335   4.745  1.00  0.00    -0.082 C 
HETATM   21  C   UNL     1      43.197 -14.946   5.290  1.00  0.00     0.034 C 
HETATM   22  C   UNL     1      43.519 -14.821   6.781  1.00  0.00     0.005 C 
HETATM   23  C   UNL     1      42.974 -16.005   7.572  1.00  0.00     0.004 C 
HETATM   24  C   UNL     1      43.538 -17.326   7.051  1.00  0.00     0.027 C 
HETATM   25  C   UNL     1      43.571 -17.402   5.552  1.00  0.00    -0.024 C 
ENDBRANCH  19  20
ENDBRANCH  18  19
ENDBRANCH  15  18
ENDBRANCH  12  14
BRANCH  13  26
HETATM   26  N   UNL     1      39.818 -13.661   5.224  1.00  0.00    -0.286 NA
HETATM   27  H   UNL     1      39.693 -14.596   5.617  1.00  0.00     0.125 HD
HETATM   28  H   UNL     1      39.133 -13.020   5.634  1.00  0.00     0.125 HD
ENDBRANCH  13  26
BRANCH   1  29
HETATM   29  N   UNL     1      39.441 -11.210   3.891  1.00  0.00    -0.176 NA
HETATM   30  C   UNL     1      40.401 -10.564   4.480  1.00  0.00     0.153 C 
BRANCH  30  31
HETATM   31  C   UNL     1      41.790 -10.990   4.699  1.00  0.00     0.016 A 
HETATM   32  C   UNL     1      42.608 -11.200   3.588  1.00  0.00     0.016 A 
HETATM   33  C   UNL     1      43.963 -11.476   3.775  1.00  0.00     0.001 A 
HETATM   34  C   UNL     1      44.499 -11.503   5.064  1.00  0.00     0.003 A 
HETATM   35  C   UNL     1      43.677 -11.282   6.172  1.00  0.00     0.037 A 
HETATM   36  C   UNL     1      42.318 -11.044   5.990  1.00  0.00     0.077 A 
BRANCH  36  37
HETATM   37  O   UNL     1      41.565 -10.863   7.116  1.00  0.00    -0.360 OA
HETATM   38  H   UNL     1      41.041 -11.670   7.283  1.00  0.00     0.217 HD
ENDBRANCH  36  37
ENDBRANCH  30  31
ENDBRANCH   1  29
TORSDOF 8
ENDMDL
MODEL 9
REMARK VINA RESULT:      -8.3      4.366      7.058
REMARK  8 active torsions:
REMARK  status: ('A' for Active; 'I' for Inactive)
REMARK    1  A    between atoms: C_3  and  C_4 
REMARK    2  A    between atoms: N_5  and  N_6 
REMARK    3  A    between atoms: C_17  and  C_18 
REMARK       I    between atoms: C_18  and  N_19 
REMARK    4  A    between atoms: N_19  and  C_20 
REMARK    5  A    between atoms: C_20  and  C_21 
REMARK    6  A    between atoms: C_21  and  C_22 
REMARK    7  A    between atoms: C_29  and  N_30 
REMARK    8  A    between atoms: C_31  and  O_32 
ROOT
HETATM    1  N   UNL     1      40.880  -7.849   8.649  1.00  0.00    -0.202 N 
HETATM    2  C   UNL     1      42.028  -8.547   8.331  1.00  0.00     0.183 A 
HETATM    3  C   UNL     1      41.658  -9.657   7.576  1.00  0.00     0.124 A 
HETATM    4  N   UNL     1      42.591 -10.537   7.127  1.00  0.00    -0.242 NA
HETATM    5  C   UNL     1      43.862 -10.220   7.439  1.00  0.00     0.086 A 
HETATM    6  C   UNL     1      44.208  -9.072   8.200  1.00  0.00     0.088 A 
HETATM    7  N   UNL     1      43.294  -8.212   8.674  1.00  0.00    -0.225 NA
HETATM    8  C   UNL     1      44.886 -11.050   6.997  1.00  0.00     0.034 A 
HETATM    9  C   UNL     1      46.228 -10.779   7.281  1.00  0.00     0.002 A 
HETATM   10  C   UNL     1      46.557  -9.655   8.025  1.00  0.00     0.002 A 
HETATM   11  C   UNL     1      45.542  -8.813   8.478  1.00  0.00     0.034 A 
HETATM   12  C   UNL     1      40.249  -9.628   7.420  1.00  0.00     0.104 A 
HETATM   13  C   UNL     1      39.796  -8.482   8.063  1.00  0.00     0.123 A 
ENDROOT
BRANCH  12  14
HETATM   14  C   UNL     1      39.380 -10.527   6.690  1.00  0.00     0.257 C 
HETATM   15  N   UNL     1      39.930 -10.919   5.480  1.00  0.00    -0.356 N 
HETATM   16  H   UNL     1      40.741 -10.384   5.194  1.00  0.00     0.162 HD
HETATM   17  O   UNL     1      38.366 -11.011   7.174  1.00  0.00    -0.267 OA
BRANCH  15  18
HETATM   18  C   UNL     1      40.025 -12.336   5.189  1.00  0.00     0.127 C 
BRANCH  18  19
HETATM   19  C   UNL     1      39.635 -12.726   3.763  1.00  0.00     0.053 C 
BRANCH  19  20
HETATM   20  C   UNL     1      40.200 -14.072   3.374  1.00  0.00    -0.082 C 
HETATM   21  C   UNL     1      39.996 -14.502   1.943  1.00  0.00     0.034 C 
HETATM   22  C   UNL     1      40.242 -15.995   1.716  1.00  0.00     0.005 C 
HETATM   23  C   UNL     1      41.493 -16.472   2.445  1.00  0.00     0.004 C 
HETATM   24  C   UNL     1      41.395 -16.207   3.946  1.00  0.00     0.027 C 
HETATM   25  C   UNL     1      40.833 -14.853   4.270  1.00  0.00    -0.024 C 
ENDBRANCH  19  20
ENDBRANCH  18  19
ENDBRANCH  15  18
ENDBRANCH  12  14
BRANCH  13  26
HETATM   26  N   UNL     1      38.548  -7.934   8.161  1.00  0.00    -0.286 NA
HETATM   27  H   UNL     1      37.766  -8.583   8.266  1.00  0.00     0.125 HD
HETATM   28  H   UNL     1      38.323  -7.236   7.446  1.00  0.00     0.125 HD
ENDBRANCH  13  26
BRANCH   1  29
HETATM   29  N   UNL     1      40.784  -6.635   9.274  1.00  0.00    -0.176 NA
HETATM   30  C   UNL     1      40.865  -6.651  10.570  1.00  0.00     0.153 C 
BRANCH  30  31
HETATM   31  C   UNL     1      40.854  -7.810  11.472  1.00  0.00     0.016 A 
HETATM   32  C   UNL     1      42.050  -8.200  12.075  1.00  0.00     0.016 A 
HETATM   33  C   UNL     1      42.038  -9.214  13.034  1.00  0.00     0.001 A 
HETATM   34  C   UNL     1      40.830  -9.802  13.413  1.00  0.00     0.003 A 
HETATM   35  C   UNL     1      39.633  -9.400  12.814  1.00  0.00     0.037 A 
HETATM   36  C   UNL     1      39.647  -8.416  11.830  1.00  0.00     0.077 A 
BRANCH  36  37
HETATM   37  O   UNL     1      38.447  -8.088  11.264  1.00  0.00    -0.360 OA
HETATM   38  H   UNL     1      38.122  -8.846  10.741  1.00  0.00     0.217 HD
ENDBRANCH  36  37
ENDBRANCH  30  31
ENDBRANCH   1  29
TORSDOF 8
ENDMDL
MODEL 10
REMARK VINA RESULT:      -8.2      2.499      5.171
REMARK  8 active torsions:
REMARK  status: ('A' for Active; 'I' for Inactive)
REMARK    1  A    between atoms: C_3  and  C_4 
REMARK    2  A    between atoms: N_5  and  N_6 
REMARK    3  A    between atoms: C_17  and  C_18 
REMARK       I    between atoms: C_18  and  N_19 
REMARK    4  A    between atoms: N_19  and  C_20 
REMARK    5  A    between atoms: C_20  and  C_21 
REMARK    6  A    between atoms: C_21  and  C_22 
REMARK    7  A    between atoms: C_29  and  N_30 
REMARK    8  A    between atoms: C_31  and  O_32 
ROOT
HETATM    1  N   UNL     1      40.467 -12.516   5.386  1.00  0.00    -0.202 N 
HETATM    2  C   UNL     1      41.748 -12.159   5.756  1.00  0.00     0.183 A 
HETATM    3  C   UNL     1      42.595 -12.430   4.685  1.00  0.00     0.124 A 
HETATM    4  N   UNL     1      43.928 -12.183   4.769  1.00  0.00    -0.242 NA
HETATM    5  C   UNL     1      44.328 -11.635   5.933  1.00  0.00     0.086 A 
HETATM    6  C   UNL     1      43.436 -11.358   7.003  1.00  0.00     0.088 A 
HETATM    7  N   UNL     1      42.122 -11.625   6.942  1.00  0.00    -0.225 NA
HETATM    8  C   UNL     1      45.672 -11.323   6.098  1.00  0.00     0.034 A 
HETATM    9  C   UNL     1      46.154 -10.749   7.278  1.00  0.00     0.002 A 
HETATM   10  C   UNL     1      45.277 -10.481   8.318  1.00  0.00     0.002 A 
HETATM   11  C   UNL     1      43.926 -10.790   8.170  1.00  0.00     0.034 A 
HETATM   12  C   UNL     1      41.807 -12.956   3.629  1.00  0.00     0.104 A 
HETATM   13  C   UNL     1      40.491 -12.966   4.076  1.00  0.00     0.123 A 
ENDROOT
BRANCH  12  14
HETATM   14  C   UNL     1      42.197 -13.356   2.294  1.00  0.00     0.257 C 
HETATM   15  N   UNL     1      43.250 -14.258   2.304  1.00  0.00    -0.356 N 
HETATM   16  H   UNL     1      43.715 -14.351   3.199  1.00  0.00     0.162 HD
HETATM   17  O   UNL     1      41.552 -13.063   1.296  1.00  0.00    -0.267 OA
BRANCH  15  18
HETATM   18  C   UNL     1      43.100 -15.507   1.583  1.00  0.00     0.127 C 
BRANCH  18  19
HETATM   19  C   UNL     1      43.252 -16.765   2.439  1.00  0.00     0.053 C 
BRANCH  19  20
HETATM   20  C   UNL     1      42.609 -16.601   3.796  1.00  0.00    -0.082 C 
HETATM   21  C   UNL     1      43.541 -16.543   4.981  1.00  0.00     0.034 C 
HETATM   22  C   UNL     1      42.834 -16.761   6.321  1.00  0.00     0.005 C 
HETATM   23  C   UNL     1      41.522 -15.987   6.391  1.00  0.00     0.004 C 
HETATM   24  C   UNL     1      40.578 -16.391   5.260  1.00  0.00     0.027 C 
HETATM   25  C   UNL     1      41.272 -16.533   3.936  1.00  0.00    -0.024 C 
ENDBRANCH  19  20
ENDBRANCH  18  19
ENDBRANCH  15  18
ENDBRANCH  12  14
BRANCH  13  26
HETATM   26  N   UNL     1      39.325 -13.303   3.446  1.00  0.00    -0.286 NA
HETATM   27  H   UNL     1      38.801 -14.089   3.834  1.00  0.00     0.125 HD
HETATM   28  H   UNL     1      39.395 -13.403   2.429  1.00  0.00     0.125 HD
ENDBRANCH  13  26
BRANCH   1  29
HETATM   29  N   UNL     1      39.306 -12.312   6.082  1.00  0.00    -0.176 NA
HETATM   30  C   UNL     1      38.725 -11.164   5.900  1.00  0.00     0.153 C 
BRANCH  30  31
HETATM   31  C   UNL     1      39.240  -9.980   5.199  1.00  0.00     0.016 A 
HETATM   32  C   UNL     1      38.826  -9.748   3.887  1.00  0.00     0.016 A 
HETATM   33  C   UNL     1      39.198  -8.563   3.250  1.00  0.00     0.001 A 
HETATM   34  C   UNL     1      39.944  -7.604   3.938  1.00  0.00     0.003 A 
HETATM   35  C   UNL     1      40.345  -7.838   5.255  1.00  0.00     0.037 A 
HETATM   36  C   UNL     1      40.009  -9.035   5.881  1.00  0.00     0.077 A 
BRANCH  36  37
HETATM   37  O   UNL     1      40.456  -9.213   7.160  1.00  0.00    -0.360 OA
HETATM   38  H   UNL     1      41.322  -8.772   7.260  1.00  0.00     0.217 HD
ENDBRANCH  36  37
ENDBRANCH  30  31
ENDBRANCH   1  29
TORSDOF 8
ENDMDL
