MODEL 1
REMARK VINA RESULT:      -9.0      0.000      0.000
REMARK  3 active torsions:
REMARK  status: ('A' for Active; 'I' for Inactive)
REMARK    1  A    between atoms: C_5  and  C_6 
REMARK    2  A    between atoms: C_6  and  O_7 
REMARK       I    between atoms: N_10  and  C_11 
REMARK       I    between atoms: C_11  and  N_12 
REMARK    3  A    between atoms: N_12  and  C_13 
ROOT
HETATM    1  C   UNL     1      43.907 -10.030   7.732  1.00  0.00     0.105 C 
HETATM    2  C   UNL     1      44.783 -11.283   7.540  1.00  0.00     0.064 C 
HETATM    3  C   UNL     1      43.956 -12.562   7.498  1.00  0.00     0.131 C 
HETATM    4  N   UNL     1      42.902 -12.484   6.479  1.00  0.00    -0.334 N 
HETATM    5  C   UNL     1      42.569 -13.464   5.540  1.00  0.00     0.322 C 
HETATM    6  N   UNL     1      43.296 -14.628   5.623  1.00  0.00    -0.309 N 
HETATM    7  O   UNL     1      41.682 -13.269   4.710  1.00  0.00    -0.247 OA
HETATM    8  C   UNL     1      42.045 -11.302   6.558  1.00  0.00     0.131 C 
HETATM    9  C   UNL     1      42.854 -10.009   6.614  1.00  0.00     0.064 C 
HETATM   10  H   UNL     1      43.726 -14.822   6.510  1.00  0.00     0.170 HD
ENDROOT
BRANCH   6  11
HETATM   11  C   UNL     1      43.317 -15.697   4.699  1.00  0.00     0.037 A 
HETATM   12  C   UNL     1      43.693 -17.005   5.033  1.00  0.00     0.039 A 
HETATM   13  C   UNL     1      43.663 -17.975   4.044  1.00  0.00    -0.021 A 
HETATM   14  C   UNL     1      43.255 -17.664   2.751  1.00  0.00     0.041 A 
HETATM   15  C   UNL     1      44.018 -19.430   4.119  1.00  0.00     0.144 A 
HETATM   16  N   UNL     1      43.307 -18.799   1.959  1.00  0.00    -0.326 N 
HETATM   17  C   UNL     1      42.866 -16.396   2.387  1.00  0.00     0.032 A 
HETATM   18  C   UNL     1      43.750 -19.899   2.684  1.00  0.00     0.226 A 
HETATM   19  H   UNL     1      43.063 -18.853   0.982  1.00  0.00     0.169 HD
HETATM   20  O   UNL     1      43.894 -21.028   2.245  1.00  0.00    -0.273 OA
HETATM   21  C   UNL     1      42.901 -15.408   3.377  1.00  0.00     0.032 A 
ENDBRANCH   6  11
BRANCH   1  22
HETATM   22  C   UNL     1      43.400  -9.912   9.173  1.00  0.00     0.068 A 
HETATM   23  N   UNL     1      42.159  -9.368   9.308  1.00  0.00    -0.262 NA
HETATM   24  C   UNL     1      41.616  -9.307  10.546  1.00  0.00     0.123 A 
HETATM   25  C   UNL     1      42.241  -9.770  11.692  1.00  0.00    -0.044 A 
HETATM   26  C   UNL     1      41.566  -9.718  13.026  1.00  0.00     0.049 C 
HETATM   27  C   UNL     1      43.494 -10.358  11.539  1.00  0.00     0.010 A 
HETATM   28  C   UNL     1      44.076 -10.436  10.273  1.00  0.00     0.031 A 
ENDBRANCH   1  22
BRANCH   1  29
HETATM   29  O   UNL     1      44.768  -8.891   7.524  1.00  0.00    -0.383 OA
HETATM   30  H   UNL     1      45.661  -9.263   7.379  1.00  0.00     0.211 HD
ENDBRANCH   1  29
TORSDOF 3
ENDMDL
MODEL 2
REMARK VINA RESULT:      -8.8      1.660      2.180
REMARK  3 active torsions:
REMARK  status: ('A' for Active; 'I' for Inactive)
REMARK    1  A    between atoms: C_5  and  C_6 
REMARK    2  A    between atoms: C_6  and  O_7 
REMARK       I    between atoms: N_10  and  C_11 
REMARK       I    between atoms: C_11  and  N_12 
REMARK    3  A    between atoms: N_12  and  C_13 
ROOT
HETATM    1  C   UNL     1      43.909  -8.281   8.747  1.00  0.00     0.105 C 
HETATM    2  C   UNL     1      44.791  -9.473   8.327  1.00  0.00     0.064 C 
HETATM    3  C   UNL     1      43.990 -10.762   8.193  1.00  0.00     0.131 C 
HETATM    4  N   UNL     1      42.851 -10.592   7.283  1.00  0.00    -0.334 N 
HETATM    5  C   UNL     1      42.459 -11.458   6.259  1.00  0.00     0.322 C 
HETATM    6  N   UNL     1      43.214 -12.601   6.135  1.00  0.00    -0.309 N 
HETATM    7  O   UNL     1      41.500 -11.190   5.537  1.00  0.00    -0.247 OA
HETATM    8  C   UNL     1      41.980  -9.455   7.581  1.00  0.00     0.131 C 
HETATM    9  C   UNL     1      42.764  -8.155   7.732  1.00  0.00     0.064 C 
HETATM   10  H   UNL     1      43.723 -12.889   6.952  1.00  0.00     0.170 HD
ENDROOT
BRANCH   6  11
HETATM   11  C   UNL     1      43.177 -13.546   5.085  1.00  0.00     0.037 A 
HETATM   12  C   UNL     1      43.112 -14.931   5.290  1.00  0.00     0.039 A 
HETATM   13  C   UNL     1      43.068 -15.761   4.181  1.00  0.00    -0.021 A 
HETATM   14  C   UNL     1      43.074 -15.236   2.894  1.00  0.00     0.041 A 
HETATM   15  C   UNL     1      43.007 -17.258   4.109  1.00  0.00     0.144 A 
HETATM   16  N   UNL     1      43.019 -16.265   1.969  1.00  0.00    -0.326 N 
HETATM   17  C   UNL     1      43.125 -13.883   2.652  1.00  0.00     0.032 A 
HETATM   18  C   UNL     1      42.977 -17.505   2.596  1.00  0.00     0.226 A 
HETATM   19  H   UNL     1      43.008 -16.161   0.966  1.00  0.00     0.169 HD
HETATM   20  O   UNL     1      42.924 -18.584   2.032  1.00  0.00    -0.273 OA
HETATM   21  C   UNL     1      43.177 -13.036   3.765  1.00  0.00     0.032 A 
ENDBRANCH   6  11
BRANCH   1  22
HETATM   22  C   UNL     1      43.526  -8.358  10.228  1.00  0.00     0.068 A 
HETATM   23  N   UNL     1      42.792  -7.309  10.692  1.00  0.00    -0.262 NA
HETATM   24  C   UNL     1      42.350  -7.349  11.970  1.00  0.00     0.123 A 
HETATM   25  C   UNL     1      42.593  -8.397  12.843  1.00  0.00    -0.044 A 
HETATM   26  C   UNL     1      42.035  -8.404  14.231  1.00  0.00     0.049 C 
HETATM   27  C   UNL     1      43.313  -9.481  12.349  1.00  0.00     0.010 A 
HETATM   28  C   UNL     1      43.778  -9.467  11.033  1.00  0.00     0.031 A 
ENDBRANCH   1  22
BRANCH   1  29
HETATM   29  O   UNL     1      44.726  -7.099   8.613  1.00  0.00    -0.383 OA
HETATM   30  H   UNL     1      44.138  -6.350   8.840  1.00  0.00     0.211 HD
ENDBRANCH   1  29
TORSDOF 3
ENDMDL
MODEL 3
REMARK VINA RESULT:      -8.7      1.913      2.511
REMARK  3 active torsions:
REMARK  status: ('A' for Active; 'I' for Inactive)
REMARK    1  A    between atoms: C_5  and  C_6 
REMARK    2  A    between atoms: C_6  and  O_7 
REMARK       I    between atoms: N_10  and  C_11 
REMARK       I    between atoms: C_11  and  N_12 
REMARK    3  A    between atoms: N_12  and  C_13 
ROOT
HETATM    1  C   UNL     1      41.739  -9.992   5.773  1.00  0.00     0.105 C 
HETATM    2  C   UNL     1      43.001 -10.812   5.440  1.00  0.00     0.064 C 
HETATM    3  C   UNL     1      43.036 -12.140   6.184  1.00  0.00     0.131 C 
HETATM    4  N   UNL     1      41.814 -12.919   5.948  1.00  0.00    -0.334 N 
HETATM    5  C   UNL     1      41.733 -14.278   5.632  1.00  0.00     0.322 C 
HETATM    6  N   UNL     1      42.937 -14.941   5.579  1.00  0.00    -0.309 N 
HETATM    7  O   UNL     1      40.646 -14.814   5.423  1.00  0.00    -0.247 OA
HETATM    8  C   UNL     1      40.563 -12.205   6.197  1.00  0.00     0.131 C 
HETATM    9  C   UNL     1      40.511 -10.864   5.471  1.00  0.00     0.064 C 
HETATM   10  H   UNL     1      43.697 -14.526   6.088  1.00  0.00     0.170 HD
ENDROOT
BRANCH   6  11
HETATM   11  C   UNL     1      43.177 -16.249   5.099  1.00  0.00     0.037 A 
HETATM   12  C   UNL     1      43.028 -16.623   3.757  1.00  0.00     0.039 A 
HETATM   13  C   UNL     1      43.305 -17.933   3.402  1.00  0.00    -0.021 A 
HETATM   14  C   UNL     1      43.735 -18.855   4.350  1.00  0.00     0.041 A 
HETATM   15  C   UNL     1      43.221 -18.599   2.060  1.00  0.00     0.144 A 
HETATM   16  N   UNL     1      43.947 -20.083   3.745  1.00  0.00    -0.326 N 
HETATM   17  C   UNL     1      43.906 -18.524   5.674  1.00  0.00     0.032 A 
HETATM   18  C   UNL     1      43.668 -20.029   2.384  1.00  0.00     0.226 A 
HETATM   19  H   UNL     1      44.264 -20.924   4.204  1.00  0.00     0.169 HD
HETATM   20  O   UNL     1      43.766 -20.960   1.602  1.00  0.00    -0.273 OA
HETATM   21  C   UNL     1      43.621 -17.204   6.044  1.00  0.00     0.032 A 
ENDBRANCH   6  11
BRANCH   1  22
HETATM   22  C   UNL     1      41.826  -9.365   7.167  1.00  0.00     0.068 A 
HETATM   23  N   UNL     1      43.065  -8.935   7.533  1.00  0.00    -0.262 NA
HETATM   24  C   UNL     1      43.199  -8.298   8.720  1.00  0.00     0.123 A 
HETATM   25  C   UNL     1      42.151  -8.049   9.591  1.00  0.00    -0.044 A 
HETATM   26  C   UNL     1      42.357  -7.297  10.867  1.00  0.00     0.049 C 
HETATM   27  C   UNL     1      40.882  -8.460   9.191  1.00  0.00     0.010 A 
HETATM   28  C   UNL     1      40.715  -9.117   7.971  1.00  0.00     0.031 A 
ENDBRANCH   1  22
BRANCH   1  29
HETATM   29  O   UNL     1      41.711  -8.887   4.845  1.00  0.00    -0.383 OA
HETATM   30  H   UNL     1      42.506  -8.996   4.286  1.00  0.00     0.211 HD
ENDBRANCH   1  29
TORSDOF 3
ENDMDL
MODEL 4
REMARK VINA RESULT:      -8.6      7.114     13.617
REMARK  3 active torsions:
REMARK  status: ('A' for Active; 'I' for Inactive)
REMARK    1  A    between atoms: C_5  and  C_6 
REMARK    2  A    between atoms: C_6  and  O_7 
REMARK       I    between atoms: N_10  and  C_11 
REMARK       I    between atoms: C_11  and  N_12 
REMARK    3  A    between atoms: N_12  and  C_13 
ROOT
HETATM    1  C   UNL     1      41.278  -9.292  11.420  1.00  0.00     0.105 C 
HETATM    2  C   UNL     1      41.533  -9.982  12.774  1.00  0.00     0.064 C 
HETATM    3  C   UNL     1      42.205  -9.053  13.776  1.00  0.00     0.131 C 
HETATM    4  N   UNL     1      41.446  -7.808  13.945  1.00  0.00    -0.334 N 
HETATM    5  C   UNL     1      41.116  -7.183  15.150  1.00  0.00     0.322 C 
HETATM    6  N   UNL     1      41.596  -7.799  16.282  1.00  0.00    -0.309 N 
HETATM    7  O   UNL     1      40.442  -6.154  15.165  1.00  0.00    -0.247 OA
HETATM    8  C   UNL     1      41.120  -7.104  12.704  1.00  0.00     0.131 C 
HETATM    9  C   UNL     1      40.457  -8.021  11.681  1.00  0.00     0.064 C 
HETATM   10  H   UNL     1      42.393  -8.399  16.158  1.00  0.00     0.170 HD
ENDROOT
BRANCH   6  11
HETATM   11  C   UNL     1      41.263  -7.512  17.625  1.00  0.00     0.037 A 
HETATM   12  C   UNL     1      40.278  -8.202  18.345  1.00  0.00     0.039 A 
HETATM   13  C   UNL     1      40.047  -7.839  19.662  1.00  0.00    -0.021 A 
HETATM   14  C   UNL     1      40.782  -6.824  20.263  1.00  0.00     0.041 A 
HETATM   15  C   UNL     1      39.062  -8.393  20.648  1.00  0.00     0.144 A 
HETATM   16  N   UNL     1      40.366  -6.659  21.574  1.00  0.00    -0.326 N 
HETATM   17  C   UNL     1      41.765  -6.131  19.595  1.00  0.00     0.032 A 
HETATM   18  C   UNL     1      39.346  -7.547  21.895  1.00  0.00     0.226 A 
HETATM   19  H   UNL     1      40.735  -5.992  22.234  1.00  0.00     0.169 HD
HETATM   20  O   UNL     1      38.789  -7.628  22.976  1.00  0.00    -0.273 OA
HETATM   21  C   UNL     1      42.000  -6.485  18.261  1.00  0.00     0.032 A 
ENDBRANCH   6  11
BRANCH   1  22
HETATM   22  C   UNL     1      42.572  -9.136  10.615  1.00  0.00     0.068 A 
HETATM   23  N   UNL     1      43.419 -10.201  10.667  1.00  0.00    -0.262 NA
HETATM   24  C   UNL     1      44.544 -10.164   9.915  1.00  0.00     0.123 A 
HETATM   25  C   UNL     1      44.890  -9.109   9.086  1.00  0.00    -0.044 A 
HETATM   26  C   UNL     1      46.125  -9.150   8.243  1.00  0.00     0.049 C 
HETATM   27  C   UNL     1      44.000  -8.041   9.013  1.00  0.00     0.010 A 
HETATM   28  C   UNL     1      42.831  -8.054   9.775  1.00  0.00     0.031 A 
ENDBRANCH   1  22
BRANCH   1  29
HETATM   29  O   UNL     1      40.443 -10.185  10.654  1.00  0.00    -0.383 OA
HETATM   30  H   UNL     1      40.259  -9.715   9.817  1.00  0.00     0.211 HD
ENDBRANCH   1  29
TORSDOF 3
ENDMDL
MODEL 5
REMARK VINA RESULT:      -8.6      2.623      9.656
REMARK  3 active torsions:
REMARK  status: ('A' for Active; 'I' for Inactive)
REMARK    1  A    between atoms: C_5  and  C_6 
REMARK    2  A    between atoms: C_6  and  O_7 
REMARK       I    between atoms: N_10  and  C_11 
REMARK       I    between atoms: C_11  and  N_12 
REMARK    3  A    between atoms: N_12  and  C_13 
ROOT
HETATM    1  C   UNL     1      41.453 -15.521   4.605  1.00  0.00     0.105 C 
HETATM    2  C   UNL     1      41.253 -14.934   6.015  1.00  0.00     0.064 C 
HETATM    3  C   UNL     1      42.469 -14.148   6.489  1.00  0.00     0.131 C 
HETATM    4  N   UNL     1      42.842 -13.107   5.524  1.00  0.00    -0.334 N 
HETATM    5  C   UNL     1      43.160 -11.776   5.806  1.00  0.00     0.322 C 
HETATM    6  N   UNL     1      43.151 -11.440   7.140  1.00  0.00    -0.309 N 
HETATM    7  O   UNL     1      43.426 -10.984   4.904  1.00  0.00    -0.247 OA
HETATM    8  C   UNL     1      43.011 -13.567   4.146  1.00  0.00     0.131 C 
HETATM    9  C   UNL     1      41.809 -14.368   3.655  1.00  0.00     0.064 C 
HETATM   10  H   UNL     1      43.268 -12.198   7.790  1.00  0.00     0.170 HD
ENDROOT
BRANCH   6  11
HETATM   11  C   UNL     1      43.237 -10.146   7.703  1.00  0.00     0.037 A 
HETATM   12  C   UNL     1      42.139  -9.289   7.848  1.00  0.00     0.039 A 
HETATM   13  C   UNL     1      42.343  -8.046   8.426  1.00  0.00    -0.021 A 
HETATM   14  C   UNL     1      43.605  -7.660   8.864  1.00  0.00     0.041 A 
HETATM   15  C   UNL     1      41.364  -6.942   8.691  1.00  0.00     0.144 A 
HETATM   16  N   UNL     1      43.544  -6.387   9.405  1.00  0.00    -0.326 N 
HETATM   17  C   UNL     1      44.706  -8.478   8.751  1.00  0.00     0.032 A 
HETATM   18  C   UNL     1      42.252  -5.877   9.346  1.00  0.00     0.226 A 
HETATM   19  H   UNL     1      44.316  -5.871   9.797  1.00  0.00     0.169 HD
HETATM   20  O   UNL     1      41.903  -4.779   9.747  1.00  0.00    -0.273 OA
HETATM   21  C   UNL     1      44.511  -9.733   8.161  1.00  0.00     0.032 A 
ENDBRANCH   6  11
BRANCH   1  22
HETATM   22  C   UNL     1      42.397 -16.728   4.625  1.00  0.00     0.068 A 
HETATM   23  N   UNL     1      42.575 -17.304   5.845  1.00  0.00    -0.262 NA
HETATM   24  C   UNL     1      43.333 -18.422   5.923  1.00  0.00     0.123 A 
HETATM   25  C   UNL     1      43.938 -19.028   4.834  1.00  0.00    -0.044 A 
HETATM   26  C   UNL     1      44.724 -20.292   4.980  1.00  0.00     0.049 C 
HETATM   27  C   UNL     1      43.720 -18.452   3.586  1.00  0.00     0.010 A 
HETATM   28  C   UNL     1      42.941 -17.299   3.476  1.00  0.00     0.031 A 
ENDBRANCH   1  22
BRANCH   1  29
HETATM   29  O   UNL     1      40.170 -16.032   4.187  1.00  0.00    -0.383 OA
HETATM   30  H   UNL     1      39.732 -16.336   5.006  1.00  0.00     0.211 HD
ENDBRANCH   1  29
TORSDOF 3
ENDMDL
MODEL 6
REMARK VINA RESULT:      -8.6      3.724      9.578
REMARK  3 active torsions:
REMARK  status: ('A' for Active; 'I' for Inactive)
REMARK    1  A    between atoms: C_5  and  C_6 
REMARK    2  A    between atoms: C_6  and  O_7 
REMARK       I    between atoms: N_10  and  C_11 
REMARK       I    between atoms: C_11  and  N_12 
REMARK    3  A    between atoms: N_12  and  C_13 
ROOT
HETATM    1  C   UNL     1      43.568 -16.356   5.939  1.00  0.00     0.105 C 
HETATM    2  C   UNL     1      43.810 -14.904   5.482  1.00  0.00     0.064 C 
HETATM    3  C   UNL     1      42.601 -14.318   4.765  1.00  0.00     0.131 C 
HETATM    4  N   UNL     1      41.388 -14.426   5.583  1.00  0.00    -0.334 N 
HETATM    5  C   UNL     1      40.439 -13.427   5.814  1.00  0.00     0.322 C 
HETATM    6  N   UNL     1      40.670 -12.236   5.165  1.00  0.00    -0.309 N 
HETATM    7  O   UNL     1      39.475 -13.628   6.551  1.00  0.00    -0.247 OA
HETATM    8  C   UNL     1      41.101 -15.765   6.098  1.00  0.00     0.131 C 
HETATM    9  C   UNL     1      42.304 -16.377   6.810  1.00  0.00     0.064 C 
HETATM   10  H   UNL     1      41.254 -12.281   4.348  1.00  0.00     0.170 HD
ENDROOT
BRANCH   6  11
HETATM   11  C   UNL     1      40.002 -11.006   5.360  1.00  0.00     0.037 A 
HETATM   12  C   UNL     1      40.206 -10.180   6.474  1.00  0.00     0.039 A 
HETATM   13  C   UNL     1      39.502  -8.989   6.551  1.00  0.00    -0.021 A 
HETATM   14  C   UNL     1      38.622  -8.612   5.542  1.00  0.00     0.041 A 
HETATM   15  C   UNL     1      39.518  -7.936   7.618  1.00  0.00     0.144 A 
HETATM   16  N   UNL     1      38.053  -7.389   5.851  1.00  0.00    -0.326 N 
HETATM   17  C   UNL     1      38.404  -9.389   4.427  1.00  0.00     0.032 A 
HETATM   18  C   UNL     1      38.524  -6.907   7.067  1.00  0.00     0.226 A 
HETATM   19  H   UNL     1      37.383  -6.887   5.288  1.00  0.00     0.169 HD
HETATM   20  O   UNL     1      38.196  -5.855   7.588  1.00  0.00    -0.273 OA
HETATM   21  C   UNL     1      39.105 -10.598   4.344  1.00  0.00     0.032 A 
ENDBRANCH   6  11
BRANCH   1  22
HETATM   22  C   UNL     1      43.621 -17.334   4.760  1.00  0.00     0.068 A 
HETATM   23  N   UNL     1      44.101 -18.573   5.057  1.00  0.00    -0.262 NA
HETATM   24  C   UNL     1      44.101 -19.511   4.082  1.00  0.00     0.123 A 
HETATM   25  C   UNL     1      43.638 -19.295   2.795  1.00  0.00    -0.044 A 
HETATM   26  C   UNL     1      43.621 -20.389   1.775  1.00  0.00     0.049 C 
HETATM   27  C   UNL     1      43.117 -18.035   2.512  1.00  0.00     0.010 A 
HETATM   28  C   UNL     1      43.101 -17.049   3.499  1.00  0.00     0.031 A 
ENDBRANCH   1  22
BRANCH   1  29
HETATM   29  O   UNL     1      44.676 -16.708   6.793  1.00  0.00    -0.383 OA
HETATM   30  H   UNL     1      45.152 -17.420   6.321  1.00  0.00     0.211 HD
ENDBRANCH   1  29
TORSDOF 3
ENDMDL
MODEL 7
REMARK VINA RESULT:      -8.3      6.212     10.203
REMARK  3 active torsions:
REMARK  status: ('A' for Active; 'I' for Inactive)
REMARK    1  A    between atoms: C_5  and  C_6 
REMARK    2  A    between atoms: C_6  and  O_7 
REMARK       I    between atoms: N_10  and  C_11 
REMARK       I    between atoms: C_11  and  N_12 
REMARK    3  A    between atoms: N_12  and  C_13 
ROOT
HETATM    1  C   UNL     1      40.313 -15.474   2.602  1.00  0.00     0.105 C 
HETATM    2  C   UNL     1      40.463 -14.009   3.057  1.00  0.00     0.064 C 
HETATM    3  C   UNL     1      41.442 -13.233   2.186  1.00  0.00     0.131 C 
HETATM    4  N   UNL     1      41.079 -13.318   0.766  1.00  0.00    -0.334 N 
HETATM    5  C   UNL     1      41.028 -12.265  -0.152  1.00  0.00     0.322 C 
HETATM    6  N   UNL     1      41.398 -11.036   0.344  1.00  0.00    -0.309 N 
HETATM    7  O   UNL     1      40.675 -12.456  -1.314  1.00  0.00    -0.247 OA
HETATM    8  C   UNL     1      40.873 -14.673   0.256  1.00  0.00     0.131 C 
HETATM    9  C   UNL     1      39.905 -15.473   1.121  1.00  0.00     0.064 C 
HETATM   10  H   UNL     1      41.983 -11.044   1.161  1.00  0.00     0.170 HD
ENDROOT
BRANCH   6  11
HETATM   11  C   UNL     1      41.260  -9.778  -0.286  1.00  0.00     0.037 A 
HETATM   12  C   UNL     1      42.257  -9.192  -1.077  1.00  0.00     0.039 A 
HETATM   13  C   UNL     1      42.003  -7.959  -1.654  1.00  0.00    -0.021 A 
HETATM   14  C   UNL     1      40.782  -7.319  -1.465  1.00  0.00     0.041 A 
HETATM   15  C   UNL     1      42.880  -7.111  -2.526  1.00  0.00     0.144 A 
HETATM   16  N   UNL     1      40.776  -6.113  -2.145  1.00  0.00    -0.326 N 
HETATM   17  C   UNL     1      39.774  -7.867  -0.706  1.00  0.00     0.032 A 
HETATM   18  C   UNL     1      41.981  -5.901  -2.806  1.00  0.00     0.226 A 
HETATM   19  H   UNL     1      40.014  -5.453  -2.177  1.00  0.00     0.169 HD
HETATM   20  O   UNL     1      42.258  -4.925  -3.482  1.00  0.00    -0.273 OA
HETATM   21  C   UNL     1      40.025  -9.110  -0.112  1.00  0.00     0.032 A 
ENDBRANCH   6  11
BRANCH   1  22
HETATM   22  C   UNL     1      41.535 -16.312   2.990  1.00  0.00     0.068 A 
HETATM   23  N   UNL     1      41.922 -16.205   4.291  1.00  0.00    -0.262 NA
HETATM   24  C   UNL     1      42.945 -16.979   4.722  1.00  0.00     0.123 A 
HETATM   25  C   UNL     1      43.626 -17.883   3.923  1.00  0.00    -0.044 A 
HETATM   26  C   UNL     1      44.718 -18.745   4.473  1.00  0.00     0.049 C 
HETATM   27  C   UNL     1      43.199 -18.011   2.604  1.00  0.00     0.010 A 
HETATM   28  C   UNL     1      42.145 -17.227   2.134  1.00  0.00     0.031 A 
ENDBRANCH   1  22
BRANCH   1  29
HETATM   29  O   UNL     1      39.206 -16.024   3.346  1.00  0.00    -0.383 OA
HETATM   30  H   UNL     1      39.598 -16.705   3.928  1.00  0.00     0.211 HD
ENDBRANCH   1  29
TORSDOF 3
ENDMDL
MODEL 8
REMARK VINA RESULT:      -8.1     16.970     19.413
REMARK  3 active torsions:
REMARK  status: ('A' for Active; 'I' for Inactive)
REMARK    1  A    between atoms: C_5  and  C_6 
REMARK    2  A    between atoms: C_6  and  O_7 
REMARK       I    between atoms: N_10  and  C_11 
REMARK       I    between atoms: C_11  and  N_12 
REMARK    3  A    between atoms: N_12  and  C_13 
ROOT
HETATM    1  C   UNL     1      45.805 -29.165   2.206  1.00  0.00     0.105 C 
HETATM    2  C   UNL     1      46.082 -28.461   0.863  1.00  0.00     0.064 C 
HETATM    3  C   UNL     1      46.639 -29.417  -0.183  1.00  0.00     0.131 C 
HETATM    4  N   UNL     1      45.767 -30.584  -0.361  1.00  0.00    -0.334 N 
HETATM    5  C   UNL     1      45.348 -31.142  -1.571  1.00  0.00     0.322 C 
HETATM    6  N   UNL     1      45.850 -30.539  -2.701  1.00  0.00    -0.309 N 
HETATM    7  O   UNL     1      44.585 -32.107  -1.593  1.00  0.00    -0.247 OA
HETATM    8  C   UNL     1      45.415 -31.291   0.870  1.00  0.00     0.131 C 
HETATM    9  C   UNL     1      44.866 -30.349   1.937  1.00  0.00     0.064 C 
HETATM   10  H   UNL     1      46.701 -30.016  -2.586  1.00  0.00     0.170 HD
ENDROOT
BRANCH   6  11
HETATM   11  C   UNL     1      45.454 -30.756  -4.040  1.00  0.00     0.037 A 
HETATM   12  C   UNL     1      46.182 -31.539  -4.947  1.00  0.00     0.039 A 
HETATM   13  C   UNL     1      45.688 -31.690  -6.233  1.00  0.00    -0.021 A 
HETATM   14  C   UNL     1      44.492 -31.093  -6.614  1.00  0.00     0.041 A 
HETATM   15  C   UNL     1      46.258 -32.452  -7.392  1.00  0.00     0.144 A 
HETATM   16  N   UNL     1      44.217 -31.400  -7.936  1.00  0.00    -0.326 N 
HETATM   17  C   UNL     1      43.742 -30.329  -5.750  1.00  0.00     0.032 A 
HETATM   18  C   UNL     1      45.211 -32.203  -8.485  1.00  0.00     0.226 A 
HETATM   19  H   UNL     1      43.411 -31.096  -8.461  1.00  0.00     0.169 HD
HETATM   20  O   UNL     1      45.232 -32.625  -9.628  1.00  0.00    -0.273 OA
HETATM   21  C   UNL     1      44.237 -30.163  -4.451  1.00  0.00     0.032 A 
ENDBRANCH   6  11
BRANCH   1  22
HETATM   22  C   UNL     1      47.102 -29.458   2.966  1.00  0.00     0.068 A 
HETATM   23  N   UNL     1      47.185 -30.702   3.513  1.00  0.00    -0.262 NA
HETATM   24  C   UNL     1      48.335 -31.057   4.131  1.00  0.00     0.123 A 
HETATM   25  C   UNL     1      49.444 -30.235   4.240  1.00  0.00    -0.044 A 
HETATM   26  C   UNL     1      50.705 -30.704   4.894  1.00  0.00     0.049 C 
HETATM   27  C   UNL     1      49.363 -28.978   3.646  1.00  0.00     0.010 A 
HETATM   28  C   UNL     1      48.189 -28.587   3.000  1.00  0.00     0.031 A 
ENDBRANCH   1  22
BRANCH   1  29
HETATM   29  O   UNL     1      45.075 -28.223   3.021  1.00  0.00    -0.383 OA
HETATM   30  H   UNL     1      45.565 -27.380   2.944  1.00  0.00     0.211 HD
ENDBRANCH   1  29
TORSDOF 3
ENDMDL
MODEL 9
REMARK VINA RESULT:      -8.1      5.829      9.877
REMARK  3 active torsions:
REMARK  status: ('A' for Active; 'I' for Inactive)
REMARK    1  A    between atoms: C_5  and  C_6 
REMARK    2  A    between atoms: C_6  and  O_7 
REMARK       I    between atoms: N_10  and  C_11 
REMARK       I    between atoms: C_11  and  N_12 
REMARK    3  A    between atoms: N_12  and  C_13 
ROOT
HETATM    1  C   UNL     1      42.128 -15.545   3.846  1.00  0.00     0.105 C 
HETATM    2  C   UNL     1      42.949 -14.448   3.141  1.00  0.00     0.064 C 
HETATM    3  C   UNL     1      42.688 -14.409   1.641  1.00  0.00     0.131 C 
HETATM    4  N   UNL     1      41.255 -14.276   1.350  1.00  0.00    -0.334 N 
HETATM    5  C   UNL     1      40.663 -13.406   0.431  1.00  0.00     0.322 C 
HETATM    6  N   UNL     1      41.539 -12.630  -0.291  1.00  0.00    -0.309 N 
HETATM    7  O   UNL     1      39.441 -13.362   0.299  1.00  0.00    -0.247 OA
HETATM    8  C   UNL     1      40.392 -15.252   2.014  1.00  0.00     0.131 C 
HETATM    9  C   UNL     1      40.646 -15.316   3.517  1.00  0.00     0.064 C 
HETATM   10  H   UNL     1      42.480 -12.973  -0.367  1.00  0.00     0.170 HD
ENDROOT
BRANCH   6  11
HETATM   11  C   UNL     1      41.227 -11.539  -1.135  1.00  0.00     0.037 A 
HETATM   12  C   UNL     1      41.433 -10.199  -0.780  1.00  0.00     0.039 A 
HETATM   13  C   UNL     1      41.100  -9.214  -1.695  1.00  0.00    -0.021 A 
HETATM   14  C   UNL     1      40.586  -9.544  -2.944  1.00  0.00     0.041 A 
HETATM   15  C   UNL     1      41.205  -7.723  -1.576  1.00  0.00     0.144 A 
HETATM   16  N   UNL     1      40.343  -8.390  -3.669  1.00  0.00    -0.326 N 
HETATM   17  C   UNL     1      40.382 -10.847  -3.336  1.00  0.00     0.032 A 
HETATM   18  C   UNL     1      40.679  -7.255  -2.939  1.00  0.00     0.226 A 
HETATM   19  H   UNL     1      39.972  -8.344  -4.606  1.00  0.00     0.169 HD
HETATM   20  O   UNL     1      40.570  -6.104  -3.325  1.00  0.00    -0.273 OA
HETATM   21  C   UNL     1      40.707 -11.849  -2.414  1.00  0.00     0.032 A 
ENDBRANCH   6  11
BRANCH   1  22
HETATM   22  C   UNL     1      42.698 -16.940   3.573  1.00  0.00     0.068 A 
HETATM   23  N   UNL     1      43.353 -17.514   4.619  1.00  0.00    -0.262 NA
HETATM   24  C   UNL     1      43.813 -18.778   4.474  1.00  0.00     0.123 A 
HETATM   25  C   UNL     1      43.656 -19.534   3.324  1.00  0.00    -0.044 A 
HETATM   26  C   UNL     1      44.146 -20.945   3.243  1.00  0.00     0.049 C 
HETATM   27  C   UNL     1      42.954 -18.952   2.272  1.00  0.00     0.010 A 
HETATM   28  C   UNL     1      42.466 -17.650   2.397  1.00  0.00     0.031 A 
ENDBRANCH   1  22
BRANCH   1  29
HETATM   29  O   UNL     1      42.285 -15.327   5.264  1.00  0.00    -0.383 OA
HETATM   30  H   UNL     1      41.595 -14.676   5.505  1.00  0.00     0.211 HD
ENDBRANCH   1  29
TORSDOF 3
ENDMDL
MODEL 10
REMARK VINA RESULT:      -8.0      2.942      4.455
REMARK  3 active torsions:
REMARK  status: ('A' for Active; 'I' for Inactive)
REMARK    1  A    between atoms: C_5  and  C_6 
REMARK    2  A    between atoms: C_6  and  O_7 
REMARK       I    between atoms: N_10  and  C_11 
REMARK       I    between atoms: C_11  and  N_12 
REMARK    3  A    between atoms: N_12  and  C_13 
ROOT
HETATM    1  C   UNL     1      42.606  -8.613  11.606  1.00  0.00     0.105 C 
HETATM    2  C   UNL     1      41.604  -9.362  10.706  1.00  0.00     0.064 C 
HETATM    3  C   UNL     1      42.046  -9.383   9.248  1.00  0.00     0.131 C 
HETATM    4  N   UNL     1      43.402  -9.927   9.108  1.00  0.00    -0.334 N 
HETATM    5  C   UNL     1      43.834 -10.876   8.177  1.00  0.00     0.322 C 
HETATM    6  N   UNL     1      42.876 -11.303   7.287  1.00  0.00    -0.309 N 
HETATM    7  O   UNL     1      44.995 -11.281   8.179  1.00  0.00    -0.247 OA
HETATM    8  C   UNL     1      44.414  -9.304   9.959  1.00  0.00     0.131 C 
HETATM    9  C   UNL     1      43.987  -9.260  11.423  1.00  0.00     0.064 C 
HETATM   10  H   UNL     1      42.097 -10.685   7.141  1.00  0.00     0.170 HD
ENDROOT
BRANCH   6  11
HETATM   11  C   UNL     1      42.966 -12.381   6.377  1.00  0.00     0.037 A 
HETATM   12  C   UNL     1      43.282 -13.692   6.757  1.00  0.00     0.039 A 
HETATM   13  C   UNL     1      43.330 -14.671   5.777  1.00  0.00    -0.021 A 
HETATM   14  C   UNL     1      43.058 -14.365   4.448  1.00  0.00     0.041 A 
HETATM   15  C   UNL     1      43.647 -16.131   5.898  1.00  0.00     0.144 A 
HETATM   16  N   UNL     1      43.166 -15.508   3.674  1.00  0.00    -0.326 N 
HETATM   17  C   UNL     1      42.732 -13.093   4.037  1.00  0.00     0.032 A 
HETATM   18  C   UNL     1      43.513 -16.609   4.447  1.00  0.00     0.226 A 
HETATM   19  H   UNL     1      43.018 -15.566   2.678  1.00  0.00     0.169 HD
HETATM   20  O   UNL     1      43.677 -17.744   4.033  1.00  0.00    -0.273 OA
HETATM   21  C   UNL     1      42.689 -12.096   5.019  1.00  0.00     0.032 A 
ENDBRANCH   6  11
BRANCH   1  22
HETATM   22  C   UNL     1      42.513  -7.096  11.413  1.00  0.00     0.068 A 
HETATM   23  N   UNL     1      42.284  -6.380  12.548  1.00  0.00    -0.262 NA
HETATM   24  C   UNL     1      42.270  -5.030  12.464  1.00  0.00     0.123 A 
HETATM   25  C   UNL     1      42.480  -4.322  11.292  1.00  0.00    -0.044 A 
HETATM   26  C   UNL     1      42.500  -2.827  11.274  1.00  0.00     0.049 C 
HETATM   27  C   UNL     1      42.750  -5.062  10.144  1.00  0.00     0.010 A 
HETATM   28  C   UNL     1      42.773  -6.456  10.203  1.00  0.00     0.031 A 
ENDBRANCH   1  22
BRANCH   1  29
HETATM   29  O   UNL     1      42.200  -8.862  12.968  1.00  0.00    -0.383 OA
HETATM   30  H   UNL     1      41.401  -9.422  12.903  1.00  0.00     0.211 HD
ENDBRANCH   1  29
TORSDOF 3
ENDMDL
