MODEL 1
REMARK VINA RESULT:      -8.8      0.000      0.000
REMARK  9 active torsions:
REMARK  status: ('A' for Active; 'I' for Inactive)
REMARK    1  A    between atoms: N_4  and  C_5 
REMARK    2  A    between atoms: C_13  and  C_14 
REMARK    3  A    between atoms: C_15  and  C_16 
REMARK       I    between atoms: C_16  and  N_17 
REMARK    4  A    between atoms: N_17  and  C_18 
REMARK    5  A    between atoms: C_18  and  C_19 
REMARK    6  A    between atoms: C_19  and  N_20 
REMARK    7  A    between atoms: C_21  and  O_22 
REMARK    8  A    between atoms: C_21  and  C_23 
REMARK    9  A    between atoms: C_28  and  O_29 
ROOT
HETATM    1  C   UNL     1      43.997 -11.688   7.253  1.00  0.00     0.241 C 
HETATM    2  N   UNL     1      43.523 -10.488   6.793  1.00  0.00    -0.356 N 
HETATM    3  O   UNL     1      44.305 -11.902   8.420  1.00  0.00    -0.269 OA
HETATM    4  H   UNL     1      43.127 -10.398   5.866  1.00  0.00     0.162 HD
ENDROOT
BRANCH   1   5
HETATM    5  C   UNL     1      44.113 -12.723   6.196  1.00  0.00     0.075 C 
HETATM    6  C   UNL     1      43.163 -13.669   6.115  1.00  0.00     0.021 C 
BRANCH   6   7
HETATM    7  C   UNL     1      43.123 -14.775   5.213  1.00  0.00     0.014 C 
HETATM    8  C   UNL     1      42.510 -14.919   3.950  1.00  0.00     0.063 C 
HETATM    9  C   UNL     1      41.691 -13.950   3.179  1.00  0.00     0.073 C 
HETATM   10  N   UNL     1      42.751 -16.123   3.426  1.00  0.00    -0.171 NA
HETATM   11  N   UNL     1      43.404 -16.822   4.395  1.00  0.00    -0.237 N 
HETATM   12  C   UNL     1      43.755 -15.986   5.452  1.00  0.00     0.045 C 
HETATM   13  C   UNL     1      44.694 -16.344   6.552  1.00  0.00     0.071 C 
BRANCH  11  14
HETATM   14  C   UNL     1      43.620 -18.223   4.205  1.00  0.00     0.058 A 
HETATM   15  C   UNL     1      43.519 -18.757   2.909  1.00  0.00     0.031 A 
HETATM   16  C   UNL     1      43.723 -20.121   2.682  1.00  0.00     0.002 A 
HETATM   17  C   UNL     1      44.013 -20.970   3.747  1.00  0.00     0.000 A 
HETATM   18  C   UNL     1      44.087 -20.458   5.039  1.00  0.00     0.002 A 
HETATM   19  C   UNL     1      43.886 -19.092   5.271  1.00  0.00     0.031 A 
ENDBRANCH  11  14
ENDBRANCH   6   7
ENDBRANCH   1   5
BRANCH   2  20
HETATM   20  C   UNL     1      43.254  -9.390   7.702  1.00  0.00     0.144 C 
BRANCH  20  21
HETATM   21  C   UNL     1      41.859  -9.500   8.321  1.00  0.00     0.171 C 
BRANCH  21  22
HETATM   22  N   UNL     1      41.862  -8.851   9.630  1.00  0.00    -0.263 NA
HETATM   23  C   UNL     1      42.280  -9.475  10.672  1.00  0.00     0.189 C 
BRANCH  23  24
HETATM   24  O   UNL     1      42.794 -10.724  10.626  1.00  0.00    -0.343 OA
HETATM   25  H   UNL     1      42.306 -11.306  10.032  1.00  0.00     0.219 HD
ENDBRANCH  23  24
BRANCH  23  26
HETATM   26  C   UNL     1      42.261  -8.945  12.076  1.00  0.00     0.141 A 
HETATM   27  N   UNL     1      43.081  -7.876  12.310  1.00  0.00    -0.254 NA
HETATM   28  C   UNL     1      43.122  -7.379  13.563  1.00  0.00     0.117 A 
HETATM   29  C   UNL     1      42.384  -7.890  14.614  1.00  0.00     0.022 A 
HETATM   30  C   UNL     1      41.548  -8.976  14.369  1.00  0.00     0.040 A 
HETATM   31  C   UNL     1      41.479  -9.517  13.084  1.00  0.00     0.098 A 
BRANCH  31  32
HETATM   32  O   UNL     1      40.655 -10.585  12.867  1.00  0.00    -0.358 OA
HETATM   33  H   UNL     1      39.741 -10.348  13.091  1.00  0.00     0.218 HD
ENDBRANCH  31  32
ENDBRANCH  23  26
ENDBRANCH  21  22
ENDBRANCH  20  21
ENDBRANCH   2  20
TORSDOF 9
ENDMDL
MODEL 2
REMARK VINA RESULT:      -8.7      5.502      9.628
REMARK  9 active torsions:
REMARK  status: ('A' for Active; 'I' for Inactive)
REMARK    1  A    between atoms: N_4  and  C_5 
REMARK    2  A    between atoms: C_13  and  C_14 
REMARK    3  A    between atoms: C_15  and  C_16 
REMARK       I    between atoms: C_16  and  N_17 
REMARK    4  A    between atoms: N_17  and  C_18 
REMARK    5  A    between atoms: C_18  and  C_19 
REMARK    6  A    between atoms: C_19  and  N_20 
REMARK    7  A    between atoms: C_21  and  O_22 
REMARK    8  A    between atoms: C_21  and  C_23 
REMARK    9  A    between atoms: C_28  and  O_29 
ROOT
HETATM    1  C   UNL     1      41.138 -15.265   6.306  1.00  0.00     0.241 C 
HETATM    2  N   UNL     1      42.467 -15.136   6.609  1.00  0.00    -0.356 N 
HETATM    3  O   UNL     1      40.351 -15.948   6.950  1.00  0.00    -0.269 OA
HETATM    4  H   UNL     1      43.046 -14.440   6.157  1.00  0.00     0.162 HD
ENDROOT
BRANCH   1   5
HETATM    5  C   UNL     1      40.728 -14.499   5.102  1.00  0.00     0.075 C 
HETATM    6  C   UNL     1      41.429 -14.661   3.969  1.00  0.00     0.021 C 
BRANCH   6   7
HETATM    7  C   UNL     1      41.232 -13.979   2.729  1.00  0.00     0.014 C 
HETATM    8  C   UNL     1      41.715 -12.736   2.268  1.00  0.00     0.063 C 
HETATM    9  C   UNL     1      42.571 -11.738   2.958  1.00  0.00     0.073 C 
HETATM   10  N   UNL     1      41.311 -12.489   1.020  1.00  0.00    -0.171 NA
HETATM   11  N   UNL     1      40.454 -13.499   0.704  1.00  0.00    -0.237 N 
HETATM   12  C   UNL     1      40.481 -14.490   1.681  1.00  0.00     0.045 C 
HETATM   13  C   UNL     1      39.876 -15.845   1.544  1.00  0.00     0.071 C 
BRANCH  11  14
HETATM   14  C   UNL     1      39.695 -13.404  -0.505  1.00  0.00     0.058 A 
HETATM   15  C   UNL     1      38.631 -12.487  -0.569  1.00  0.00     0.031 A 
HETATM   16  C   UNL     1      37.865 -12.363  -1.732  1.00  0.00     0.002 A 
HETATM   17  C   UNL     1      38.141 -13.165  -2.837  1.00  0.00     0.000 A 
HETATM   18  C   UNL     1      39.174 -14.096  -2.776  1.00  0.00     0.002 A 
HETATM   19  C   UNL     1      39.945 -14.221  -1.614  1.00  0.00     0.031 A 
ENDBRANCH  11  14
ENDBRANCH   6   7
ENDBRANCH   1   5
BRANCH   2  20
HETATM   20  C   UNL     1      43.025 -15.737   7.806  1.00  0.00     0.144 C 
BRANCH  20  21
HETATM   21  C   UNL     1      44.272 -16.566   7.492  1.00  0.00     0.171 C 
BRANCH  21  22
HETATM   22  N   UNL     1      44.180 -17.071   6.124  1.00  0.00    -0.263 NA
HETATM   23  C   UNL     1      43.759 -18.262   5.891  1.00  0.00     0.189 C 
BRANCH  23  24
HETATM   24  O   UNL     1      43.321 -19.092   6.863  1.00  0.00    -0.343 OA
HETATM   25  H   UNL     1      42.713 -18.662   7.474  1.00  0.00     0.219 HD
ENDBRANCH  23  24
BRANCH  23  26
HETATM   26  C   UNL     1      43.691 -18.918   4.542  1.00  0.00     0.141 A 
HETATM   27  N   UNL     1      43.258 -18.118   3.522  1.00  0.00    -0.254 NA
HETATM   28  C   UNL     1      43.153 -18.668   2.296  1.00  0.00     0.117 A 
HETATM   29  C   UNL     1      43.459 -19.987   2.018  1.00  0.00     0.022 A 
HETATM   30  C   UNL     1      43.904 -20.796   3.060  1.00  0.00     0.040 A 
HETATM   31  C   UNL     1      44.025 -20.262   4.344  1.00  0.00     0.098 A 
BRANCH  31  32
HETATM   32  O   UNL     1      44.460 -21.075   5.353  1.00  0.00    -0.358 OA
HETATM   33  H   UNL     1      44.173 -21.987   5.189  1.00  0.00     0.218 HD
ENDBRANCH  31  32
ENDBRANCH  23  26
ENDBRANCH  21  22
ENDBRANCH  20  21
ENDBRANCH   2  20
TORSDOF 9
ENDMDL
MODEL 3
REMARK VINA RESULT:      -8.7      2.481      3.927
REMARK  9 active torsions:
REMARK  status: ('A' for Active; 'I' for Inactive)
REMARK    1  A    between atoms: N_4  and  C_5 
REMARK    2  A    between atoms: C_13  and  C_14 
REMARK    3  A    between atoms: C_15  and  C_16 
REMARK       I    between atoms: C_16  and  N_17 
REMARK    4  A    between atoms: N_17  and  C_18 
REMARK    5  A    between atoms: C_18  and  C_19 
REMARK    6  A    between atoms: C_19  and  N_20 
REMARK    7  A    between atoms: C_21  and  O_22 
REMARK    8  A    between atoms: C_21  and  C_23 
REMARK    9  A    between atoms: C_28  and  O_29 
ROOT
HETATM    1  C   UNL     1      39.053 -11.236   6.572  1.00  0.00     0.241 C 
HETATM    2  N   UNL     1      39.775 -10.762   7.635  1.00  0.00    -0.356 N 
HETATM    3  O   UNL     1      37.847 -11.074   6.436  1.00  0.00    -0.269 OA
HETATM    4  H   UNL     1      40.787 -10.773   7.632  1.00  0.00     0.162 HD
ENDROOT
BRANCH   1   5
HETATM    5  C   UNL     1      39.873 -11.985   5.587  1.00  0.00     0.075 C 
HETATM    6  C   UNL     1      40.795 -12.848   6.042  1.00  0.00     0.021 C 
BRANCH   6   7
HETATM    7  C   UNL     1      41.714 -13.616   5.264  1.00  0.00     0.014 C 
HETATM    8  C   UNL     1      42.654 -13.224   4.285  1.00  0.00     0.063 C 
HETATM    9  C   UNL     1      42.954 -11.872   3.749  1.00  0.00     0.073 C 
HETATM   10  N   UNL     1      43.342 -14.270   3.825  1.00  0.00    -0.171 NA
HETATM   11  N   UNL     1      42.770 -15.367   4.394  1.00  0.00    -0.237 N 
HETATM   12  C   UNL     1      41.854 -14.991   5.373  1.00  0.00     0.045 C 
HETATM   13  C   UNL     1      41.238 -15.912   6.369  1.00  0.00     0.071 C 
BRANCH  11  14
HETATM   14  C   UNL     1      43.162 -16.664   3.935  1.00  0.00     0.058 A 
HETATM   15  C   UNL     1      42.673 -17.123   2.699  1.00  0.00     0.031 A 
HETATM   16  C   UNL     1      43.032 -18.385   2.215  1.00  0.00     0.002 A 
HETATM   17  C   UNL     1      43.869 -19.208   2.966  1.00  0.00     0.000 A 
HETATM   18  C   UNL     1      44.336 -18.775   4.203  1.00  0.00     0.002 A 
HETATM   19  C   UNL     1      43.981 -17.511   4.691  1.00  0.00     0.031 A 
ENDBRANCH  11  14
ENDBRANCH   6   7
ENDBRANCH   1   5
BRANCH   2  20
HETATM   20  C   UNL     1      39.157  -9.926   8.648  1.00  0.00     0.144 C 
BRANCH  20  21
HETATM   21  C   UNL     1      40.202  -9.139   9.442  1.00  0.00     0.171 C 
BRANCH  21  22
HETATM   22  N   UNL     1      41.490  -9.225   8.757  1.00  0.00    -0.263 NA
HETATM   23  C   UNL     1      42.502  -9.773   9.329  1.00  0.00     0.189 C 
BRANCH  23  24
HETATM   24  O   UNL     1      42.435 -10.352  10.548  1.00  0.00    -0.343 OA
HETATM   25  H   UNL     1      43.290 -10.382  10.992  1.00  0.00     0.219 HD
ENDBRANCH  23  24
BRANCH  23  26
HETATM   26  C   UNL     1      43.890  -9.854   8.762  1.00  0.00     0.141 A 
HETATM   27  N   UNL     1      44.626  -8.704   8.847  1.00  0.00    -0.254 NA
HETATM   28  C   UNL     1      45.869  -8.716   8.327  1.00  0.00     0.117 A 
HETATM   29  C   UNL     1      46.435  -9.821   7.718  1.00  0.00     0.022 A 
HETATM   30  C   UNL     1      45.682 -10.989   7.638  1.00  0.00     0.040 A 
HETATM   31  C   UNL     1      44.390 -11.015   8.165  1.00  0.00     0.098 A 
BRANCH  31  32
HETATM   32  O   UNL     1      43.668 -12.172   8.072  1.00  0.00    -0.358 OA
HETATM   33  H   UNL     1      42.720 -11.973   8.118  1.00  0.00     0.218 HD
ENDBRANCH  31  32
ENDBRANCH  23  26
ENDBRANCH  21  22
ENDBRANCH  20  21
ENDBRANCH   2  20
TORSDOF 9
ENDMDL
MODEL 4
REMARK VINA RESULT:      -8.5      5.471      9.103
REMARK  9 active torsions:
REMARK  status: ('A' for Active; 'I' for Inactive)
REMARK    1  A    between atoms: N_4  and  C_5 
REMARK    2  A    between atoms: C_13  and  C_14 
REMARK    3  A    between atoms: C_15  and  C_16 
REMARK       I    between atoms: C_16  and  N_17 
REMARK    4  A    between atoms: N_17  and  C_18 
REMARK    5  A    between atoms: C_18  and  C_19 
REMARK    6  A    between atoms: C_19  and  N_20 
REMARK    7  A    between atoms: C_21  and  O_22 
REMARK    8  A    between atoms: C_21  and  C_23 
REMARK    9  A    between atoms: C_28  and  O_29 
ROOT
HETATM    1  C   UNL     1      42.450 -11.039   3.315  1.00  0.00     0.241 C 
HETATM    2  N   UNL     1      41.871 -11.092   2.075  1.00  0.00    -0.356 N 
HETATM    3  O   UNL     1      42.453 -10.044   4.029  1.00  0.00    -0.269 OA
HETATM    4  H   UNL     1      41.745 -11.970   1.589  1.00  0.00     0.162 HD
ENDROOT
BRANCH   1   5
HETATM    5  C   UNL     1      43.091 -12.314   3.723  1.00  0.00     0.075 C 
HETATM    6  C   UNL     1      42.325 -13.410   3.842  1.00  0.00     0.021 C 
BRANCH   6   7
HETATM    7  C   UNL     1      42.737 -14.707   4.273  1.00  0.00     0.014 C 
HETATM    8  C   UNL     1      43.350 -15.135   5.471  1.00  0.00     0.063 C 
HETATM    9  C   UNL     1      43.775 -14.341   6.652  1.00  0.00     0.073 C 
HETATM   10  N   UNL     1      43.536 -16.456   5.478  1.00  0.00    -0.171 NA
HETATM   11  N   UNL     1      43.175 -16.886   4.237  1.00  0.00    -0.237 N 
HETATM   12  C   UNL     1      42.566 -15.859   3.520  1.00  0.00     0.045 C 
HETATM   13  C   UNL     1      41.820 -16.032   2.242  1.00  0.00     0.071 C 
BRANCH  11  14
HETATM   14  C   UNL     1      43.456 -18.239   3.869  1.00  0.00     0.058 A 
HETATM   15  C   UNL     1      43.257 -18.636   2.535  1.00  0.00     0.031 A 
HETATM   16  C   UNL     1      43.520 -19.949   2.135  1.00  0.00     0.002 A 
HETATM   17  C   UNL     1      43.969 -20.884   3.063  1.00  0.00     0.000 A 
HETATM   18  C   UNL     1      44.143 -20.510   4.393  1.00  0.00     0.002 A 
HETATM   19  C   UNL     1      43.883 -19.196   4.797  1.00  0.00     0.031 A 
ENDBRANCH  11  14
ENDBRANCH   6   7
ENDBRANCH   1   5
BRANCH   2  20
HETATM   20  C   UNL     1      41.114  -9.969   1.553  1.00  0.00     0.144 C 
BRANCH  20  21
HETATM   21  C   UNL     1      39.611 -10.251   1.557  1.00  0.00     0.171 C 
BRANCH  21  22
HETATM   22  N   UNL     1      39.242 -10.907   0.305  1.00  0.00    -0.263 NA
HETATM   23  C   UNL     1      39.091 -12.182   0.251  1.00  0.00     0.189 C 
BRANCH  23  24
HETATM   24  O   UNL     1      39.195 -12.983   1.334  1.00  0.00    -0.343 OA
HETATM   25  H   UNL     1      38.386 -13.011   1.855  1.00  0.00     0.219 HD
ENDBRANCH  23  24
BRANCH  23  26
HETATM   26  C   UNL     1      38.790 -12.976  -0.988  1.00  0.00     0.141 A 
HETATM   27  N   UNL     1      37.650 -12.616  -1.652  1.00  0.00    -0.254 NA
HETATM   28  C   UNL     1      37.320 -13.317  -2.755  1.00  0.00     0.117 A 
HETATM   29  C   UNL     1      38.068 -14.371  -3.246  1.00  0.00     0.022 A 
HETATM   30  C   UNL     1      39.230 -14.730  -2.568  1.00  0.00     0.040 A 
HETATM   31  C   UNL     1      39.604 -14.027  -1.421  1.00  0.00     0.098 A 
BRANCH  31  32
HETATM   32  O   UNL     1      40.746 -14.398  -0.769  1.00  0.00    -0.358 OA
HETATM   33  H   UNL     1      41.227 -13.611  -0.471  1.00  0.00     0.218 HD
ENDBRANCH  31  32
ENDBRANCH  23  26
ENDBRANCH  21  22
ENDBRANCH  20  21
ENDBRANCH   2  20
TORSDOF 9
ENDMDL
MODEL 5
REMARK VINA RESULT:      -8.4      2.129      2.767
REMARK  9 active torsions:
REMARK  status: ('A' for Active; 'I' for Inactive)
REMARK    1  A    between atoms: N_4  and  C_5 
REMARK    2  A    between atoms: C_13  and  C_14 
REMARK    3  A    between atoms: C_15  and  C_16 
REMARK       I    between atoms: C_16  and  N_17 
REMARK    4  A    between atoms: N_17  and  C_18 
REMARK    5  A    between atoms: C_18  and  C_19 
REMARK    6  A    between atoms: C_19  and  N_20 
REMARK    7  A    between atoms: C_21  and  O_22 
REMARK    8  A    between atoms: C_21  and  C_23 
REMARK    9  A    between atoms: C_28  and  O_29 
ROOT
HETATM    1  C   UNL     1      39.871 -11.631   6.534  1.00  0.00     0.241 C 
HETATM    2  N   UNL     1      40.262 -10.630   7.382  1.00  0.00    -0.356 N 
HETATM    3  O   UNL     1      38.703 -11.885   6.264  1.00  0.00    -0.269 OA
HETATM    4  H   UNL     1      41.230 -10.346   7.452  1.00  0.00     0.162 HD
ENDROOT
BRANCH   1   5
HETATM    5  C   UNL     1      41.006 -12.401   5.965  1.00  0.00     0.075 C 
HETATM    6  C   UNL     1      40.746 -13.332   5.033  1.00  0.00     0.021 C 
BRANCH   6   7
HETATM    7  C   UNL     1      41.684 -14.210   4.408  1.00  0.00     0.014 C 
HETATM    8  C   UNL     1      42.703 -13.959   3.464  1.00  0.00     0.063 C 
HETATM    9  C   UNL     1      43.095 -12.684   2.811  1.00  0.00     0.073 C 
HETATM   10  N   UNL     1      43.377 -15.072   3.167  1.00  0.00    -0.171 NA
HETATM   11  N   UNL     1      42.723 -16.080   3.807  1.00  0.00    -0.237 N 
HETATM   12  C   UNL     1      41.758 -15.569   4.672  1.00  0.00     0.045 C 
HETATM   13  C   UNL     1      41.039 -16.356   5.713  1.00  0.00     0.071 C 
BRANCH  11  14
HETATM   14  C   UNL     1      43.090 -17.432   3.516  1.00  0.00     0.058 A 
HETATM   15  C   UNL     1      43.897 -18.129   4.432  1.00  0.00     0.031 A 
HETATM   16  C   UNL     1      44.278 -19.451   4.185  1.00  0.00     0.002 A 
HETATM   17  C   UNL     1      43.872 -20.086   3.013  1.00  0.00     0.000 A 
HETATM   18  C   UNL     1      43.097 -19.397   2.086  1.00  0.00     0.002 A 
HETATM   19  C   UNL     1      42.711 -18.074   2.331  1.00  0.00     0.031 A 
ENDBRANCH  11  14
ENDBRANCH   6   7
ENDBRANCH   1   5
BRANCH   2  20
HETATM   20  C   UNL     1      39.294  -9.714   7.956  1.00  0.00     0.144 C 
BRANCH  20  21
HETATM   21  C   UNL     1      39.006 -10.044   9.422  1.00  0.00     0.171 C 
BRANCH  21  22
HETATM   22  N   UNL     1      40.048  -9.453  10.260  1.00  0.00    -0.263 NA
HETATM   23  C   UNL     1      40.022  -9.594  11.537  1.00  0.00     0.189 C 
BRANCH  23  24
HETATM   24  O   UNL     1      39.091 -10.334  12.178  1.00  0.00    -0.343 OA
HETATM   25  H   UNL     1      38.372  -9.800  12.534  1.00  0.00     0.219 HD
ENDBRANCH  23  24
BRANCH  23  26
HETATM   26  C   UNL     1      40.987  -8.974  12.505  1.00  0.00     0.141 A 
HETATM   27  N   UNL     1      40.522  -8.825  13.783  1.00  0.00    -0.254 NA
HETATM   28  C   UNL     1      41.340  -8.248  14.685  1.00  0.00     0.117 A 
HETATM   29  C   UNL     1      42.615  -7.803  14.388  1.00  0.00     0.022 A 
HETATM   30  C   UNL     1      43.085  -7.960  13.088  1.00  0.00     0.040 A 
HETATM   31  C   UNL     1      42.266  -8.554  12.126  1.00  0.00     0.098 A 
BRANCH  31  32
HETATM   32  O   UNL     1      42.746  -8.695  10.854  1.00  0.00    -0.358 OA
HETATM   33  H   UNL     1      43.285  -9.500  10.792  1.00  0.00     0.218 HD
ENDBRANCH  31  32
ENDBRANCH  23  26
ENDBRANCH  21  22
ENDBRANCH  20  21
ENDBRANCH   2  20
TORSDOF 9
ENDMDL
MODEL 6
REMARK VINA RESULT:      -8.0      2.364      3.403
REMARK  9 active torsions:
REMARK  status: ('A' for Active; 'I' for Inactive)
REMARK    1  A    between atoms: N_4  and  C_5 
REMARK    2  A    between atoms: C_13  and  C_14 
REMARK    3  A    between atoms: C_15  and  C_16 
REMARK       I    between atoms: C_16  and  N_17 
REMARK    4  A    between atoms: N_17  and  C_18 
REMARK    5  A    between atoms: C_18  and  C_19 
REMARK    6  A    between atoms: C_19  and  N_20 
REMARK    7  A    between atoms: C_21  and  O_22 
REMARK    8  A    between atoms: C_21  and  C_23 
REMARK    9  A    between atoms: C_28  and  O_29 
ROOT
HETATM    1  C   UNL     1      39.505 -11.393   6.011  1.00  0.00     0.241 C 
HETATM    2  N   UNL     1      39.896 -10.083   5.922  1.00  0.00    -0.356 N 
HETATM    3  O   UNL     1      38.446 -11.760   6.505  1.00  0.00    -0.269 OA
HETATM    4  H   UNL     1      40.694  -9.808   5.364  1.00  0.00     0.162 HD
ENDROOT
BRANCH   1   5
HETATM    5  C   UNL     1      40.497 -12.346   5.453  1.00  0.00     0.075 C 
HETATM    6  C   UNL     1      40.984 -13.307   6.254  1.00  0.00     0.021 C 
BRANCH   6   7
HETATM    7  C   UNL     1      41.979 -14.278   5.928  1.00  0.00     0.014 C 
HETATM    8  C   UNL     1      43.381 -14.260   6.093  1.00  0.00     0.063 C 
HETATM    9  C   UNL     1      44.255 -13.195   6.646  1.00  0.00     0.073 C 
HETATM   10  N   UNL     1      43.934 -15.401   5.679  1.00  0.00    -0.171 NA
HETATM   11  N   UNL     1      42.923 -16.119   5.116  1.00  0.00    -0.237 N 
HETATM   12  C   UNL     1      41.694 -15.513   5.364  1.00  0.00     0.045 C 
HETATM   13  C   UNL     1      40.365 -16.143   5.127  1.00  0.00     0.071 C 
BRANCH  11  14
HETATM   14  C   UNL     1      43.244 -17.312   4.395  1.00  0.00     0.058 A 
HETATM   15  C   UNL     1      42.877 -17.407   3.041  1.00  0.00     0.031 A 
HETATM   16  C   UNL     1      43.173 -18.556   2.301  1.00  0.00     0.002 A 
HETATM   17  C   UNL     1      43.821 -19.628   2.908  1.00  0.00     0.000 A 
HETATM   18  C   UNL     1      44.164 -19.557   4.255  1.00  0.00     0.002 A 
HETATM   19  C   UNL     1      43.872 -18.407   4.999  1.00  0.00     0.031 A 
ENDBRANCH  11  14
ENDBRANCH   6   7
ENDBRANCH   1   5
BRANCH   2  20
HETATM   20  C   UNL     1      39.011  -9.008   6.329  1.00  0.00     0.144 C 
BRANCH  20  21
HETATM   21  C   UNL     1      39.573  -8.237   7.525  1.00  0.00     0.171 C 
BRANCH  21  22
HETATM   22  N   UNL     1      40.981  -8.587   7.702  1.00  0.00    -0.263 NA
HETATM   23  C   UNL     1      41.481  -8.726   8.877  1.00  0.00     0.189 C 
BRANCH  23  24
HETATM   24  O   UNL     1      40.746  -8.623  10.007  1.00  0.00    -0.343 OA
HETATM   25  H   UNL     1      40.340  -7.755  10.110  1.00  0.00     0.219 HD
ENDBRANCH  23  24
BRANCH  23  26
HETATM   26  C   UNL     1      42.922  -9.007   9.188  1.00  0.00     0.141 A 
HETATM   27  N   UNL     1      43.829  -8.389   8.372  1.00  0.00    -0.254 NA
HETATM   28  C   UNL     1      45.137  -8.632   8.592  1.00  0.00     0.117 A 
HETATM   29  C   UNL     1      45.605  -9.465   9.592  1.00  0.00     0.022 A 
HETATM   30  C   UNL     1      44.677 -10.088  10.421  1.00  0.00     0.040 A 
HETATM   31  C   UNL     1      43.314  -9.861  10.224  1.00  0.00     0.098 A 
BRANCH  31  32
HETATM   32  O   UNL     1      42.420 -10.486  11.048  1.00  0.00    -0.358 OA
HETATM   33  H   UNL     1      41.613 -10.704  10.555  1.00  0.00     0.218 HD
ENDBRANCH  31  32
ENDBRANCH  23  26
ENDBRANCH  21  22
ENDBRANCH  20  21
ENDBRANCH   2  20
TORSDOF 9
ENDMDL
MODEL 7
REMARK VINA RESULT:      -7.9      2.275      2.899
REMARK  9 active torsions:
REMARK  status: ('A' for Active; 'I' for Inactive)
REMARK    1  A    between atoms: N_4  and  C_5 
REMARK    2  A    between atoms: C_13  and  C_14 
REMARK    3  A    between atoms: C_15  and  C_16 
REMARK       I    between atoms: C_16  and  N_17 
REMARK    4  A    between atoms: N_17  and  C_18 
REMARK    5  A    between atoms: C_18  and  C_19 
REMARK    6  A    between atoms: C_19  and  N_20 
REMARK    7  A    between atoms: C_21  and  O_22 
REMARK    8  A    between atoms: C_21  and  C_23 
REMARK    9  A    between atoms: C_28  and  O_29 
ROOT
HETATM    1  C   UNL     1      39.960 -11.532   6.236  1.00  0.00     0.241 C 
HETATM    2  N   UNL     1      40.124 -10.173   6.184  1.00  0.00    -0.356 N 
HETATM    3  O   UNL     1      38.992 -12.088   6.741  1.00  0.00    -0.269 OA
HETATM    4  H   UNL     1      40.849  -9.751   5.619  1.00  0.00     0.162 HD
ENDROOT
BRANCH   1   5
HETATM    5  C   UNL     1      41.082 -12.287   5.624  1.00  0.00     0.075 C 
HETATM    6  C   UNL     1      40.809 -13.435   4.983  1.00  0.00     0.021 C 
BRANCH   6   7
HETATM    7  C   UNL     1      41.746 -14.329   4.381  1.00  0.00     0.014 C 
HETATM    8  C   UNL     1      42.787 -14.096   3.456  1.00  0.00     0.063 C 
HETATM    9  C   UNL     1      43.210 -12.830   2.806  1.00  0.00     0.073 C 
HETATM   10  N   UNL     1      43.451 -15.220   3.178  1.00  0.00    -0.171 NA
HETATM   11  N   UNL     1      42.770 -16.216   3.808  1.00  0.00    -0.237 N 
HETATM   12  C   UNL     1      41.796 -15.688   4.652  1.00  0.00     0.045 C 
HETATM   13  C   UNL     1      41.044 -16.460   5.681  1.00  0.00     0.071 C 
BRANCH  11  14
HETATM   14  C   UNL     1      43.123 -17.575   3.530  1.00  0.00     0.058 A 
HETATM   15  C   UNL     1      43.873 -18.289   4.480  1.00  0.00     0.031 A 
HETATM   16  C   UNL     1      44.239 -19.618   4.246  1.00  0.00     0.002 A 
HETATM   17  C   UNL     1      43.875 -20.243   3.056  1.00  0.00     0.000 A 
HETATM   18  C   UNL     1      43.157 -19.536   2.096  1.00  0.00     0.002 A 
HETATM   19  C   UNL     1      42.787 -18.206   2.327  1.00  0.00     0.031 A 
ENDBRANCH  11  14
ENDBRANCH   6   7
ENDBRANCH   1   5
BRANCH   2  20
HETATM   20  C   UNL     1      39.083  -9.275   6.648  1.00  0.00     0.144 C 
BRANCH  20  21
HETATM   21  C   UNL     1      39.670  -8.037   7.330  1.00  0.00     0.171 C 
BRANCH  21  22
HETATM   22  N   UNL     1      40.375  -8.448   8.542  1.00  0.00    -0.263 NA
HETATM   23  C   UNL     1      39.734  -8.662   9.635  1.00  0.00     0.189 C 
BRANCH  23  24
HETATM   24  O   UNL     1      38.387  -8.589   9.725  1.00  0.00    -0.343 OA
HETATM   25  H   UNL     1      38.007  -9.324  10.218  1.00  0.00     0.219 HD
ENDBRANCH  23  24
BRANCH  23  26
HETATM   26  C   UNL     1      40.350  -9.012  10.958  1.00  0.00     0.141 A 
HETATM   27  N   UNL     1      39.635  -8.627  12.058  1.00  0.00    -0.254 NA
HETATM   28  C   UNL     1      40.160  -8.893  13.271  1.00  0.00     0.117 A 
HETATM   29  C   UNL     1      41.373  -9.530  13.459  1.00  0.00     0.022 A 
HETATM   30  C   UNL     1      42.094  -9.923  12.335  1.00  0.00     0.040 A 
HETATM   31  C   UNL     1      41.583  -9.664  11.062  1.00  0.00     0.098 A 
BRANCH  31  32
HETATM   32  O   UNL     1      42.310 -10.055   9.973  1.00  0.00    -0.358 OA
HETATM   33  H   UNL     1      42.407 -11.021   9.970  1.00  0.00     0.218 HD
ENDBRANCH  31  32
ENDBRANCH  23  26
ENDBRANCH  21  22
ENDBRANCH  20  21
ENDBRANCH   2  20
TORSDOF 9
ENDMDL
MODEL 8
REMARK VINA RESULT:      -7.8      2.509      3.526
REMARK  9 active torsions:
REMARK  status: ('A' for Active; 'I' for Inactive)
REMARK    1  A    between atoms: N_4  and  C_5 
REMARK    2  A    between atoms: C_13  and  C_14 
REMARK    3  A    between atoms: C_15  and  C_16 
REMARK       I    between atoms: C_16  and  N_17 
REMARK    4  A    between atoms: N_17  and  C_18 
REMARK    5  A    between atoms: C_18  and  C_19 
REMARK    6  A    between atoms: C_19  and  N_20 
REMARK    7  A    between atoms: C_21  and  O_22 
REMARK    8  A    between atoms: C_21  and  C_23 
REMARK    9  A    between atoms: C_28  and  O_29 
ROOT
HETATM    1  C   UNL     1      39.146 -10.465   6.320  1.00  0.00     0.241 C 
HETATM    2  N   UNL     1      39.948  -9.368   6.490  1.00  0.00    -0.356 N 
HETATM    3  O   UNL     1      37.931 -10.410   6.168  1.00  0.00    -0.269 OA
HETATM    4  H   UNL     1      40.956  -9.441   6.447  1.00  0.00     0.162 HD
ENDROOT
BRANCH   1   5
HETATM    5  C   UNL     1      39.888 -11.750   6.343  1.00  0.00     0.075 C 
HETATM    6  C   UNL     1      41.125 -11.787   5.822  1.00  0.00     0.021 C 
BRANCH   6   7
HETATM    7  C   UNL     1      41.974 -12.929   5.698  1.00  0.00     0.014 C 
HETATM    8  C   UNL     1      43.206 -13.239   6.313  1.00  0.00     0.063 C 
HETATM    9  C   UNL     1      44.011 -12.442   7.273  1.00  0.00     0.073 C 
HETATM   10  N   UNL     1      43.649 -14.440   5.937  1.00  0.00    -0.171 NA
HETATM   11  N   UNL     1      42.786 -14.867   4.975  1.00  0.00    -0.237 N 
HETATM   12  C   UNL     1      41.682 -14.021   4.895  1.00  0.00     0.045 C 
HETATM   13  C   UNL     1      40.429 -14.317   4.146  1.00  0.00     0.071 C 
BRANCH  11  14
HETATM   14  C   UNL     1      43.114 -16.043   4.229  1.00  0.00     0.058 A 
HETATM   15  C   UNL     1      43.646 -17.152   4.908  1.00  0.00     0.031 A 
HETATM   16  C   UNL     1      43.979 -18.320   4.215  1.00  0.00     0.002 A 
HETATM   17  C   UNL     1      43.800 -18.387   2.836  1.00  0.00     0.000 A 
HETATM   18  C   UNL     1      43.300 -17.285   2.149  1.00  0.00     0.002 A 
HETATM   19  C   UNL     1      42.963 -16.115   2.839  1.00  0.00     0.031 A 
ENDBRANCH  11  14
ENDBRANCH   6   7
ENDBRANCH   1   5
BRANCH   2  20
HETATM   20  C   UNL     1      39.408  -8.024   6.399  1.00  0.00     0.144 C 
BRANCH  20  21
HETATM   21  C   UNL     1      38.992  -7.491   7.772  1.00  0.00     0.171 C 
BRANCH  21  22
HETATM   22  N   UNL     1      39.970  -7.919   8.769  1.00  0.00    -0.263 NA
HETATM   23  C   UNL     1      39.629  -8.703   9.729  1.00  0.00     0.189 C 
BRANCH  23  24
HETATM   24  O   UNL     1      38.389  -9.227   9.848  1.00  0.00    -0.343 OA
HETATM   25  H   UNL     1      37.707  -8.552   9.933  1.00  0.00     0.219 HD
ENDBRANCH  23  24
BRANCH  23  26
HETATM   26  C   UNL     1      40.520  -9.150  10.852  1.00  0.00     0.141 A 
HETATM   27  N   UNL     1      41.799  -9.473  10.493  1.00  0.00    -0.254 NA
HETATM   28  C   UNL     1      42.631  -9.907  11.461  1.00  0.00     0.117 A 
HETATM   29  C   UNL     1      42.262 -10.040  12.786  1.00  0.00     0.022 A 
HETATM   30  C   UNL     1      40.959  -9.706  13.146  1.00  0.00     0.040 A 
HETATM   31  C   UNL     1      40.069  -9.252  12.172  1.00  0.00     0.098 A 
BRANCH  31  32
HETATM   32  O   UNL     1      38.794  -8.933  12.547  1.00  0.00    -0.358 OA
HETATM   33  H   UNL     1      38.165  -9.546  12.135  1.00  0.00     0.218 HD
ENDBRANCH  31  32
ENDBRANCH  23  26
ENDBRANCH  21  22
ENDBRANCH  20  21
ENDBRANCH   2  20
TORSDOF 9
ENDMDL
MODEL 9
REMARK VINA RESULT:      -7.6      2.587      3.432
REMARK  9 active torsions:
REMARK  status: ('A' for Active; 'I' for Inactive)
REMARK    1  A    between atoms: N_4  and  C_5 
REMARK    2  A    between atoms: C_13  and  C_14 
REMARK    3  A    between atoms: C_15  and  C_16 
REMARK       I    between atoms: C_16  and  N_17 
REMARK    4  A    between atoms: N_17  and  C_18 
REMARK    5  A    between atoms: C_18  and  C_19 
REMARK    6  A    between atoms: C_19  and  N_20 
REMARK    7  A    between atoms: C_21  and  O_22 
REMARK    8  A    between atoms: C_21  and  C_23 
REMARK    9  A    between atoms: C_28  and  O_29 
ROOT
HETATM    1  C   UNL     1      39.475 -12.054   5.901  1.00  0.00     0.241 C 
HETATM    2  N   UNL     1      40.081 -11.138   5.083  1.00  0.00    -0.356 N 
HETATM    3  O   UNL     1      38.395 -11.873   6.451  1.00  0.00    -0.269 OA
HETATM    4  H   UNL     1      40.886 -11.385   4.521  1.00  0.00     0.162 HD
ENDROOT
BRANCH   1   5
HETATM    5  C   UNL     1      40.257 -13.303   6.074  1.00  0.00     0.075 C 
HETATM    6  C   UNL     1      41.291 -13.533   5.248  1.00  0.00     0.021 C 
BRANCH   6   7
HETATM    7  C   UNL     1      42.125 -14.691   5.214  1.00  0.00     0.014 C 
HETATM    8  C   UNL     1      43.352 -14.969   5.856  1.00  0.00     0.063 C 
HETATM    9  C   UNL     1      44.164 -14.113   6.756  1.00  0.00     0.073 C 
HETATM   10  N   UNL     1      43.781 -16.201   5.573  1.00  0.00    -0.171 NA
HETATM   11  N   UNL     1      42.915 -16.689   4.643  1.00  0.00    -0.237 N 
HETATM   12  C   UNL     1      41.822 -15.837   4.495  1.00  0.00     0.045 C 
HETATM   13  C   UNL     1      40.567 -16.173   3.765  1.00  0.00     0.071 C 
BRANCH  11  14
HETATM   14  C   UNL     1      43.229 -17.922   3.989  1.00  0.00     0.058 A 
HETATM   15  C   UNL     1      43.791 -18.966   4.743  1.00  0.00     0.031 A 
HETATM   16  C   UNL     1      44.113 -20.187   4.141  1.00  0.00     0.002 A 
HETATM   17  C   UNL     1      43.893 -20.372   2.779  1.00  0.00     0.000 A 
HETATM   18  C   UNL     1      43.364 -19.335   2.016  1.00  0.00     0.002 A 
HETATM   19  C   UNL     1      43.038 -18.112   2.615  1.00  0.00     0.031 A 
ENDBRANCH  11  14
ENDBRANCH   6   7
ENDBRANCH   1   5
BRANCH   2  20
HETATM   20  C   UNL     1      39.418  -9.899   4.724  1.00  0.00     0.144 C 
BRANCH  20  21
HETATM   21  C   UNL     1      40.148  -8.682   5.298  1.00  0.00     0.171 C 
BRANCH  21  22
HETATM   22  N   UNL     1      39.860  -8.581   6.727  1.00  0.00    -0.263 NA
HETATM   23  C   UNL     1      40.699  -9.015   7.598  1.00  0.00     0.189 C 
BRANCH  23  24
HETATM   24  O   UNL     1      41.906  -9.525   7.268  1.00  0.00    -0.343 OA
HETATM   25  H   UNL     1      42.473  -8.884   6.825  1.00  0.00     0.219 HD
ENDBRANCH  23  24
BRANCH  23  26
HETATM   26  C   UNL     1      40.486  -9.037   9.084  1.00  0.00     0.141 A 
HETATM   27  N   UNL     1      41.303  -8.212   9.806  1.00  0.00    -0.254 NA
HETATM   28  C   UNL     1      41.171  -8.215  11.147  1.00  0.00     0.117 A 
HETATM   29  C   UNL     1      40.258  -9.002  11.825  1.00  0.00     0.022 A 
HETATM   30  C   UNL     1      39.426  -9.836  11.085  1.00  0.00     0.040 A 
HETATM   31  C   UNL     1      39.534  -9.860   9.693  1.00  0.00     0.098 A 
BRANCH  31  32
HETATM   32  O   UNL     1      38.709 -10.689   8.987  1.00  0.00    -0.358 OA
HETATM   33  H   UNL     1      38.246 -10.186   8.298  1.00  0.00     0.218 HD
ENDBRANCH  31  32
ENDBRANCH  23  26
ENDBRANCH  21  22
ENDBRANCH  20  21
ENDBRANCH   2  20
TORSDOF 9
ENDMDL
MODEL 10
REMARK VINA RESULT:      -7.6      2.616      3.288
REMARK  9 active torsions:
REMARK  status: ('A' for Active; 'I' for Inactive)
REMARK    1  A    between atoms: N_4  and  C_5 
REMARK    2  A    between atoms: C_13  and  C_14 
REMARK    3  A    between atoms: C_15  and  C_16 
REMARK       I    between atoms: C_16  and  N_17 
REMARK    4  A    between atoms: N_17  and  C_18 
REMARK    5  A    between atoms: C_18  and  C_19 
REMARK    6  A    between atoms: C_19  and  N_20 
REMARK    7  A    between atoms: C_21  and  O_22 
REMARK    8  A    between atoms: C_21  and  C_23 
REMARK    9  A    between atoms: C_28  and  O_29 
ROOT
HETATM    1  C   UNL     1      39.126 -10.823   6.478  1.00  0.00     0.241 C 
HETATM    2  N   UNL     1      39.923 -10.401   7.509  1.00  0.00    -0.356 N 
HETATM    3  O   UNL     1      37.950 -10.504   6.346  1.00  0.00    -0.269 OA
HETATM    4  H   UNL     1      40.924 -10.551   7.496  1.00  0.00     0.162 HD
ENDROOT
BRANCH   1   5
HETATM    5  C   UNL     1      39.819 -11.724   5.524  1.00  0.00     0.075 C 
HETATM    6  C   UNL     1      40.974 -12.295   5.902  1.00  0.00     0.021 C 
BRANCH   6   7
HETATM    7  C   UNL     1      41.815 -13.140   5.116  1.00  0.00     0.014 C 
HETATM    8  C   UNL     1      42.691 -12.842   4.050  1.00  0.00     0.063 C 
HETATM    9  C   UNL     1      42.986 -11.539   3.402  1.00  0.00     0.073 C 
HETATM   10  N   UNL     1      43.318 -13.937   3.615  1.00  0.00    -0.171 NA
HETATM   11  N   UNL     1      42.761 -14.976   4.297  1.00  0.00    -0.237 N 
HETATM   12  C   UNL     1      41.928 -14.508   5.310  1.00  0.00     0.045 C 
HETATM   13  C   UNL     1      41.362 -15.342   6.407  1.00  0.00     0.071 C 
BRANCH  11  14
HETATM   14  C   UNL     1      43.086 -16.312   3.902  1.00  0.00     0.058 A 
HETATM   15  C   UNL     1      43.959 -17.065   4.705  1.00  0.00     0.031 A 
HETATM   16  C   UNL     1      44.301 -18.374   4.353  1.00  0.00     0.002 A 
HETATM   17  C   UNL     1      43.790 -18.939   3.187  1.00  0.00     0.000 A 
HETATM   18  C   UNL     1      42.946 -18.193   2.369  1.00  0.00     0.002 A 
HETATM   19  C   UNL     1      42.599 -16.883   2.719  1.00  0.00     0.031 A 
ENDBRANCH  11  14
ENDBRANCH   6   7
ENDBRANCH   1   5
BRANCH   2  20
HETATM   20  C   UNL     1      39.442  -9.440   8.484  1.00  0.00     0.144 C 
BRANCH  20  21
HETATM   21  C   UNL     1      39.430 -10.029   9.896  1.00  0.00     0.171 C 
BRANCH  21  22
HETATM   22  N   UNL     1      39.758  -8.978  10.857  1.00  0.00    -0.263 NA
HETATM   23  C   UNL     1      39.558  -9.152  12.114  1.00  0.00     0.189 C 
BRANCH  23  24
HETATM   24  O   UNL     1      39.102 -10.313  12.634  1.00  0.00    -0.343 OA
HETATM   25  H   UNL     1      38.222 -10.229  13.019  1.00  0.00     0.219 HD
ENDBRANCH  23  24
BRANCH  23  26
HETATM   26  C   UNL     1      39.781  -8.125  13.186  1.00  0.00     0.141 A 
HETATM   27  N   UNL     1      38.922  -7.061  13.167  1.00  0.00    -0.254 NA
HETATM   28  C   UNL     1      39.098  -6.097  14.093  1.00  0.00     0.117 A 
HETATM   29  C   UNL     1      40.093  -6.128  15.052  1.00  0.00     0.022 A 
HETATM   30  C   UNL     1      40.962  -7.216  15.069  1.00  0.00     0.040 A 
HETATM   31  C   UNL     1      40.811  -8.234  14.127  1.00  0.00     0.098 A 
BRANCH  31  32
HETATM   32  O   UNL     1      41.677  -9.290  14.159  1.00  0.00    -0.358 OA
HETATM   33  H   UNL     1      42.412  -9.096  14.762  1.00  0.00     0.218 HD
ENDBRANCH  31  32
ENDBRANCH  23  26
ENDBRANCH  21  22
ENDBRANCH  20  21
ENDBRANCH   2  20
TORSDOF 9
ENDMDL
