MODEL 1
REMARK VINA RESULT:      -8.4      0.000      0.000
REMARK  6 active torsions:
REMARK  status: ('A' for Active; 'I' for Inactive)
REMARK    1  A    between atoms: C_2  and  O_3 
REMARK    2  A    between atoms: O_3  and  C_4 
REMARK    3  A    between atoms: C_8  and  C_9 
REMARK    4  A    between atoms: C_9  and  N_10 
REMARK       I    between atoms: N_10  and  C_11 
REMARK       I    between atoms: C_11  and  N_12 
REMARK    5  A    between atoms: N_12  and  C_13 
REMARK    6  A    between atoms: C_14  and  C_15 
ROOT
HETATM    1  N   UNL     1      42.700 -12.806   4.513  1.00  0.00    -0.339 N 
HETATM    2  C   UNL     1      43.149 -12.768   3.226  1.00  0.00     0.316 C 
HETATM    3  N   UNL     1      43.204 -13.958   2.569  1.00  0.00    -0.338 N 
HETATM    4  O   UNL     1      43.501 -11.737   2.658  1.00  0.00    -0.247 OA
HETATM    5  H   UNL     1      42.111 -13.586   4.753  1.00  0.00     0.164 HD
HETATM    6  H   UNL     1      43.549 -13.861   1.620  1.00  0.00     0.164 HD
ENDROOT
BRANCH   1   7
HETATM    7  C   UNL     1      42.490 -11.560   5.208  1.00  0.00     0.163 C 
BRANCH   7   8
HETATM    8  C   UNL     1      43.538 -11.290   6.250  1.00  0.00    -0.035 A 
HETATM    9  C   UNL     1      44.895 -11.435   5.951  1.00  0.00     0.028 A 
HETATM   10  C   UNL     1      45.822 -11.252   6.964  1.00  0.00     0.120 A 
HETATM   11  N   UNL     1      45.495 -10.949   8.237  1.00  0.00    -0.237 NA
HETATM   12  C   UNL     1      44.184 -10.826   8.514  1.00  0.00     0.165 A 
HETATM   13  C   UNL     1      43.183 -10.964   7.564  1.00  0.00     0.066 A 
BRANCH  12  14
HETATM   14  O   UNL     1      43.776 -10.499   9.786  1.00  0.00    -0.324 OA
BRANCH  14  15
HETATM   15  C   UNL     1      43.347  -9.150  10.051  1.00  0.00     0.058 C 
HETATM   16  C   UNL     1      41.820  -8.996  10.053  1.00  0.00     0.045 C 
HETATM   17  C   UNL     1      44.028  -8.122   9.134  1.00  0.00     0.045 C 
HETATM   18  C   UNL     1      43.839  -8.886  11.489  1.00  0.00     0.045 C 
ENDBRANCH  14  15
ENDBRANCH  12  14
ENDBRANCH   7   8
ENDBRANCH   1   7
BRANCH   3  19
HETATM   19  C   UNL     1      42.873 -15.264   3.038  1.00  0.00     0.095 A 
HETATM   20  C   UNL     1      43.089 -16.513   2.208  1.00  0.00     0.043 A 
HETATM   21  C   UNL     1      41.699 -15.956   2.406  1.00  0.00     0.037 A 
BRANCH  20  22
HETATM   22  C   UNL     1      43.417 -17.842   2.853  1.00  0.00    -0.052 A 
HETATM   23  C   UNL     1      43.234 -19.046   2.148  1.00  0.00     0.007 A 
HETATM   24  C   UNL     1      43.522 -20.284   2.728  1.00  0.00     0.001 A 
HETATM   25  C   UNL     1      44.011 -20.345   4.028  1.00  0.00     0.000 A 
HETATM   26  C   UNL     1      44.219 -19.168   4.742  1.00  0.00     0.001 A 
HETATM   27  C   UNL     1      43.929 -17.931   4.157  1.00  0.00     0.007 A 
ENDBRANCH  20  22
ENDBRANCH   3  19
TORSDOF 6
ENDMDL
MODEL 2
REMARK VINA RESULT:      -8.3      1.947      2.536
REMARK  6 active torsions:
REMARK  status: ('A' for Active; 'I' for Inactive)
REMARK    1  A    between atoms: C_2  and  O_3 
REMARK    2  A    between atoms: O_3  and  C_4 
REMARK    3  A    between atoms: C_8  and  C_9 
REMARK    4  A    between atoms: C_9  and  N_10 
REMARK       I    between atoms: N_10  and  C_11 
REMARK       I    between atoms: C_11  and  N_12 
REMARK    5  A    between atoms: N_12  and  C_13 
REMARK    6  A    between atoms: C_14  and  C_15 
ROOT
HETATM    1  N   UNL     1      40.739 -13.286   4.551  1.00  0.00    -0.339 N 
HETATM    2  C   UNL     1      39.736 -13.137   3.639  1.00  0.00     0.316 C 
HETATM    3  N   UNL     1      39.470 -14.215   2.852  1.00  0.00    -0.338 N 
HETATM    4  O   UNL     1      39.093 -12.101   3.498  1.00  0.00    -0.247 OA
HETATM    5  H   UNL     1      40.940 -14.230   4.838  1.00  0.00     0.164 HD
HETATM    6  H   UNL     1      38.719 -14.038   2.195  1.00  0.00     0.164 HD
ENDROOT
BRANCH   1   7
HETATM    7  C   UNL     1      40.969 -12.226   5.502  1.00  0.00     0.163 C 
BRANCH   7   8
HETATM    8  C   UNL     1      42.416 -11.832   5.596  1.00  0.00    -0.035 A 
HETATM    9  C   UNL     1      43.201 -11.722   4.445  1.00  0.00     0.028 A 
HETATM   10  C   UNL     1      44.549 -11.432   4.585  1.00  0.00     0.120 A 
HETATM   11  N   UNL     1      45.160 -11.257   5.774  1.00  0.00    -0.237 NA
HETATM   12  C   UNL     1      44.395 -11.380   6.875  1.00  0.00     0.165 A 
HETATM   13  C   UNL     1      43.034 -11.641   6.837  1.00  0.00     0.066 A 
BRANCH  12  14
HETATM   14  O   UNL     1      44.946 -11.196   8.120  1.00  0.00    -0.324 OA
BRANCH  14  15
HETATM   15  C   UNL     1      45.177  -9.851   8.585  1.00  0.00     0.058 C 
HETATM   16  C   UNL     1      43.987  -8.916   8.326  1.00  0.00     0.045 C 
HETATM   17  C   UNL     1      46.496  -9.263   8.061  1.00  0.00     0.045 C 
HETATM   18  C   UNL     1      45.313 -10.011  10.113  1.00  0.00     0.045 C 
ENDBRANCH  14  15
ENDBRANCH  12  14
ENDBRANCH   7   8
ENDBRANCH   1   7
BRANCH   3  19
HETATM   19  C   UNL     1      40.104 -15.493   2.827  1.00  0.00     0.095 A 
HETATM   20  C   UNL     1      41.467 -15.720   2.205  1.00  0.00     0.043 A 
HETATM   21  C   UNL     1      40.216 -16.190   1.501  1.00  0.00     0.037 A 
BRANCH  20  22
HETATM   22  C   UNL     1      42.413 -16.771   2.742  1.00  0.00    -0.052 A 
HETATM   23  C   UNL     1      43.140 -16.547   3.926  1.00  0.00     0.007 A 
HETATM   24  C   UNL     1      44.025 -17.501   4.433  1.00  0.00     0.001 A 
HETATM   25  C   UNL     1      44.198 -18.711   3.769  1.00  0.00     0.000 A 
HETATM   26  C   UNL     1      43.477 -18.967   2.605  1.00  0.00     0.001 A 
HETATM   27  C   UNL     1      42.592 -18.008   2.102  1.00  0.00     0.007 A 
ENDBRANCH  20  22
ENDBRANCH   3  19
TORSDOF 6
ENDMDL
MODEL 3
REMARK VINA RESULT:      -8.3      4.399      7.649
REMARK  6 active torsions:
REMARK  status: ('A' for Active; 'I' for Inactive)
REMARK    1  A    between atoms: C_2  and  O_3 
REMARK    2  A    between atoms: O_3  and  C_4 
REMARK    3  A    between atoms: C_8  and  C_9 
REMARK    4  A    between atoms: C_9  and  N_10 
REMARK       I    between atoms: N_10  and  C_11 
REMARK       I    between atoms: C_11  and  N_12 
REMARK    5  A    between atoms: N_12  and  C_13 
REMARK    6  A    between atoms: C_14  and  C_15 
ROOT
HETATM    1  N   UNL     1      40.181 -13.611   4.435  1.00  0.00    -0.339 N 
HETATM    2  C   UNL     1      40.050 -13.356   5.768  1.00  0.00     0.316 C 
HETATM    3  N   UNL     1      40.928 -13.988   6.593  1.00  0.00    -0.338 N 
HETATM    4  O   UNL     1      39.195 -12.610   6.238  1.00  0.00    -0.247 OA
HETATM    5  H   UNL     1      41.091 -13.914   4.129  1.00  0.00     0.164 HD
HETATM    6  H   UNL     1      40.775 -13.758   7.569  1.00  0.00     0.164 HD
ENDROOT
BRANCH   1   7
HETATM    7  C   UNL     1      39.369 -12.863   3.506  1.00  0.00     0.163 C 
BRANCH   7   8
HETATM    8  C   UNL     1      39.510 -13.345   2.090  1.00  0.00    -0.035 A 
HETATM    9  C   UNL     1      39.987 -14.629   1.818  1.00  0.00     0.028 A 
HETATM   10  C   UNL     1      40.174 -15.003   0.497  1.00  0.00     0.120 A 
HETATM   11  N   UNL     1      39.932 -14.194  -0.554  1.00  0.00    -0.237 NA
HETATM   12  C   UNL     1      39.486 -12.955  -0.277  1.00  0.00     0.165 A 
HETATM   13  C   UNL     1      39.242 -12.498   1.009  1.00  0.00     0.066 A 
BRANCH  12  14
HETATM   14  O   UNL     1      39.199 -12.082  -1.300  1.00  0.00    -0.324 OA
BRANCH  14  15
HETATM   15  C   UNL     1      40.289 -11.467  -2.014  1.00  0.00     0.058 C 
HETATM   16  C   UNL     1      40.960 -12.418  -3.015  1.00  0.00     0.045 C 
HETATM   17  C   UNL     1      41.310 -10.803  -1.077  1.00  0.00     0.045 C 
HETATM   18  C   UNL     1      39.608 -10.348  -2.827  1.00  0.00     0.045 C 
ENDBRANCH  14  15
ENDBRANCH  12  14
ENDBRANCH   7   8
ENDBRANCH   1   7
BRANCH   3  19
HETATM   19  C   UNL     1      41.971 -14.905   6.269  1.00  0.00     0.095 A 
HETATM   20  C   UNL     1      41.711 -16.362   5.947  1.00  0.00     0.043 A 
HETATM   21  C   UNL     1      42.305 -15.967   7.279  1.00  0.00     0.037 A 
BRANCH  20  22
HETATM   22  C   UNL     1      42.589 -17.126   4.981  1.00  0.00    -0.052 A 
HETATM   23  C   UNL     1      42.439 -16.962   3.591  1.00  0.00     0.007 A 
HETATM   24  C   UNL     1      43.233 -17.664   2.681  1.00  0.00     0.001 A 
HETATM   25  C   UNL     1      44.207 -18.543   3.144  1.00  0.00     0.000 A 
HETATM   26  C   UNL     1      44.389 -18.711   4.514  1.00  0.00     0.001 A 
HETATM   27  C   UNL     1      43.591 -18.005   5.420  1.00  0.00     0.007 A 
ENDBRANCH  20  22
ENDBRANCH   3  19
TORSDOF 6
ENDMDL
MODEL 4
REMARK VINA RESULT:      -8.2      4.326      7.724
REMARK  6 active torsions:
REMARK  status: ('A' for Active; 'I' for Inactive)
REMARK    1  A    between atoms: C_2  and  O_3 
REMARK    2  A    between atoms: O_3  and  C_4 
REMARK    3  A    between atoms: C_8  and  C_9 
REMARK    4  A    between atoms: C_9  and  N_10 
REMARK       I    between atoms: N_10  and  C_11 
REMARK       I    between atoms: C_11  and  N_12 
REMARK    5  A    between atoms: N_12  and  C_13 
REMARK    6  A    between atoms: C_14  and  C_15 
ROOT
HETATM    1  N   UNL     1      40.221 -13.574   4.606  1.00  0.00    -0.339 N 
HETATM    2  C   UNL     1      40.111 -13.411   5.955  1.00  0.00     0.316 C 
HETATM    3  N   UNL     1      41.007 -14.091   6.721  1.00  0.00    -0.338 N 
HETATM    4  O   UNL     1      39.259 -12.706   6.488  1.00  0.00    -0.247 OA
HETATM    5  H   UNL     1      41.128 -13.848   4.265  1.00  0.00     0.164 HD
HETATM    6  H   UNL     1      40.869 -13.929   7.712  1.00  0.00     0.164 HD
ENDROOT
BRANCH   1   7
HETATM    7  C   UNL     1      39.389 -12.771   3.743  1.00  0.00     0.163 C 
BRANCH   7   8
HETATM    8  C   UNL     1      39.992 -12.559   2.384  1.00  0.00    -0.035 A 
HETATM    9  C   UNL     1      40.723 -11.402   2.100  1.00  0.00     0.028 A 
HETATM   10  C   UNL     1      41.194 -11.213   0.811  1.00  0.00     0.120 A 
HETATM   11  N   UNL     1      40.983 -12.079  -0.201  1.00  0.00    -0.237 NA
HETATM   12  C   UNL     1      40.265 -13.181   0.083  1.00  0.00     0.165 A 
HETATM   13  C   UNL     1      39.775 -13.473   1.347  1.00  0.00     0.066 A 
BRANCH  12  14
HETATM   14  O   UNL     1      40.027 -14.118  -0.895  1.00  0.00    -0.324 OA
BRANCH  14  15
HETATM   15  C   UNL     1      39.276 -13.728  -2.061  1.00  0.00     0.058 C 
HETATM   16  C   UNL     1      40.135 -13.015  -3.116  1.00  0.00     0.045 C 
HETATM   17  C   UNL     1      38.013 -12.927  -1.710  1.00  0.00     0.045 C 
HETATM   18  C   UNL     1      38.821 -15.070  -2.668  1.00  0.00     0.045 C 
ENDBRANCH  14  15
ENDBRANCH  12  14
ENDBRANCH   7   8
ENDBRANCH   1   7
BRANCH   3  19
HETATM   19  C   UNL     1      42.051 -14.976   6.318  1.00  0.00     0.095 A 
HETATM   20  C   UNL     1      41.810 -16.438   6.004  1.00  0.00     0.043 A 
HETATM   21  C   UNL     1      42.485 -16.033   7.294  1.00  0.00     0.037 A 
BRANCH  20  22
HETATM   22  C   UNL     1      42.640 -17.171   4.973  1.00  0.00    -0.052 A 
HETATM   23  C   UNL     1      42.419 -16.968   3.598  1.00  0.00     0.007 A 
HETATM   24  C   UNL     1      43.168 -17.642   2.630  1.00  0.00     0.001 A 
HETATM   25  C   UNL     1      44.166 -18.530   3.017  1.00  0.00     0.000 A 
HETATM   26  C   UNL     1      44.418 -18.735   4.371  1.00  0.00     0.001 A 
HETATM   27  C   UNL     1      43.666 -18.058   5.336  1.00  0.00     0.007 A 
ENDBRANCH  20  22
ENDBRANCH   3  19
TORSDOF 6
ENDMDL
MODEL 5
REMARK VINA RESULT:      -7.7      5.145      8.044
REMARK  6 active torsions:
REMARK  status: ('A' for Active; 'I' for Inactive)
REMARK    1  A    between atoms: C_2  and  O_3 
REMARK    2  A    between atoms: O_3  and  C_4 
REMARK    3  A    between atoms: C_8  and  C_9 
REMARK    4  A    between atoms: C_9  and  N_10 
REMARK       I    between atoms: N_10  and  C_11 
REMARK       I    between atoms: C_11  and  N_12 
REMARK    5  A    between atoms: N_12  and  C_13 
REMARK    6  A    between atoms: C_14  and  C_15 
ROOT
HETATM    1  N   UNL     1      40.105 -14.122   1.960  1.00  0.00    -0.339 N 
HETATM    2  C   UNL     1      40.782 -13.790   3.096  1.00  0.00     0.316 C 
HETATM    3  N   UNL     1      41.693 -14.695   3.544  1.00  0.00    -0.338 N 
HETATM    4  O   UNL     1      40.600 -12.745   3.716  1.00  0.00    -0.247 OA
HETATM    5  H   UNL     1      40.562 -14.779   1.349  1.00  0.00     0.164 HD
HETATM    6  H   UNL     1      42.157 -14.391   4.392  1.00  0.00     0.164 HD
ENDROOT
BRANCH   1   7
HETATM    7  C   UNL     1      39.230 -13.141   1.366  1.00  0.00     0.163 C 
BRANCH   7   8
HETATM    8  C   UNL     1      39.441 -12.992  -0.114  1.00  0.00    -0.035 A 
HETATM    9  C   UNL     1      39.933 -14.055  -0.875  1.00  0.00     0.028 A 
HETATM   10  C   UNL     1      40.186 -13.848  -2.221  1.00  0.00     0.120 A 
HETATM   11  N   UNL     1      39.994 -12.670  -2.849  1.00  0.00    -0.237 NA
HETATM   12  C   UNL     1      39.533 -11.651  -2.101  1.00  0.00     0.165 A 
HETATM   13  C   UNL     1      39.226 -11.766  -0.754  1.00  0.00     0.066 A 
BRANCH  12  14
HETATM   14  O   UNL     1      39.295 -10.426  -2.679  1.00  0.00    -0.324 OA
BRANCH  14  15
HETATM   15  C   UNL     1      40.335  -9.430  -2.647  1.00  0.00     0.058 C 
HETATM   16  C   UNL     1      41.548  -9.857  -1.808  1.00  0.00     0.045 C 
HETATM   17  C   UNL     1      39.813  -8.043  -2.239  1.00  0.00     0.045 C 
HETATM   18  C   UNL     1      40.799  -9.338  -4.114  1.00  0.00     0.045 C 
ENDBRANCH  14  15
ENDBRANCH  12  14
ENDBRANCH   7   8
ENDBRANCH   1   7
BRANCH   3  19
HETATM   19  C   UNL     1      42.041 -15.969   3.002  1.00  0.00     0.095 A 
HETATM   20  C   UNL     1      43.393 -16.614   3.228  1.00  0.00     0.043 A 
HETATM   21  C   UNL     1      43.051 -16.001   1.890  1.00  0.00     0.037 A 
BRANCH  20  22
HETATM   22  C   UNL     1      43.548 -18.118   3.298  1.00  0.00    -0.052 A 
HETATM   23  C   UNL     1      44.007 -18.739   4.475  1.00  0.00     0.007 A 
HETATM   24  C   UNL     1      44.165 -20.124   4.557  1.00  0.00     0.001 A 
HETATM   25  C   UNL     1      43.856 -20.924   3.462  1.00  0.00     0.000 A 
HETATM   26  C   UNL     1      43.382 -20.338   2.292  1.00  0.00     0.001 A 
HETATM   27  C   UNL     1      43.225 -18.950   2.215  1.00  0.00     0.007 A 
ENDBRANCH  20  22
ENDBRANCH   3  19
TORSDOF 6
ENDMDL
MODEL 6
REMARK VINA RESULT:      -7.7      1.686      2.200
REMARK  6 active torsions:
REMARK  status: ('A' for Active; 'I' for Inactive)
REMARK    1  A    between atoms: C_2  and  O_3 
REMARK    2  A    between atoms: O_3  and  C_4 
REMARK    3  A    between atoms: C_8  and  C_9 
REMARK    4  A    between atoms: C_9  and  N_10 
REMARK       I    between atoms: N_10  and  C_11 
REMARK       I    between atoms: C_11  and  N_12 
REMARK    5  A    between atoms: N_12  and  C_13 
REMARK    6  A    between atoms: C_14  and  C_15 
ROOT
HETATM    1  N   UNL     1      42.370 -11.794   5.359  1.00  0.00    -0.339 N 
HETATM    2  C   UNL     1      41.124 -12.341   5.279  1.00  0.00     0.316 C 
HETATM    3  N   UNL     1      41.062 -13.662   4.957  1.00  0.00    -0.338 N 
HETATM    4  O   UNL     1      40.089 -11.708   5.469  1.00  0.00    -0.247 OA
HETATM    5  H   UNL     1      43.123 -12.435   5.550  1.00  0.00     0.164 HD
HETATM    6  H   UNL     1      40.109 -14.005   4.910  1.00  0.00     0.164 HD
ENDROOT
BRANCH   1   7
HETATM    7  C   UNL     1      42.499 -10.437   5.830  1.00  0.00     0.163 C 
BRANCH   7   8
HETATM    8  C   UNL     1      43.516 -10.296   6.927  1.00  0.00    -0.035 A 
HETATM    9  C   UNL     1      44.736 -10.972   6.860  1.00  0.00     0.028 A 
HETATM   10  C   UNL     1      45.611 -10.874   7.930  1.00  0.00     0.120 A 
HETATM   11  N   UNL     1      45.353 -10.168   9.049  1.00  0.00    -0.237 NA
HETATM   12  C   UNL     1      44.167  -9.533   9.106  1.00  0.00     0.165 A 
HETATM   13  C   UNL     1      43.239  -9.548   8.077  1.00  0.00     0.066 A 
BRANCH  12  14
HETATM   14  O   UNL     1      43.844  -8.777  10.208  1.00  0.00    -0.324 OA
BRANCH  14  15
HETATM   15  C   UNL     1      43.110  -9.395  11.283  1.00  0.00     0.058 C 
HETATM   16  C   UNL     1      43.656 -10.778  11.663  1.00  0.00     0.045 C 
HETATM   17  C   UNL     1      41.595  -9.425  11.023  1.00  0.00     0.045 C 
HETATM   18  C   UNL     1      43.356  -8.456  12.481  1.00  0.00     0.045 C 
ENDBRANCH  14  15
ENDBRANCH  12  14
ENDBRANCH   7   8
ENDBRANCH   1   7
BRANCH   3  19
HETATM   19  C   UNL     1      42.124 -14.571   4.671  1.00  0.00     0.095 A 
HETATM   20  C   UNL     1      42.105 -16.020   5.114  1.00  0.00     0.043 A 
HETATM   21  C   UNL     1      42.990 -15.016   5.815  1.00  0.00     0.037 A 
BRANCH  20  22
HETATM   22  C   UNL     1      42.774 -17.104   4.298  1.00  0.00    -0.052 A 
HETATM   23  C   UNL     1      42.378 -17.352   2.971  1.00  0.00     0.007 A 
HETATM   24  C   UNL     1      42.977 -18.354   2.204  1.00  0.00     0.001 A 
HETATM   25  C   UNL     1      43.998 -19.127   2.747  1.00  0.00     0.000 A 
HETATM   26  C   UNL     1      44.423 -18.890   4.051  1.00  0.00     0.001 A 
HETATM   27  C   UNL     1      43.820 -17.885   4.814  1.00  0.00     0.007 A 
ENDBRANCH  20  22
ENDBRANCH   3  19
TORSDOF 6
ENDMDL
MODEL 7
REMARK VINA RESULT:      -7.6      4.500      7.316
REMARK  6 active torsions:
REMARK  status: ('A' for Active; 'I' for Inactive)
REMARK    1  A    between atoms: C_2  and  O_3 
REMARK    2  A    between atoms: O_3  and  C_4 
REMARK    3  A    between atoms: C_8  and  C_9 
REMARK    4  A    between atoms: C_9  and  N_10 
REMARK       I    between atoms: N_10  and  C_11 
REMARK       I    between atoms: C_11  and  N_12 
REMARK    5  A    between atoms: N_12  and  C_13 
REMARK    6  A    between atoms: C_14  and  C_15 
ROOT
HETATM    1  N   UNL     1      40.265 -14.048   3.755  1.00  0.00    -0.339 N 
HETATM    2  C   UNL     1      40.947 -14.029   4.935  1.00  0.00     0.316 C 
HETATM    3  N   UNL     1      41.846 -15.031   5.131  1.00  0.00    -0.338 N 
HETATM    4  O   UNL     1      40.781 -13.176   5.803  1.00  0.00    -0.247 OA
HETATM    5  H   UNL     1      40.711 -14.532   2.994  1.00  0.00     0.164 HD
HETATM    6  H   UNL     1      42.314 -14.961   6.027  1.00  0.00     0.164 HD
ENDROOT
BRANCH   1   7
HETATM    7  C   UNL     1      39.403 -12.936   3.437  1.00  0.00     0.163 C 
BRANCH   7   8
HETATM    8  C   UNL     1      39.889 -12.141   2.258  1.00  0.00    -0.035 A 
HETATM    9  C   UNL     1      41.120 -11.483   2.300  1.00  0.00     0.028 A 
HETATM   10  C   UNL     1      41.492 -10.698   1.220  1.00  0.00     0.120 A 
HETATM   11  N   UNL     1      40.728 -10.520   0.123  1.00  0.00    -0.237 NA
HETATM   12  C   UNL     1      39.538 -11.148   0.102  1.00  0.00     0.165 A 
HETATM   13  C   UNL     1      39.090 -11.975   1.121  1.00  0.00     0.066 A 
BRANCH  12  14
HETATM   14  O   UNL     1      38.716 -11.028  -0.993  1.00  0.00    -0.324 OA
BRANCH  14  15
HETATM   15  C   UNL     1      38.904 -11.925  -2.104  1.00  0.00     0.058 C 
HETATM   16  C   UNL     1      37.688 -12.827  -2.359  1.00  0.00     0.045 C 
HETATM   17  C   UNL     1      40.208 -12.733  -1.998  1.00  0.00     0.045 C 
HETATM   18  C   UNL     1      39.040 -10.982  -3.316  1.00  0.00     0.045 C 
ENDBRANCH  14  15
ENDBRANCH  12  14
ENDBRANCH   7   8
ENDBRANCH   1   7
BRANCH   3  19
HETATM   19  C   UNL     1      42.175 -16.127   4.279  1.00  0.00     0.095 A 
HETATM   20  C   UNL     1      43.529 -16.805   4.301  1.00  0.00     0.043 A 
HETATM   21  C   UNL     1      43.157 -15.877   3.169  1.00  0.00     0.037 A 
BRANCH  20  22
HETATM   22  C   UNL     1      43.680 -18.278   3.988  1.00  0.00    -0.052 A 
HETATM   23  C   UNL     1      43.574 -18.745   2.665  1.00  0.00     0.007 A 
HETATM   24  C   UNL     1      43.701 -20.101   2.356  1.00  0.00     0.001 A 
HETATM   25  C   UNL     1      43.949 -21.024   3.367  1.00  0.00     0.000 A 
HETATM   26  C   UNL     1      44.078 -20.586   4.683  1.00  0.00     0.001 A 
HETATM   27  C   UNL     1      43.949 -19.227   4.986  1.00  0.00     0.007 A 
ENDBRANCH  20  22
ENDBRANCH   3  19
TORSDOF 6
ENDMDL
MODEL 8
REMARK VINA RESULT:      -7.4      6.474      8.824
REMARK  6 active torsions:
REMARK  status: ('A' for Active; 'I' for Inactive)
REMARK    1  A    between atoms: C_2  and  O_3 
REMARK    2  A    between atoms: O_3  and  C_4 
REMARK    3  A    between atoms: C_8  and  C_9 
REMARK    4  A    between atoms: C_9  and  N_10 
REMARK       I    between atoms: N_10  and  C_11 
REMARK       I    between atoms: C_11  and  N_12 
REMARK    5  A    between atoms: N_12  and  C_13 
REMARK    6  A    between atoms: C_14  and  C_15 
ROOT
HETATM    1  N   UNL     1      40.650 -13.575  -1.571  1.00  0.00    -0.339 N 
HETATM    2  C   UNL     1      39.569 -14.389  -1.405  1.00  0.00     0.316 C 
HETATM    3  N   UNL     1      39.500 -15.070  -0.229  1.00  0.00    -0.338 N 
HETATM    4  O   UNL     1      38.690 -14.534  -2.250  1.00  0.00    -0.247 OA
HETATM    5  H   UNL     1      41.091 -13.247  -0.728  1.00  0.00     0.164 HD
HETATM    6  H   UNL     1      38.677 -15.658  -0.171  1.00  0.00     0.164 HD
ENDROOT
BRANCH   1   7
HETATM    7  C   UNL     1      40.703 -12.726  -2.737  1.00  0.00     0.163 C 
BRANCH   7   8
HETATM    8  C   UNL     1      40.394 -11.289  -2.426  1.00  0.00    -0.035 A 
HETATM    9  C   UNL     1      39.593 -10.953  -1.332  1.00  0.00     0.028 A 
HETATM   10  C   UNL     1      39.270  -9.621  -1.129  1.00  0.00     0.120 A 
HETATM   11  N   UNL     1      39.676  -8.618  -1.934  1.00  0.00    -0.237 NA
HETATM   12  C   UNL     1      40.435  -8.958  -2.992  1.00  0.00     0.165 A 
HETATM   13  C   UNL     1      40.833 -10.259  -3.264  1.00  0.00     0.066 A 
BRANCH  12  14
HETATM   14  O   UNL     1      40.903  -7.986  -3.845  1.00  0.00    -0.324 OA
BRANCH  14  15
HETATM   15  C   UNL     1      42.049  -7.209  -3.449  1.00  0.00     0.058 C 
HETATM   16  C   UNL     1      43.027  -6.954  -4.605  1.00  0.00     0.045 C 
HETATM   17  C   UNL     1      42.757  -7.786  -2.213  1.00  0.00     0.045 C 
HETATM   18  C   UNL     1      41.447  -5.848  -3.047  1.00  0.00     0.045 C 
ENDBRANCH  14  15
ENDBRANCH  12  14
ENDBRANCH   7   8
ENDBRANCH   1   7
BRANCH   3  19
HETATM   19  C   UNL     1      40.413 -15.072   0.867  1.00  0.00     0.095 A 
HETATM   20  C   UNL     1      40.272 -16.009   2.050  1.00  0.00     0.043 A 
HETATM   21  C   UNL     1      39.921 -14.545   2.186  1.00  0.00     0.037 A 
BRANCH  20  22
HETATM   22  C   UNL     1      41.482 -16.518   2.801  1.00  0.00    -0.052 A 
HETATM   23  C   UNL     1      42.390 -17.401   2.188  1.00  0.00     0.007 A 
HETATM   24  C   UNL     1      43.508 -17.890   2.867  1.00  0.00     0.001 A 
HETATM   25  C   UNL     1      43.750 -17.497   4.179  1.00  0.00     0.000 A 
HETATM   26  C   UNL     1      42.879 -16.610   4.805  1.00  0.00     0.001 A 
HETATM   27  C   UNL     1      41.761 -16.123   4.119  1.00  0.00     0.007 A 
ENDBRANCH  20  22
ENDBRANCH   3  19
TORSDOF 6
ENDMDL
MODEL 9
REMARK VINA RESULT:      -7.3      2.331      9.343
REMARK  6 active torsions:
REMARK  status: ('A' for Active; 'I' for Inactive)
REMARK    1  A    between atoms: C_2  and  O_3 
REMARK    2  A    between atoms: O_3  and  C_4 
REMARK    3  A    between atoms: C_8  and  C_9 
REMARK    4  A    between atoms: C_9  and  N_10 
REMARK       I    between atoms: N_10  and  C_11 
REMARK       I    between atoms: C_11  and  N_12 
REMARK    5  A    between atoms: N_12  and  C_13 
REMARK    6  A    between atoms: C_14  and  C_15 
ROOT
HETATM    1  N   UNL     1      43.939 -12.205   7.701  1.00  0.00    -0.339 N 
HETATM    2  C   UNL     1      44.787 -11.144   7.583  1.00  0.00     0.316 C 
HETATM    3  N   UNL     1      44.835 -10.287   8.638  1.00  0.00    -0.338 N 
HETATM    4  O   UNL     1      45.480 -10.934   6.591  1.00  0.00    -0.247 OA
HETATM    5  H   UNL     1      43.713 -12.488   8.641  1.00  0.00     0.164 HD
HETATM    6  H   UNL     1      45.481  -9.520   8.485  1.00  0.00     0.164 HD
ENDROOT
BRANCH   1   7
HETATM    7  C   UNL     1      43.951 -13.217   6.674  1.00  0.00     0.163 C 
BRANCH   7   8
HETATM    8  C   UNL     1      42.822 -13.067   5.695  1.00  0.00    -0.035 A 
HETATM    9  C   UNL     1      41.735 -12.237   5.981  1.00  0.00     0.028 A 
HETATM   10  C   UNL     1      40.680 -12.189   5.083  1.00  0.00     0.120 A 
HETATM   11  N   UNL     1      40.630 -12.909   3.944  1.00  0.00    -0.237 NA
HETATM   12  C   UNL     1      41.676 -13.716   3.689  1.00  0.00     0.165 A 
HETATM   13  C   UNL     1      42.789 -13.812   4.510  1.00  0.00     0.066 A 
BRANCH  12  14
HETATM   14  O   UNL     1      41.703 -14.465   2.536  1.00  0.00    -0.324 OA
BRANCH  14  15
HETATM   15  C   UNL     1      41.061 -15.754   2.531  1.00  0.00     0.058 C 
HETATM   16  C   UNL     1      39.960 -15.872   1.467  1.00  0.00     0.045 C 
HETATM   17  C   UNL     1      40.562 -16.172   3.924  1.00  0.00     0.045 C 
HETATM   18  C   UNL     1      42.191 -16.724   2.133  1.00  0.00     0.045 C 
ENDBRANCH  14  15
ENDBRANCH  12  14
ENDBRANCH   7   8
ENDBRANCH   1   7
BRANCH   3  19
HETATM   19  C   UNL     1      44.106 -10.323   9.864  1.00  0.00     0.095 A 
HETATM   20  C   UNL     1      43.201  -9.195  10.313  1.00  0.00     0.043 A 
HETATM   21  C   UNL     1      44.548  -9.401  10.966  1.00  0.00     0.037 A 
BRANCH  20  22
HETATM   22  C   UNL     1      41.965  -9.458  11.145  1.00  0.00    -0.052 A 
HETATM   23  C   UNL     1      42.058  -9.616  12.540  1.00  0.00     0.007 A 
HETATM   24  C   UNL     1      40.930  -9.868  13.324  1.00  0.00     0.001 A 
HETATM   25  C   UNL     1      39.676  -9.959  12.729  1.00  0.00     0.000 A 
HETATM   26  C   UNL     1      39.552  -9.787  11.353  1.00  0.00     0.001 A 
HETATM   27  C   UNL     1      40.685  -9.535  10.573  1.00  0.00     0.007 A 
ENDBRANCH  20  22
ENDBRANCH   3  19
TORSDOF 6
ENDMDL
MODEL 10
REMARK VINA RESULT:      -7.3      4.190      6.790
REMARK  6 active torsions:
REMARK  status: ('A' for Active; 'I' for Inactive)
REMARK    1  A    between atoms: C_2  and  O_3 
REMARK    2  A    between atoms: O_3  and  C_4 
REMARK    3  A    between atoms: C_8  and  C_9 
REMARK    4  A    between atoms: C_9  and  N_10 
REMARK       I    between atoms: N_10  and  C_11 
REMARK       I    between atoms: C_11  and  N_12 
REMARK    5  A    between atoms: N_12  and  C_13 
REMARK    6  A    between atoms: C_14  and  C_15 
ROOT
HETATM    1  N   UNL     1      40.486 -12.532   4.658  1.00  0.00    -0.339 N 
HETATM    2  C   UNL     1      39.979 -12.830   5.888  1.00  0.00     0.316 C 
HETATM    3  N   UNL     1      40.575 -13.853   6.556  1.00  0.00    -0.338 N 
HETATM    4  O   UNL     1      39.030 -12.236   6.395  1.00  0.00    -0.247 OA
HETATM    5  H   UNL     1      41.443 -12.800   4.497  1.00  0.00     0.164 HD
HETATM    6  H   UNL     1      40.149 -14.026   7.460  1.00  0.00     0.164 HD
ENDROOT
BRANCH   1   7
HETATM    7  C   UNL     1      39.983 -11.370   3.967  1.00  0.00     0.163 C 
BRANCH   7   8
HETATM    8  C   UNL     1      40.233 -11.419   2.486  1.00  0.00    -0.035 A 
HETATM    9  C   UNL     1      39.702 -12.449   1.707  1.00  0.00     0.028 A 
HETATM   10  C   UNL     1      40.023 -12.497   0.360  1.00  0.00     0.120 A 
HETATM   11  N   UNL     1      40.833 -11.609  -0.252  1.00  0.00    -0.237 NA
HETATM   12  C   UNL     1      41.349 -10.630   0.514  1.00  0.00     0.165 A 
HETATM   13  C   UNL     1      41.066 -10.482   1.863  1.00  0.00     0.066 A 
BRANCH  12  14
HETATM   14  O   UNL     1      42.167  -9.677  -0.046  1.00  0.00    -0.324 OA
BRANCH  14  15
HETATM   15  C   UNL     1      41.579  -8.668  -0.891  1.00  0.00     0.058 C 
HETATM   16  C   UNL     1      40.298  -8.064  -0.300  1.00  0.00     0.045 C 
HETATM   17  C   UNL     1      41.374  -9.153  -2.335  1.00  0.00     0.045 C 
HETATM   18  C   UNL     1      42.643  -7.553  -0.922  1.00  0.00     0.045 C 
ENDBRANCH  14  15
ENDBRANCH  12  14
ENDBRANCH   7   8
ENDBRANCH   1   7
BRANCH   3  19
HETATM   19  C   UNL     1      41.660 -14.687   6.149  1.00  0.00     0.095 A 
HETATM   20  C   UNL     1      41.507 -16.175   5.915  1.00  0.00     0.043 A 
HETATM   21  C   UNL     1      42.205 -15.662   7.154  1.00  0.00     0.037 A 
BRANCH  20  22
HETATM   22  C   UNL     1      42.342 -16.902   4.884  1.00  0.00    -0.052 A 
HETATM   23  C   UNL     1      42.069 -16.761   3.510  1.00  0.00     0.007 A 
HETATM   24  C   UNL     1      42.821 -17.430   2.542  1.00  0.00     0.001 A 
HETATM   25  C   UNL     1      43.876 -18.251   2.928  1.00  0.00     0.000 A 
HETATM   26  C   UNL     1      44.181 -18.393   4.279  1.00  0.00     0.001 A 
HETATM   27  C   UNL     1      43.423 -17.721   5.243  1.00  0.00     0.007 A 
ENDBRANCH  20  22
ENDBRANCH   3  19
TORSDOF 6
ENDMDL
