MODEL 1
REMARK VINA RESULT:      -9.4      0.000      0.000
REMARK  8 active torsions:
REMARK  status: ('A' for Active; 'I' for Inactive)
REMARK    1  A    between atoms: C_2  and  N_3 
REMARK       I    between atoms: N_3  and  C_4 
REMARK       I    between atoms: C_4  and  N_5 
REMARK       I    between atoms: N_5  and  C_6 
REMARK    2  A    between atoms: C_6  and  C_7 
REMARK    3  A    between atoms: C_7  and  S_8 
REMARK    4  A    between atoms: C_7  and  C_29 
REMARK    5  A    between atoms: S_8  and  C_9 
REMARK    6  A    between atoms: N_10  and  C_11 
REMARK    7  A    between atoms: C_18  and  C_19 
REMARK    8  A    between atoms: C_19  and  N_20 
ROOT
HETATM    1  C   UNL     1      41.978 -15.049   6.380  1.00  0.00     0.197 A 
HETATM    2  N   UNL     1      42.507 -15.662   5.258  1.00  0.00    -0.274 N 
HETATM    3  C   UNL     1      43.494 -16.495   5.775  1.00  0.00     0.161 A 
HETATM    4  N   UNL     1      43.513 -16.402   7.091  1.00  0.00    -0.132 NA
HETATM    5  N   UNL     1      42.556 -15.512   7.465  1.00  0.00    -0.122 NA
ENDROOT
BRANCH   1   6
HETATM    6  S   UNL     1      40.574 -14.039   6.421  1.00  0.00    -0.070 SA
BRANCH   6   7
HETATM    7  C   UNL     1      41.199 -12.433   5.791  1.00  0.00     0.180 C 
BRANCH   7   8
HETATM    8  C   UNL     1      42.686 -12.171   6.082  1.00  0.00     0.244 C 
HETATM    9  N   UNL     1      43.087 -12.200   7.404  1.00  0.00    -0.278 N 
HETATM   10  C   UNL     1      44.183 -11.594   7.958  1.00  0.00     0.322 C 
HETATM   11  H   UNL     1      42.389 -12.389   8.110  1.00  0.00     0.173 HD
HETATM   12  N   UNL     1      45.180 -11.253   7.100  1.00  0.00    -0.343 N 
HETATM   13  O   UNL     1      44.197 -11.360   9.164  1.00  0.00    -0.247 OA
HETATM   14  H   UNL     1      45.070 -11.518   6.123  1.00  0.00     0.164 HD
HETATM   15  O   UNL     1      43.495 -12.051   5.157  1.00  0.00    -0.271 OA
BRANCH  12  16
HETATM   16  C   UNL     1      46.381 -10.561   7.513  1.00  0.00     0.120 C 
HETATM   17  C   UNL     1      46.101  -9.140   7.969  1.00  0.00     0.026 C 
ENDBRANCH  12  16
ENDBRANCH   7   8
BRANCH   7  18
HETATM   18  C   UNL     1      40.744 -12.138   4.369  1.00  0.00    -0.035 A 
HETATM   19  C   UNL     1      39.601 -12.787   3.866  1.00  0.00     0.009 A 
HETATM   20  C   UNL     1      39.170 -12.571   2.557  1.00  0.00     0.001 A 
HETATM   21  C   UNL     1      39.873 -11.701   1.729  1.00  0.00     0.000 A 
HETATM   22  C   UNL     1      41.004 -11.047   2.210  1.00  0.00     0.001 A 
HETATM   23  C   UNL     1      41.439 -11.263   3.520  1.00  0.00     0.009 A 
ENDBRANCH   7  18
ENDBRANCH   6   7
ENDBRANCH   1   6
BRANCH   2  24
HETATM   24  C   UNL     1      42.162 -15.487   3.896  1.00  0.00     0.043 A 
HETATM   25  C   UNL     1      41.040 -16.138   3.366  1.00  0.00     0.033 A 
HETATM   26  C   UNL     1      40.700 -15.955   2.024  1.00  0.00     0.044 A 
HETATM   27  C   UNL     1      41.483 -15.134   1.221  1.00  0.00     0.116 A 
HETATM   28  F   UNL     1      41.156 -14.962  -0.065  1.00  0.00    -0.206 F 
HETATM   29  C   UNL     1      42.605 -14.493   1.733  1.00  0.00     0.044 A 
HETATM   30  C   UNL     1      42.951 -14.667   3.074  1.00  0.00     0.033 A 
ENDBRANCH   2  24
BRANCH   3  31
HETATM   31  C   UNL     1      44.518 -17.253   5.009  1.00  0.00     0.315 C 
BRANCH  31  32
HETATM   32  N   UNL     1      43.897 -18.466   4.321  1.00  0.00    -0.064 N 
HETATM   33  H   UNL     1      42.898 -18.427   4.592  1.00  0.00     0.280 HD
HETATM   34  C   UNL     1      43.929 -18.346   2.814  1.00  0.00     0.235 C 
HETATM   35  C   UNL     1      43.162 -19.503   2.192  1.00  0.00     0.028 C 
HETATM   36  C   UNL     1      43.696 -20.849   2.668  1.00  0.00     0.003 C 
HETATM   37  C   UNL     1      43.702 -20.929   4.191  1.00  0.00     0.028 C 
HETATM   38  C   UNL     1      44.463 -19.768   4.815  1.00  0.00     0.235 C 
ENDBRANCH  31  32
ENDBRANCH   3  31
TORSDOF 8
ENDMDL
MODEL 2
REMARK VINA RESULT:      -8.5      2.784      5.668
REMARK  8 active torsions:
REMARK  status: ('A' for Active; 'I' for Inactive)
REMARK    1  A    between atoms: C_2  and  N_3 
REMARK       I    between atoms: N_3  and  C_4 
REMARK       I    between atoms: C_4  and  N_5 
REMARK       I    between atoms: N_5  and  C_6 
REMARK    2  A    between atoms: C_6  and  C_7 
REMARK    3  A    between atoms: C_7  and  S_8 
REMARK    4  A    between atoms: C_7  and  C_29 
REMARK    5  A    between atoms: S_8  and  C_9 
REMARK    6  A    between atoms: N_10  and  C_11 
REMARK    7  A    between atoms: C_18  and  C_19 
REMARK    8  A    between atoms: C_19  and  N_20 
ROOT
HETATM    1  C   UNL     1      40.971 -11.765   3.433  1.00  0.00     0.197 A 
HETATM    2  N   UNL     1      41.298 -12.590   2.372  1.00  0.00    -0.274 N 
HETATM    3  C   UNL     1      41.252 -11.742   1.272  1.00  0.00     0.161 A 
HETATM    4  N   UNL     1      40.958 -10.517   1.663  1.00  0.00    -0.132 NA
HETATM    5  N   UNL     1      40.800 -10.533   3.013  1.00  0.00    -0.122 NA
ENDROOT
BRANCH   1   6
HETATM    6  S   UNL     1      41.047 -12.185   5.110  1.00  0.00    -0.070 SA
BRANCH   6   7
HETATM    7  C   UNL     1      42.736 -12.879   5.289  1.00  0.00     0.180 C 
BRANCH   7   8
HETATM    8  C   UNL     1      43.737 -11.945   5.990  1.00  0.00     0.244 C 
HETATM    9  N   UNL     1      43.855 -12.059   7.362  1.00  0.00    -0.278 N 
HETATM   10  C   UNL     1      44.302 -11.111   8.243  1.00  0.00     0.322 C 
HETATM   11  H   UNL     1      43.281 -12.745   7.835  1.00  0.00     0.173 HD
HETATM   12  N   UNL     1      45.055 -10.109   7.719  1.00  0.00    -0.343 N 
HETATM   13  O   UNL     1      43.978 -11.188   9.426  1.00  0.00    -0.247 OA
HETATM   14  H   UNL     1      45.280 -10.161   6.727  1.00  0.00     0.164 HD
HETATM   15  O   UNL     1      44.475 -11.208   5.330  1.00  0.00    -0.271 OA
BRANCH  12  16
HETATM   16  C   UNL     1      45.561  -9.003   8.501  1.00  0.00     0.120 C 
HETATM   17  C   UNL     1      44.510  -7.933   8.735  1.00  0.00     0.026 C 
ENDBRANCH  12  16
ENDBRANCH   7   8
BRANCH   7  18
HETATM   18  C   UNL     1      42.735 -14.323   5.770  1.00  0.00    -0.035 A 
HETATM   19  C   UNL     1      43.861 -15.129   5.520  1.00  0.00     0.009 A 
HETATM   20  C   UNL     1      43.886 -16.468   5.913  1.00  0.00     0.001 A 
HETATM   21  C   UNL     1      42.788 -17.022   6.564  1.00  0.00     0.000 A 
HETATM   22  C   UNL     1      41.666 -16.239   6.822  1.00  0.00     0.001 A 
HETATM   23  C   UNL     1      41.637 -14.899   6.428  1.00  0.00     0.009 A 
ENDBRANCH   7  18
ENDBRANCH   6   7
ENDBRANCH   1   6
BRANCH   2  24
HETATM   24  C   UNL     1      41.592 -13.976   2.374  1.00  0.00     0.043 A 
HETATM   25  C   UNL     1      42.859 -14.425   1.979  1.00  0.00     0.033 A 
HETATM   26  C   UNL     1      43.145 -15.792   1.990  1.00  0.00     0.044 A 
HETATM   27  C   UNL     1      42.167 -16.698   2.384  1.00  0.00     0.116 A 
HETATM   28  F   UNL     1      42.443 -18.007   2.392  1.00  0.00    -0.206 F 
HETATM   29  C   UNL     1      40.903 -16.264   2.766  1.00  0.00     0.044 A 
HETATM   30  C   UNL     1      40.608 -14.899   2.761  1.00  0.00     0.033 A 
ENDBRANCH   2  24
BRANCH   3  31
HETATM   31  C   UNL     1      41.329 -12.129  -0.162  1.00  0.00     0.315 C 
BRANCH  31  32
HETATM   32  N   UNL     1      40.006 -12.724  -0.638  1.00  0.00    -0.064 N 
HETATM   33  H   UNL     1      39.573 -13.102   0.224  1.00  0.00     0.280 HD
HETATM   34  C   UNL     1      39.058 -11.667  -1.157  1.00  0.00     0.235 C 
HETATM   35  C   UNL     1      37.709 -12.297  -1.469  1.00  0.00     0.028 C 
HETATM   36  C   UNL     1      37.848 -13.464  -2.440  1.00  0.00     0.003 C 
HETATM   37  C   UNL     1      38.846 -14.493  -1.921  1.00  0.00     0.028 C 
HETATM   38  C   UNL     1      40.194 -13.863  -1.601  1.00  0.00     0.235 C 
ENDBRANCH  31  32
ENDBRANCH   3  31
TORSDOF 8
ENDMDL
MODEL 3
REMARK VINA RESULT:      -8.3      3.520      7.556
REMARK  8 active torsions:
REMARK  status: ('A' for Active; 'I' for Inactive)
REMARK    1  A    between atoms: C_2  and  N_3 
REMARK       I    between atoms: N_3  and  C_4 
REMARK       I    between atoms: C_4  and  N_5 
REMARK       I    between atoms: N_5  and  C_6 
REMARK    2  A    between atoms: C_6  and  C_7 
REMARK    3  A    between atoms: C_7  and  S_8 
REMARK    4  A    between atoms: C_7  and  C_29 
REMARK    5  A    between atoms: S_8  and  C_9 
REMARK    6  A    between atoms: N_10  and  C_11 
REMARK    7  A    between atoms: C_18  and  C_19 
REMARK    8  A    between atoms: C_19  and  N_20 
ROOT
HETATM    1  C   UNL     1      41.207 -12.380   3.936  1.00  0.00     0.197 A 
HETATM    2  N   UNL     1      42.241 -12.823   4.743  1.00  0.00    -0.274 N 
HETATM    3  C   UNL     1      43.128 -11.752   4.755  1.00  0.00     0.161 A 
HETATM    4  N   UNL     1      42.635 -10.755   4.044  1.00  0.00    -0.132 NA
HETATM    5  N   UNL     1      41.431 -11.145   3.549  1.00  0.00    -0.122 NA
ENDROOT
BRANCH   1   6
HETATM    6  S   UNL     1      39.698 -13.187   3.683  1.00  0.00    -0.070 SA
BRANCH   6   7
HETATM    7  C   UNL     1      39.969 -14.094   2.111  1.00  0.00     0.180 C 
BRANCH   7   8
HETATM    8  C   UNL     1      39.909 -13.215   0.851  1.00  0.00     0.244 C 
HETATM    9  N   UNL     1      39.554 -13.831  -0.334  1.00  0.00    -0.278 N 
HETATM   10  C   UNL     1      39.842 -13.421  -1.608  1.00  0.00     0.322 C 
HETATM   11  H   UNL     1      39.355 -14.823  -0.315  1.00  0.00     0.173 HD
HETATM   12  N   UNL     1      40.166 -12.110  -1.759  1.00  0.00    -0.343 N 
HETATM   13  O   UNL     1      39.831 -14.241  -2.523  1.00  0.00    -0.247 OA
HETATM   14  H   UNL     1      40.119 -11.517  -0.932  1.00  0.00     0.164 HD
HETATM   15  O   UNL     1      40.065 -11.993   0.929  1.00  0.00    -0.271 OA
BRANCH  12  16
HETATM   16  C   UNL     1      40.547 -11.526  -3.026  1.00  0.00     0.120 C 
HETATM   17  C   UNL     1      40.300 -10.029  -3.069  1.00  0.00     0.026 C 
ENDBRANCH  12  16
ENDBRANCH   7   8
BRANCH   7  18
HETATM   18  C   UNL     1      41.138 -15.064   2.183  1.00  0.00    -0.035 A 
HETATM   19  C   UNL     1      42.370 -14.697   1.610  1.00  0.00     0.009 A 
HETATM   20  C   UNL     1      43.457 -15.571   1.622  1.00  0.00     0.001 A 
HETATM   21  C   UNL     1      43.333 -16.827   2.211  1.00  0.00     0.000 A 
HETATM   22  C   UNL     1      42.123 -17.207   2.785  1.00  0.00     0.001 A 
HETATM   23  C   UNL     1      41.032 -16.334   2.772  1.00  0.00     0.009 A 
ENDBRANCH   7  18
ENDBRANCH   6   7
ENDBRANCH   1   6
BRANCH   2  24
HETATM   24  C   UNL     1      42.396 -14.071   5.394  1.00  0.00     0.043 A 
HETATM   25  C   UNL     1      41.381 -14.558   6.229  1.00  0.00     0.033 A 
HETATM   26  C   UNL     1      41.536 -15.792   6.863  1.00  0.00     0.044 A 
HETATM   27  C   UNL     1      42.701 -16.525   6.669  1.00  0.00     0.116 A 
HETATM   28  F   UNL     1      42.848 -17.706   7.279  1.00  0.00    -0.206 F 
HETATM   29  C   UNL     1      43.719 -16.046   5.853  1.00  0.00     0.044 A 
HETATM   30  C   UNL     1      43.572 -14.814   5.212  1.00  0.00     0.033 A 
ENDBRANCH   2  24
BRANCH   3  31
HETATM   31  C   UNL     1      44.508 -11.738   5.308  1.00  0.00     0.315 C 
BRANCH  31  32
HETATM   32  N   UNL     1      44.595 -10.827   6.530  1.00  0.00    -0.064 N 
HETATM   33  H   UNL     1      44.325  -9.894   6.171  1.00  0.00     0.280 HD
HETATM   34  C   UNL     1      43.571 -11.186   7.583  1.00  0.00     0.235 C 
HETATM   35  C   UNL     1      43.603 -10.155   8.701  1.00  0.00     0.028 C 
HETATM   36  C   UNL     1      45.000 -10.012   9.291  1.00  0.00     0.003 C 
HETATM   37  C   UNL     1      46.025  -9.701   8.206  1.00  0.00     0.028 C 
HETATM   38  C   UNL     1      45.990 -10.727   7.083  1.00  0.00     0.235 C 
ENDBRANCH  31  32
ENDBRANCH   3  31
TORSDOF 8
ENDMDL
MODEL 4
REMARK VINA RESULT:      -8.1      2.513      3.128
REMARK  8 active torsions:
REMARK  status: ('A' for Active; 'I' for Inactive)
REMARK    1  A    between atoms: C_2  and  N_3 
REMARK       I    between atoms: N_3  and  C_4 
REMARK       I    between atoms: C_4  and  N_5 
REMARK       I    between atoms: N_5  and  C_6 
REMARK    2  A    between atoms: C_6  and  C_7 
REMARK    3  A    between atoms: C_7  and  S_8 
REMARK    4  A    between atoms: C_7  and  C_29 
REMARK    5  A    between atoms: S_8  and  C_9 
REMARK    6  A    between atoms: N_10  and  C_11 
REMARK    7  A    between atoms: C_18  and  C_19 
REMARK    8  A    between atoms: C_19  and  N_20 
ROOT
HETATM    1  C   UNL     1      43.253 -13.005   6.311  1.00  0.00     0.197 A 
HETATM    2  N   UNL     1      42.500 -13.878   5.547  1.00  0.00    -0.274 N 
HETATM    3  C   UNL     1      42.508 -15.054   6.288  1.00  0.00     0.161 A 
HETATM    4  N   UNL     1      43.180 -14.871   7.409  1.00  0.00    -0.132 NA
HETATM    5  N   UNL     1      43.629 -13.588   7.426  1.00  0.00    -0.122 NA
ENDROOT
BRANCH   1   6
HETATM    6  S   UNL     1      43.454 -11.311   6.022  1.00  0.00    -0.070 SA
BRANCH   6   7
HETATM    7  C   UNL     1      41.793 -10.626   6.395  1.00  0.00     0.180 C 
BRANCH   7   8
HETATM    8  C   UNL     1      41.775  -9.582   7.525  1.00  0.00     0.244 C 
HETATM    9  N   UNL     1      42.778  -8.632   7.526  1.00  0.00    -0.278 N 
HETATM   10  C   UNL     1      43.243  -7.909   8.591  1.00  0.00     0.322 C 
HETATM   11  H   UNL     1      43.471  -8.670   6.790  1.00  0.00     0.173 HD
HETATM   12  N   UNL     1      42.413  -7.818   9.664  1.00  0.00    -0.343 N 
HETATM   13  O   UNL     1      44.370  -7.423   8.544  1.00  0.00    -0.247 OA
HETATM   14  H   UNL     1      41.491  -8.241   9.581  1.00  0.00     0.164 HD
HETATM   15  O   UNL     1      40.835  -9.540   8.325  1.00  0.00    -0.271 OA
BRANCH  12  16
HETATM   16  C   UNL     1      42.771  -7.136  10.888  1.00  0.00     0.120 C 
HETATM   17  C   UNL     1      43.230  -8.096  11.970  1.00  0.00     0.026 C 
ENDBRANCH  12  16
ENDBRANCH   7   8
BRANCH   7  18
HETATM   18  C   UNL     1      41.011 -10.256   5.144  1.00  0.00    -0.035 A 
HETATM   19  C   UNL     1      39.604 -10.286   5.180  1.00  0.00     0.009 A 
HETATM   20  C   UNL     1      38.850  -9.989   4.045  1.00  0.00     0.001 A 
HETATM   21  C   UNL     1      39.488  -9.652   2.855  1.00  0.00     0.000 A 
HETATM   22  C   UNL     1      40.879  -9.613   2.800  1.00  0.00     0.001 A 
HETATM   23  C   UNL     1      41.637  -9.913   3.935  1.00  0.00     0.009 A 
ENDBRANCH   7  18
ENDBRANCH   6   7
ENDBRANCH   1   6
BRANCH   2  24
HETATM   24  C   UNL     1      41.876 -13.659   4.294  1.00  0.00     0.043 A 
HETATM   25  C   UNL     1      42.654 -13.437   3.150  1.00  0.00     0.033 A 
HETATM   26  C   UNL     1      42.033 -13.229   1.917  1.00  0.00     0.044 A 
HETATM   27  C   UNL     1      40.646 -13.236   1.834  1.00  0.00     0.116 A 
HETATM   28  F   UNL     1      40.053 -13.035   0.652  1.00  0.00    -0.206 F 
HETATM   29  C   UNL     1      39.863 -13.444   2.964  1.00  0.00     0.044 A 
HETATM   30  C   UNL     1      40.475 -13.656   4.202  1.00  0.00     0.033 A 
ENDBRANCH   2  24
BRANCH   3  31
HETATM   31  C   UNL     1      42.016 -16.389   5.857  1.00  0.00     0.315 C 
BRANCH  31  32
HETATM   32  N   UNL     1      42.926 -16.985   4.786  1.00  0.00    -0.064 N 
HETATM   33  H   UNL     1      43.681 -16.285   4.675  1.00  0.00     0.280 HD
HETATM   34  C   UNL     1      43.596 -18.258   5.250  1.00  0.00     0.235 C 
HETATM   35  C   UNL     1      44.602 -18.718   4.206  1.00  0.00     0.028 C 
HETATM   36  C   UNL     1      43.953 -18.883   2.838  1.00  0.00     0.003 C 
HETATM   37  C   UNL     1      43.239 -17.605   2.411  1.00  0.00     0.028 C 
HETATM   38  C   UNL     1      42.238 -17.139   3.458  1.00  0.00     0.235 C 
ENDBRANCH  31  32
ENDBRANCH   3  31
TORSDOF 8
ENDMDL
MODEL 5
REMARK VINA RESULT:      -8.0      3.007      6.138
REMARK  8 active torsions:
REMARK  status: ('A' for Active; 'I' for Inactive)
REMARK    1  A    between atoms: C_2  and  N_3 
REMARK       I    between atoms: N_3  and  C_4 
REMARK       I    between atoms: C_4  and  N_5 
REMARK       I    between atoms: N_5  and  C_6 
REMARK    2  A    between atoms: C_6  and  C_7 
REMARK    3  A    between atoms: C_7  and  S_8 
REMARK    4  A    between atoms: C_7  and  C_29 
REMARK    5  A    between atoms: S_8  and  C_9 
REMARK    6  A    between atoms: N_10  and  C_11 
REMARK    7  A    between atoms: C_18  and  C_19 
REMARK    8  A    between atoms: C_19  and  N_20 
ROOT
HETATM    1  C   UNL     1      40.805 -13.320   4.411  1.00  0.00     0.197 A 
HETATM    2  N   UNL     1      40.921 -14.182   3.335  1.00  0.00    -0.274 N 
HETATM    3  C   UNL     1      39.930 -13.749   2.461  1.00  0.00     0.161 A 
HETATM    4  N   UNL     1      39.312 -12.699   2.969  1.00  0.00    -0.132 NA
HETATM    5  N   UNL     1      39.872 -12.426   4.177  1.00  0.00    -0.122 NA
ENDROOT
BRANCH   1   6
HETATM    6  S   UNL     1      41.891 -13.217   5.754  1.00  0.00    -0.070 SA
BRANCH   6   7
HETATM    7  C   UNL     1      43.255 -12.174   5.107  1.00  0.00     0.180 C 
BRANCH   7   8
HETATM    8  C   UNL     1      42.828 -11.166   4.027  1.00  0.00     0.244 C 
HETATM    9  N   UNL     1      42.120 -10.054   4.442  1.00  0.00    -0.278 N 
HETATM   10  C   UNL     1      41.275  -9.275   3.699  1.00  0.00     0.322 C 
HETATM   11  H   UNL     1      41.918  -9.959   5.429  1.00  0.00     0.173 HD
HETATM   12  N   UNL     1      41.422  -9.346   2.350  1.00  0.00    -0.343 N 
HETATM   13  O   UNL     1      40.423  -8.597   4.267  1.00  0.00    -0.247 OA
HETATM   14  H   UNL     1      42.180  -9.924   1.990  1.00  0.00     0.164 HD
HETATM   15  O   UNL     1      43.203 -11.301   2.858  1.00  0.00    -0.271 OA
BRANCH  12  16
HETATM   16  C   UNL     1      40.578  -8.629   1.420  1.00  0.00     0.120 C 
HETATM   17  C   UNL     1      39.318  -9.401   1.071  1.00  0.00     0.026 C 
ENDBRANCH  12  16
ENDBRANCH   7   8
BRANCH   7  18
HETATM   18  C   UNL     1      44.150 -11.621   6.206  1.00  0.00    -0.035 A 
HETATM   19  C   UNL     1      43.586 -11.311   7.458  1.00  0.00     0.009 A 
HETATM   20  C   UNL     1      44.364 -10.770   8.482  1.00  0.00     0.001 A 
HETATM   21  C   UNL     1      45.720 -10.532   8.272  1.00  0.00     0.000 A 
HETATM   22  C   UNL     1      46.296 -10.835   7.041  1.00  0.00     0.001 A 
HETATM   23  C   UNL     1      45.518 -11.374   6.014  1.00  0.00     0.009 A 
ENDBRANCH   7  18
ENDBRANCH   6   7
ENDBRANCH   1   6
BRANCH   2  24
HETATM   24  C   UNL     1      41.811 -15.268   3.150  1.00  0.00     0.043 A 
HETATM   25  C   UNL     1      41.785 -16.355   4.033  1.00  0.00     0.033 A 
HETATM   26  C   UNL     1      42.661 -17.426   3.842  1.00  0.00     0.044 A 
HETATM   27  C   UNL     1      43.558 -17.401   2.781  1.00  0.00     0.116 A 
HETATM   28  F   UNL     1      44.397 -18.428   2.601  1.00  0.00    -0.206 F 
HETATM   29  C   UNL     1      43.601 -16.322   1.906  1.00  0.00     0.044 A 
HETATM   30  C   UNL     1      42.728 -15.248   2.087  1.00  0.00     0.033 A 
ENDBRANCH   2  24
BRANCH   3  31
HETATM   31  C   UNL     1      39.469 -14.429   1.221  1.00  0.00     0.315 C 
BRANCH  31  32
HETATM   32  N   UNL     1      39.634 -13.518   0.007  1.00  0.00    -0.064 N 
HETATM   33  H   UNL     1      38.905 -12.793   0.132  1.00  0.00     0.280 HD
HETATM   34  C   UNL     1      40.959 -12.789   0.017  1.00  0.00     0.235 C 
HETATM   35  C   UNL     1      41.001 -11.787  -1.126  1.00  0.00     0.028 C 
HETATM   36  C   UNL     1      40.731 -12.457  -2.468  1.00  0.00     0.003 C 
HETATM   37  C   UNL     1      39.416 -13.229  -2.440  1.00  0.00     0.028 C 
HETATM   38  C   UNL     1      39.369 -14.226  -1.292  1.00  0.00     0.235 C 
ENDBRANCH  31  32
ENDBRANCH   3  31
TORSDOF 8
ENDMDL
MODEL 6
REMARK VINA RESULT:      -7.7      3.137      5.872
REMARK  8 active torsions:
REMARK  status: ('A' for Active; 'I' for Inactive)
REMARK    1  A    between atoms: C_2  and  N_3 
REMARK       I    between atoms: N_3  and  C_4 
REMARK       I    between atoms: C_4  and  N_5 
REMARK       I    between atoms: N_5  and  C_6 
REMARK    2  A    between atoms: C_6  and  C_7 
REMARK    3  A    between atoms: C_7  and  S_8 
REMARK    4  A    between atoms: C_7  and  C_29 
REMARK    5  A    between atoms: S_8  and  C_9 
REMARK    6  A    between atoms: N_10  and  C_11 
REMARK    7  A    between atoms: C_18  and  C_19 
REMARK    8  A    between atoms: C_19  and  N_20 
ROOT
HETATM    1  C   UNL     1      42.192 -11.937   3.248  1.00  0.00     0.197 A 
HETATM    2  N   UNL     1      41.551 -12.931   2.530  1.00  0.00    -0.274 N 
HETATM    3  C   UNL     1      40.465 -12.277   1.962  1.00  0.00     0.161 A 
HETATM    4  N   UNL     1      40.489 -10.999   2.292  1.00  0.00    -0.132 NA
HETATM    5  N   UNL     1      41.576 -10.789   3.081  1.00  0.00    -0.122 NA
ENDROOT
BRANCH   1   6
HETATM    6  S   UNL     1      43.730 -12.075   4.028  1.00  0.00    -0.070 SA
BRANCH   6   7
HETATM    7  C   UNL     1      43.284 -12.466   5.764  1.00  0.00     0.180 C 
BRANCH   7   8
HETATM    8  C   UNL     1      42.411 -11.404   6.451  1.00  0.00     0.244 C 
HETATM    9  N   UNL     1      43.055 -10.466   7.235  1.00  0.00    -0.278 N 
HETATM   10  C   UNL     1      42.527  -9.730   8.262  1.00  0.00     0.322 C 
HETATM   11  H   UNL     1      44.062 -10.525   7.319  1.00  0.00     0.173 HD
HETATM   12  N   UNL     1      41.173  -9.611   8.282  1.00  0.00    -0.343 N 
HETATM   13  O   UNL     1      43.276  -9.258   9.113  1.00  0.00    -0.247 OA
HETATM   14  H   UNL     1      40.654 -10.024   7.510  1.00  0.00     0.164 HD
HETATM   15  O   UNL     1      41.201 -11.337   6.215  1.00  0.00    -0.271 OA
BRANCH  12  16
HETATM   16  C   UNL     1      40.453  -8.912   9.323  1.00  0.00     0.120 C 
HETATM   17  C   UNL     1      39.210  -9.663   9.768  1.00  0.00     0.026 C 
ENDBRANCH  12  16
ENDBRANCH   7   8
BRANCH   7  18
HETATM   18  C   UNL     1      42.835 -13.908   5.948  1.00  0.00    -0.035 A 
HETATM   19  C   UNL     1      43.731 -14.950   5.645  1.00  0.00     0.009 A 
HETATM   20  C   UNL     1      43.348 -16.286   5.766  1.00  0.00     0.001 A 
HETATM   21  C   UNL     1      42.062 -16.603   6.196  1.00  0.00     0.000 A 
HETATM   22  C   UNL     1      41.162 -15.586   6.503  1.00  0.00     0.001 A 
HETATM   23  C   UNL     1      41.543 -14.248   6.380  1.00  0.00     0.009 A 
ENDBRANCH   7  18
ENDBRANCH   6   7
ENDBRANCH   1   6
BRANCH   2  24
HETATM   24  C   UNL     1      41.888 -14.301   2.403  1.00  0.00     0.043 A 
HETATM   25  C   UNL     1      43.105 -14.675   1.817  1.00  0.00     0.033 A 
HETATM   26  C   UNL     1      43.434 -16.027   1.702  1.00  0.00     0.044 A 
HETATM   27  C   UNL     1      42.547 -16.994   2.161  1.00  0.00     0.116 A 
HETATM   28  F   UNL     1      42.864 -18.288   2.048  1.00  0.00    -0.206 F 
HETATM   29  C   UNL     1      41.333 -16.635   2.733  1.00  0.00     0.044 A 
HETATM   30  C   UNL     1      40.995 -15.285   2.856  1.00  0.00     0.033 A 
ENDBRANCH   2  24
BRANCH   3  31
HETATM   31  C   UNL     1      39.321 -12.897   1.241  1.00  0.00     0.315 C 
BRANCH  31  32
HETATM   32  N   UNL     1      39.526 -12.821  -0.270  1.00  0.00    -0.064 N 
HETATM   33  H   UNL     1      40.396 -12.270  -0.382  1.00  0.00     0.280 HD
HETATM   34  C   UNL     1      39.806 -14.178  -0.877  1.00  0.00     0.235 C 
HETATM   35  C   UNL     1      40.152 -14.019  -2.349  1.00  0.00     0.028 C 
HETATM   36  C   UNL     1      39.059 -13.273  -3.104  1.00  0.00     0.003 C 
HETATM   37  C   UNL     1      38.756 -11.931  -2.447  1.00  0.00     0.028 C 
HETATM   38  C   UNL     1      38.417 -12.087  -0.972  1.00  0.00     0.235 C 
ENDBRANCH  31  32
ENDBRANCH   3  31
TORSDOF 8
ENDMDL
MODEL 7
REMARK VINA RESULT:      -7.7      3.471      7.845
REMARK  8 active torsions:
REMARK  status: ('A' for Active; 'I' for Inactive)
REMARK    1  A    between atoms: C_2  and  N_3 
REMARK       I    between atoms: N_3  and  C_4 
REMARK       I    between atoms: C_4  and  N_5 
REMARK       I    between atoms: N_5  and  C_6 
REMARK    2  A    between atoms: C_6  and  C_7 
REMARK    3  A    between atoms: C_7  and  S_8 
REMARK    4  A    between atoms: C_7  and  C_29 
REMARK    5  A    between atoms: S_8  and  C_9 
REMARK    6  A    between atoms: N_10  and  C_11 
REMARK    7  A    between atoms: C_18  and  C_19 
REMARK    8  A    between atoms: C_19  and  N_20 
ROOT
HETATM    1  C   UNL     1      42.201 -10.888   4.065  1.00  0.00     0.197 A 
HETATM    2  N   UNL     1      41.975 -11.467   5.301  1.00  0.00    -0.274 N 
HETATM    3  C   UNL     1      41.663 -10.386   6.117  1.00  0.00     0.161 A 
HETATM    4  N   UNL     1      41.670  -9.273   5.407  1.00  0.00    -0.132 NA
HETATM    5  N   UNL     1      41.990  -9.593   4.126  1.00  0.00    -0.122 NA
ENDROOT
BRANCH   1   6
HETATM    6  S   UNL     1      42.443 -11.733   2.575  1.00  0.00    -0.070 SA
BRANCH   6   7
HETATM    7  C   UNL     1      41.168 -13.052   2.632  1.00  0.00     0.180 C 
BRANCH   7   8
HETATM    8  C   UNL     1      39.907 -12.754   1.805  1.00  0.00     0.244 C 
HETATM    9  N   UNL     1      39.918 -13.131   0.476  1.00  0.00    -0.278 N 
HETATM   10  C   UNL     1      39.163 -12.618  -0.545  1.00  0.00     0.322 C 
HETATM   11  H   UNL     1      40.749 -13.580   0.114  1.00  0.00     0.173 HD
HETATM   12  N   UNL     1      38.034 -11.954  -0.183  1.00  0.00    -0.343 N 
HETATM   13  O   UNL     1      39.549 -12.746  -1.704  1.00  0.00    -0.247 OA
HETATM   14  H   UNL     1      37.800 -11.931   0.808  1.00  0.00     0.164 HD
HETATM   15  O   UNL     1      38.895 -12.297   2.345  1.00  0.00    -0.271 OA
BRANCH  12  16
HETATM   16  C   UNL     1      37.154 -11.308  -1.131  1.00  0.00     0.120 C 
HETATM   17  C   UNL     1      37.434  -9.821  -1.259  1.00  0.00     0.026 C 
ENDBRANCH  12  16
ENDBRANCH   7   8
BRANCH   7  18
HETATM   18  C   UNL     1      41.752 -14.447   2.464  1.00  0.00    -0.035 A 
HETATM   19  C   UNL     1      41.011 -15.558   2.908  1.00  0.00     0.009 A 
HETATM   20  C   UNL     1      41.525 -16.851   2.804  1.00  0.00     0.001 A 
HETATM   21  C   UNL     1      42.786 -17.056   2.252  1.00  0.00     0.000 A 
HETATM   22  C   UNL     1      43.533 -15.969   1.805  1.00  0.00     0.001 A 
HETATM   23  C   UNL     1      43.022 -14.673   1.910  1.00  0.00     0.009 A 
ENDBRANCH   7  18
ENDBRANCH   6   7
ENDBRANCH   1   6
BRANCH   2  24
HETATM   24  C   UNL     1      42.058 -12.829   5.680  1.00  0.00     0.043 A 
HETATM   25  C   UNL     1      40.903 -13.523   6.064  1.00  0.00     0.033 A 
HETATM   26  C   UNL     1      40.989 -14.868   6.429  1.00  0.00     0.044 A 
HETATM   27  C   UNL     1      42.223 -15.507   6.417  1.00  0.00     0.116 A 
HETATM   28  F   UNL     1      42.304 -16.795   6.768  1.00  0.00    -0.206 F 
HETATM   29  C   UNL     1      43.378 -14.826   6.048  1.00  0.00     0.044 A 
HETATM   30  C   UNL     1      43.301 -13.481   5.679  1.00  0.00     0.033 A 
ENDBRANCH   2  24
BRANCH   3  31
HETATM   31  C   UNL     1      41.515 -10.392   7.597  1.00  0.00     0.315 C 
BRANCH  31  32
HETATM   32  N   UNL     1      42.788  -9.889   8.273  1.00  0.00    -0.064 N 
HETATM   33  H   UNL     1      43.078  -9.077   7.698  1.00  0.00     0.280 HD
HETATM   34  C   UNL     1      42.523  -9.349   9.660  1.00  0.00     0.235 C 
HETATM   35  C   UNL     1      43.793  -8.725  10.219  1.00  0.00     0.028 C 
HETATM   36  C   UNL     1      44.954  -9.712  10.204  1.00  0.00     0.003 C 
HETATM   37  C   UNL     1      45.172 -10.282   8.806  1.00  0.00     0.028 C 
HETATM   38  C   UNL     1      43.901 -10.900   8.243  1.00  0.00     0.235 C 
ENDBRANCH  31  32
ENDBRANCH   3  31
TORSDOF 8
ENDMDL
MODEL 8
REMARK VINA RESULT:      -7.6      2.586      7.274
REMARK  8 active torsions:
REMARK  status: ('A' for Active; 'I' for Inactive)
REMARK    1  A    between atoms: C_2  and  N_3 
REMARK       I    between atoms: N_3  and  C_4 
REMARK       I    between atoms: C_4  and  N_5 
REMARK       I    between atoms: N_5  and  C_6 
REMARK    2  A    between atoms: C_6  and  C_7 
REMARK    3  A    between atoms: C_7  and  S_8 
REMARK    4  A    between atoms: C_7  and  C_29 
REMARK    5  A    between atoms: S_8  and  C_9 
REMARK    6  A    between atoms: N_10  and  C_11 
REMARK    7  A    between atoms: C_18  and  C_19 
REMARK    8  A    between atoms: C_19  and  N_20 
ROOT
HETATM    1  C   UNL     1      42.178 -13.642   6.259  1.00  0.00     0.197 A 
HETATM    2  N   UNL     1      42.452 -12.301   6.053  1.00  0.00    -0.274 N 
HETATM    3  C   UNL     1      43.596 -12.081   6.811  1.00  0.00     0.161 A 
HETATM    4  N   UNL     1      43.978 -13.207   7.383  1.00  0.00    -0.132 NA
HETATM    5  N   UNL     1      43.100 -14.181   7.024  1.00  0.00    -0.122 NA
ENDROOT
BRANCH   1   6
HETATM    6  S   UNL     1      40.980 -14.575   5.429  1.00  0.00    -0.070 SA
BRANCH   6   7
HETATM    7  C   UNL     1      41.686 -14.754   3.745  1.00  0.00     0.180 C 
BRANCH   7   8
HETATM    8  C   UNL     1      41.962 -16.206   3.322  1.00  0.00     0.244 C 
HETATM    9  N   UNL     1      42.879 -16.920   4.068  1.00  0.00    -0.278 N 
HETATM   10  C   UNL     1      43.610 -18.009   3.676  1.00  0.00     0.322 C 
HETATM   11  H   UNL     1      43.323 -16.456   4.850  1.00  0.00     0.173 HD
HETATM   12  N   UNL     1      43.136 -18.697   2.604  1.00  0.00    -0.343 N 
HETATM   13  O   UNL     1      44.651 -18.283   4.269  1.00  0.00    -0.247 OA
HETATM   14  H   UNL     1      42.250 -18.393   2.206  1.00  0.00     0.164 HD
HETATM   15  O   UNL     1      41.303 -16.733   2.420  1.00  0.00    -0.271 OA
BRANCH  12  16
HETATM   16  C   UNL     1      43.814 -19.839   2.030  1.00  0.00     0.120 C 
HETATM   17  C   UNL     1      43.826 -21.033   2.966  1.00  0.00     0.026 C 
ENDBRANCH  12  16
ENDBRANCH   7   8
BRANCH   7  18
HETATM   18  C   UNL     1      40.979 -13.890   2.712  1.00  0.00    -0.035 A 
HETATM   19  C   UNL     1      39.694 -13.391   3.000  1.00  0.00     0.009 A 
HETATM   20  C   UNL     1      38.996 -12.624   2.066  1.00  0.00     0.001 A 
HETATM   21  C   UNL     1      39.571 -12.340   0.831  1.00  0.00     0.000 A 
HETATM   22  C   UNL     1      40.842 -12.823   0.529  1.00  0.00     0.001 A 
HETATM   23  C   UNL     1      41.542 -13.593   1.461  1.00  0.00     0.009 A 
ENDBRANCH   7  18
ENDBRANCH   6   7
ENDBRANCH   1   6
BRANCH   2  24
HETATM   24  C   UNL     1      41.743 -11.352   5.277  1.00  0.00     0.043 A 
HETATM   25  C   UNL     1      40.501 -10.874   5.716  1.00  0.00     0.033 A 
HETATM   26  C   UNL     1      39.809  -9.933   4.950  1.00  0.00     0.044 A 
HETATM   27  C   UNL     1      40.354  -9.484   3.753  1.00  0.00     0.116 A 
HETATM   28  F   UNL     1      39.689  -8.584   3.020  1.00  0.00    -0.206 F 
HETATM   29  C   UNL     1      41.579  -9.960   3.302  1.00  0.00     0.044 A 
HETATM   30  C   UNL     1      42.280 -10.899   4.062  1.00  0.00     0.033 A 
ENDBRANCH   2  24
BRANCH   3  31
HETATM   31  C   UNL     1      44.230 -10.771   7.117  1.00  0.00     0.315 C 
BRANCH  31  32
HETATM   32  N   UNL     1      43.898 -10.325   8.539  1.00  0.00    -0.064 N 
HETATM   33  H   UNL     1      43.609 -11.197   9.018  1.00  0.00     0.280 HD
HETATM   34  C   UNL     1      45.117  -9.822   9.279  1.00  0.00     0.235 C 
HETATM   35  C   UNL     1      44.755  -9.539  10.729  1.00  0.00     0.028 C 
HETATM   36  C   UNL     1      43.585  -8.570  10.836  1.00  0.00     0.003 C 
HETATM   37  C   UNL     1      42.383  -9.072  10.042  1.00  0.00     0.028 C 
HETATM   38  C   UNL     1      42.744  -9.362   8.592  1.00  0.00     0.235 C 
ENDBRANCH  31  32
ENDBRANCH   3  31
TORSDOF 8
ENDMDL
MODEL 9
REMARK VINA RESULT:      -7.6      3.291      8.100
REMARK  8 active torsions:
REMARK  status: ('A' for Active; 'I' for Inactive)
REMARK    1  A    between atoms: C_2  and  N_3 
REMARK       I    between atoms: N_3  and  C_4 
REMARK       I    between atoms: C_4  and  N_5 
REMARK       I    between atoms: N_5  and  C_6 
REMARK    2  A    between atoms: C_6  and  C_7 
REMARK    3  A    between atoms: C_7  and  S_8 
REMARK    4  A    between atoms: C_7  and  C_29 
REMARK    5  A    between atoms: S_8  and  C_9 
REMARK    6  A    between atoms: N_10  and  C_11 
REMARK    7  A    between atoms: C_18  and  C_19 
REMARK    8  A    between atoms: C_19  and  N_20 
ROOT
HETATM    1  C   UNL     1      41.248 -12.951   5.916  1.00  0.00     0.197 A 
HETATM    2  N   UNL     1      41.892 -11.778   6.265  1.00  0.00    -0.274 N 
HETATM    3  C   UNL     1      40.866 -10.841   6.306  1.00  0.00     0.161 A 
HETATM    4  N   UNL     1      39.714 -11.427   6.039  1.00  0.00    -0.132 NA
HETATM    5  N   UNL     1      39.956 -12.745   5.812  1.00  0.00    -0.122 NA
ENDROOT
BRANCH   1   6
HETATM    6  S   UNL     1      41.954 -14.531   5.890  1.00  0.00    -0.070 SA
BRANCH   6   7
HETATM    7  C   UNL     1      41.669 -15.087   4.166  1.00  0.00     0.180 C 
BRANCH   7   8
HETATM    8  C   UNL     1      41.722 -13.963   3.117  1.00  0.00     0.244 C 
HETATM    9  N   UNL     1      40.529 -13.354   2.781  1.00  0.00    -0.278 N 
HETATM   10  C   UNL     1      40.230 -12.683   1.626  1.00  0.00     0.322 C 
HETATM   11  H   UNL     1      39.684 -13.676   3.236  1.00  0.00     0.173 HD
HETATM   12  N   UNL     1      41.287 -12.232   0.901  1.00  0.00    -0.343 N 
HETATM   13  O   UNL     1      39.055 -12.555   1.289  1.00  0.00    -0.247 OA
HETATM   14  H   UNL     1      42.217 -12.374   1.290  1.00  0.00     0.164 HD
HETATM   15  O   UNL     1      42.806 -13.558   2.686  1.00  0.00    -0.271 OA
BRANCH  12  16
HETATM   16  C   UNL     1      41.149 -11.551  -0.367  1.00  0.00     0.120 C 
HETATM   17  C   UNL     1      41.360 -10.053  -0.243  1.00  0.00     0.026 C 
ENDBRANCH  12  16
ENDBRANCH   7   8
BRANCH   7  18
HETATM   18  C   UNL     1      42.440 -16.351   3.816  1.00  0.00    -0.035 A 
HETATM   19  C   UNL     1      43.416 -16.828   4.711  1.00  0.00     0.009 A 
HETATM   20  C   UNL     1      44.170 -17.963   4.413  1.00  0.00     0.001 A 
HETATM   21  C   UNL     1      43.960 -18.643   3.217  1.00  0.00     0.000 A 
HETATM   22  C   UNL     1      42.997 -18.187   2.320  1.00  0.00     0.001 A 
HETATM   23  C   UNL     1      42.242 -17.049   2.615  1.00  0.00     0.009 A 
ENDBRANCH   7  18
ENDBRANCH   6   7
ENDBRANCH   1   6
BRANCH   2  24
HETATM   24  C   UNL     1      43.269 -11.551   6.507  1.00  0.00     0.043 A 
HETATM   25  C   UNL     1      43.726 -11.328   7.813  1.00  0.00     0.033 A 
HETATM   26  C   UNL     1      45.086 -11.112   8.046  1.00  0.00     0.044 A 
HETATM   27  C   UNL     1      45.976 -11.111   6.979  1.00  0.00     0.116 A 
HETATM   28  F   UNL     1      47.278 -10.902   7.205  1.00  0.00    -0.206 F 
HETATM   29  C   UNL     1      45.533 -11.320   5.678  1.00  0.00     0.044 A 
HETATM   30  C   UNL     1      44.175 -11.539   5.435  1.00  0.00     0.033 A 
ENDBRANCH   2  24
BRANCH   3  31
HETATM   31  C   UNL     1      41.003  -9.366   6.442  1.00  0.00     0.315 C 
BRANCH  31  32
HETATM   32  N   UNL     1      41.671  -9.002   7.766  1.00  0.00    -0.064 N 
HETATM   33  H   UNL     1      42.315  -9.791   7.952  1.00  0.00     0.280 HD
HETATM   34  C   UNL     1      42.539  -7.769   7.647  1.00  0.00     0.235 C 
HETATM   35  C   UNL     1      43.295  -7.547   8.948  1.00  0.00     0.028 C 
HETATM   36  C   UNL     1      42.347  -7.463  10.138  1.00  0.00     0.003 C 
HETATM   37  C   UNL     1      41.446  -8.691  10.210  1.00  0.00     0.028 C 
HETATM   38  C   UNL     1      40.695  -8.920   8.907  1.00  0.00     0.235 C 
ENDBRANCH  31  32
ENDBRANCH   3  31
TORSDOF 8
ENDMDL
MODEL 10
REMARK VINA RESULT:      -7.5      2.812      7.370
REMARK  8 active torsions:
REMARK  status: ('A' for Active; 'I' for Inactive)
REMARK    1  A    between atoms: C_2  and  N_3 
REMARK       I    between atoms: N_3  and  C_4 
REMARK       I    between atoms: C_4  and  N_5 
REMARK       I    between atoms: N_5  and  C_6 
REMARK    2  A    between atoms: C_6  and  C_7 
REMARK    3  A    between atoms: C_7  and  S_8 
REMARK    4  A    between atoms: C_7  and  C_29 
REMARK    5  A    between atoms: S_8  and  C_9 
REMARK    6  A    between atoms: N_10  and  C_11 
REMARK    7  A    between atoms: C_18  and  C_19 
REMARK    8  A    between atoms: C_19  and  N_20 
ROOT
HETATM    1  C   UNL     1      42.000 -13.947   6.135  1.00  0.00     0.197 A 
HETATM    2  N   UNL     1      41.954 -12.565   6.088  1.00  0.00    -0.274 N 
HETATM    3  C   UNL     1      43.260 -12.183   6.374  1.00  0.00     0.161 A 
HETATM    4  N   UNL     1      44.013 -13.255   6.539  1.00  0.00    -0.132 NA
HETATM    5  N   UNL     1      43.227 -14.351   6.374  1.00  0.00    -0.122 NA
ENDROOT
BRANCH   1   6
HETATM    6  S   UNL     1      40.728 -15.024   5.674  1.00  0.00    -0.070 SA
BRANCH   6   7
HETATM    7  C   UNL     1      41.093 -15.368   3.909  1.00  0.00     0.180 C 
BRANCH   7   8
HETATM    8  C   UNL     1      41.321 -14.114   3.050  1.00  0.00     0.244 C 
HETATM    9  N   UNL     1      40.201 -13.441   2.602  1.00  0.00    -0.278 N 
HETATM   10  C   UNL     1      40.102 -12.613   1.516  1.00  0.00     0.322 C 
HETATM   11  H   UNL     1      39.292 -13.805   2.858  1.00  0.00     0.173 HD
HETATM   12  N   UNL     1      41.266 -12.089   1.051  1.00  0.00    -0.343 N 
HETATM   13  O   UNL     1      39.001 -12.418   1.005  1.00  0.00    -0.247 OA
HETATM   14  H   UNL     1      42.116 -12.301   1.569  1.00  0.00     0.164 HD
HETATM   15  O   UNL     1      42.461 -13.676   2.869  1.00  0.00    -0.271 OA
BRANCH  12  16
HETATM   16  C   UNL     1      41.344 -11.239  -0.116  1.00  0.00     0.120 C 
HETATM   17  C   UNL     1      41.437  -9.768   0.246  1.00  0.00     0.026 C 
ENDBRANCH  12  16
ENDBRANCH   7   8
BRANCH   7  18
HETATM   18  C   UNL     1      42.107 -16.488   3.723  1.00  0.00    -0.035 A 
HETATM   19  C   UNL     1      42.283 -17.047   2.443  1.00  0.00     0.009 A 
HETATM   20  C   UNL     1      43.176 -18.098   2.236  1.00  0.00     0.001 A 
HETATM   21  C   UNL     1      43.911 -18.607   3.303  1.00  0.00     0.000 A 
HETATM   22  C   UNL     1      43.752 -18.065   4.576  1.00  0.00     0.001 A 
HETATM   23  C   UNL     1      42.857 -17.013   4.786  1.00  0.00     0.009 A 
ENDBRANCH   7  18
ENDBRANCH   6   7
ENDBRANCH   1   6
BRANCH   2  24
HETATM   24  C   UNL     1      40.850 -11.715   5.832  1.00  0.00     0.043 A 
HETATM   25  C   UNL     1      39.767 -11.684   6.721  1.00  0.00     0.033 A 
HETATM   26  C   UNL     1      38.685 -10.839   6.467  1.00  0.00     0.044 A 
HETATM   27  C   UNL     1      38.686 -10.040   5.330  1.00  0.00     0.116 A 
HETATM   28  F   UNL     1      37.647  -9.233   5.088  1.00  0.00    -0.206 F 
HETATM   29  C   UNL     1      39.749 -10.071   4.435  1.00  0.00     0.044 A 
HETATM   30  C   UNL     1      40.838 -10.911   4.681  1.00  0.00     0.033 A 
ENDBRANCH   2  24
BRANCH   3  31
HETATM   31  C   UNL     1      43.752 -10.807   6.647  1.00  0.00     0.315 C 
BRANCH  31  32
HETATM   32  N   UNL     1      43.818 -10.540   8.149  1.00  0.00    -0.064 N 
HETATM   33  H   UNL     1      43.656 -11.468   8.579  1.00  0.00     0.280 HD
HETATM   34  C   UNL     1      45.197 -10.105   8.592  1.00  0.00     0.235 C 
HETATM   35  C   UNL     1      45.240 -10.005  10.109  1.00  0.00     0.028 C 
HETATM   36  C   UNL     1      44.153  -9.078  10.640  1.00  0.00     0.003 C 
HETATM   37  C   UNL     1      42.776  -9.504  10.140  1.00  0.00     0.028 C 
HETATM   38  C   UNL     1      42.734  -9.612   8.623  1.00  0.00     0.235 C 
ENDBRANCH  31  32
ENDBRANCH   3  31
TORSDOF 8
ENDMDL
