MODEL 1
REMARK VINA RESULT:      -9.0      0.000      0.000
REMARK  8 active torsions:
REMARK  status: ('A' for Active; 'I' for Inactive)
REMARK    1  A    between atoms: C_2  and  C_3 
REMARK    2  A    between atoms: C_3  and  O_4 
REMARK    3  A    between atoms: O_4  and  C_5 
REMARK    4  A    between atoms: C_8  and  C_9 
REMARK    5  A    between atoms: N_10  and  C_11 
REMARK    6  A    between atoms: C_11  and  C_12 
REMARK    7  A    between atoms: C_25  and  C_26 
REMARK    8  A    between atoms: C_27  and  O_28 
ROOT
HETATM    1  C   UNL     1      41.647 -15.918   5.107  1.00  0.00     0.159 A 
HETATM    2  N   UNL     1      41.638 -14.727   6.002  1.00  0.00    -0.329 N 
HETATM    3  C   UNL     1      42.833 -14.543   6.710  1.00  0.00     0.273 A 
HETATM    4  O   UNL     1      43.089 -13.715   7.566  1.00  0.00    -0.266 OA
HETATM    5  C   UNL     1      43.665 -15.582   6.233  1.00  0.00     0.129 A 
HETATM    6  C   UNL     1      43.034 -16.384   5.330  1.00  0.00     0.034 A 
HETATM    7  N   UNL     1      44.913 -16.046   6.391  1.00  0.00    -0.272 N 
HETATM    8  H   UNL     1      45.661 -15.694   6.981  1.00  0.00     0.189 HD
HETATM    9  N   UNL     1      45.139 -17.140   5.618  1.00  0.00    -0.173 NA
HETATM   10  C   UNL     1      43.978 -17.351   4.954  1.00  0.00     0.101 A 
ENDROOT
BRANCH   1  11
HETATM   11  C   UNL     1      41.518 -15.604   3.636  1.00  0.00    -0.030 A 
HETATM   12  C   UNL     1      40.484 -16.118   2.836  1.00  0.00     0.012 A 
HETATM   13  C   UNL     1      40.342 -15.709   1.508  1.00  0.00     0.037 A 
HETATM   14  C   UNL     1      41.219 -14.777   0.957  1.00  0.00     0.069 A 
HETATM   15  C   UNL     1      42.289 -14.308   1.717  1.00  0.00     0.037 A 
HETATM   16  C   UNL     1      42.433 -14.715   3.047  1.00  0.00     0.012 A 
BRANCH  14  17
HETATM   17  O   UNL     1      40.946 -14.399  -0.330  1.00  0.00    -0.348 OA
BRANCH  17  18
HETATM   18  C   UNL     1      39.569 -14.475  -0.708  1.00  0.00     0.202 C 
BRANCH  18  19
HETATM   19  C   UNL     1      39.498 -14.308  -2.196  1.00  0.00    -0.011 C 
HETATM   20  C   UNL     1      38.659 -14.981  -2.995  1.00  0.00     0.009 C 
ENDBRANCH  18  19
ENDBRANCH  17  18
ENDBRANCH  14  17
ENDBRANCH   1  11
BRANCH   2  21
HETATM   21  C   UNL     1      40.408 -14.056   6.362  1.00  0.00     0.167 C 
BRANCH  21  22
HETATM   22  C   UNL     1      40.213 -12.789   5.575  1.00  0.00    -0.023 A 
HETATM   23  C   UNL     1      40.721 -11.575   6.027  1.00  0.00     0.125 A 
HETATM   24  N   UNL     1      40.623 -10.411   5.346  1.00  0.00    -0.273 NA
HETATM   25  C   UNL     1      39.983 -10.452   4.159  1.00  0.00     0.116 A 
HETATM   26  C   UNL     1      39.435 -11.603   3.620  1.00  0.00     0.020 A 
HETATM   27  C   UNL     1      39.552 -12.787   4.342  1.00  0.00     0.012 A 
ENDBRANCH  21  22
ENDBRANCH   2  21
BRANCH  10  28
HETATM   28  C   UNL     1      43.828 -18.433   3.988  1.00  0.00     0.028 A 
HETATM   29  C   UNL     1      43.958 -19.783   4.344  1.00  0.00     0.078 A 
HETATM   30  C   UNL     1      43.701 -20.797   3.422  1.00  0.00     0.037 A 
HETATM   31  C   UNL     1      43.347 -20.471   2.112  1.00  0.00     0.003 A 
HETATM   32  C   UNL     1      43.250 -19.134   1.731  1.00  0.00     0.001 A 
HETATM   33  C   UNL     1      43.486 -18.121   2.664  1.00  0.00     0.017 A 
BRANCH  29  34
HETATM   34  O   UNL     1      44.361 -20.187   5.589  1.00  0.00    -0.360 OA
HETATM   35  H   UNL     1      44.024 -19.528   6.223  1.00  0.00     0.217 HD
ENDBRANCH  29  34
ENDBRANCH  10  28
TORSDOF 8
ENDMDL
MODEL 2
REMARK VINA RESULT:      -8.8      1.574      6.211
REMARK  8 active torsions:
REMARK  status: ('A' for Active; 'I' for Inactive)
REMARK    1  A    between atoms: C_2  and  C_3 
REMARK    2  A    between atoms: C_3  and  O_4 
REMARK    3  A    between atoms: O_4  and  C_5 
REMARK    4  A    between atoms: C_8  and  C_9 
REMARK    5  A    between atoms: N_10  and  C_11 
REMARK    6  A    between atoms: C_11  and  C_12 
REMARK    7  A    between atoms: C_25  and  C_26 
REMARK    8  A    between atoms: C_27  and  O_28 
ROOT
HETATM    1  C   UNL     1      42.373 -14.952   4.217  1.00  0.00     0.159 A 
HETATM    2  N   UNL     1      42.893 -16.245   4.742  1.00  0.00    -0.329 N 
HETATM    3  C   UNL     1      42.284 -16.658   5.934  1.00  0.00     0.273 A 
HETATM    4  O   UNL     1      42.554 -17.619   6.632  1.00  0.00    -0.266 OA
HETATM    5  C   UNL     1      41.306 -15.664   6.168  1.00  0.00     0.129 A 
HETATM    6  C   UNL     1      41.325 -14.680   5.226  1.00  0.00     0.034 A 
HETATM    7  N   UNL     1      40.338 -15.370   7.050  1.00  0.00    -0.272 N 
HETATM    8  H   UNL     1      40.042 -15.882   7.875  1.00  0.00     0.189 HD
HETATM    9  N   UNL     1      39.705 -14.213   6.725  1.00  0.00    -0.173 NA
HETATM   10  C   UNL     1      40.310 -13.783   5.592  1.00  0.00     0.101 A 
ENDROOT
BRANCH   1  11
HETATM   11  C   UNL     1      41.683 -15.044   2.878  1.00  0.00    -0.030 A 
HETATM   12  C   UNL     1      40.643 -15.952   2.619  1.00  0.00     0.012 A 
HETATM   13  C   UNL     1      39.960 -15.923   1.401  1.00  0.00     0.037 A 
HETATM   14  C   UNL     1      40.293 -14.985   0.425  1.00  0.00     0.069 A 
HETATM   15  C   UNL     1      41.365 -14.122   0.642  1.00  0.00     0.037 A 
HETATM   16  C   UNL     1      42.050 -14.148   1.860  1.00  0.00     0.012 A 
BRANCH  14  17
HETATM   17  O   UNL     1      39.515 -15.004  -0.701  1.00  0.00    -0.348 OA
BRANCH  17  18
HETATM   18  C   UNL     1      39.396 -13.752  -1.381  1.00  0.00     0.202 C 
BRANCH  18  19
HETATM   19  C   UNL     1      39.283 -14.043  -2.847  1.00  0.00    -0.011 C 
HETATM   20  C   UNL     1      38.319 -14.792  -3.400  1.00  0.00     0.009 C 
ENDBRANCH  18  19
ENDBRANCH  17  18
ENDBRANCH  14  17
ENDBRANCH   1  11
BRANCH   2  21
HETATM   21  C   UNL     1      44.133 -16.816   4.262  1.00  0.00     0.167 C 
BRANCH  21  22
HETATM   22  C   UNL     1      43.929 -18.195   3.695  1.00  0.00    -0.023 A 
HETATM   23  C   UNL     1      44.316 -19.329   4.401  1.00  0.00     0.125 A 
HETATM   24  N   UNL     1      44.118 -20.595   3.970  1.00  0.00    -0.273 NA
HETATM   25  C   UNL     1      43.510 -20.744   2.774  1.00  0.00     0.116 A 
HETATM   26  C   UNL     1      43.091 -19.685   1.988  1.00  0.00     0.020 A 
HETATM   27  C   UNL     1      43.307 -18.392   2.458  1.00  0.00     0.012 A 
ENDBRANCH  21  22
ENDBRANCH   2  21
BRANCH  10  28
HETATM   28  C   UNL     1      39.886 -12.569   4.905  1.00  0.00     0.028 A 
HETATM   29  C   UNL     1      40.074 -11.291   5.450  1.00  0.00     0.078 A 
HETATM   30  C   UNL     1      39.757 -10.146   4.721  1.00  0.00     0.037 A 
HETATM   31  C   UNL     1      39.209 -10.265   3.444  1.00  0.00     0.003 A 
HETATM   32  C   UNL     1      38.981 -11.528   2.901  1.00  0.00     0.001 A 
HETATM   33  C   UNL     1      39.320 -12.673   3.625  1.00  0.00     0.017 A 
BRANCH  29  34
HETATM   34  O   UNL     1      40.547 -11.087   6.719  1.00  0.00    -0.360 OA
HETATM   35  H   UNL     1      39.953 -10.440   7.141  1.00  0.00     0.217 HD
ENDBRANCH  29  34
ENDBRANCH  10  28
TORSDOF 8
ENDMDL
MODEL 3
REMARK VINA RESULT:      -8.6      1.924      6.316
REMARK  8 active torsions:
REMARK  status: ('A' for Active; 'I' for Inactive)
REMARK    1  A    between atoms: C_2  and  C_3 
REMARK    2  A    between atoms: C_3  and  O_4 
REMARK    3  A    between atoms: O_4  and  C_5 
REMARK    4  A    between atoms: C_8  and  C_9 
REMARK    5  A    between atoms: N_10  and  C_11 
REMARK    6  A    between atoms: C_11  and  C_12 
REMARK    7  A    between atoms: C_25  and  C_26 
REMARK    8  A    between atoms: C_27  and  O_28 
ROOT
HETATM    1  C   UNL     1      42.318 -13.074   3.285  1.00  0.00     0.159 A 
HETATM    2  N   UNL     1      42.275 -12.802   4.749  1.00  0.00    -0.329 N 
HETATM    3  C   UNL     1      41.103 -12.163   5.172  1.00  0.00     0.273 A 
HETATM    4  O   UNL     1      40.823 -11.746   6.282  1.00  0.00    -0.266 OA
HETATM    5  C   UNL     1      40.333 -12.067   3.990  1.00  0.00     0.129 A 
HETATM    6  C   UNL     1      40.983 -12.565   2.901  1.00  0.00     0.034 A 
HETATM    7  N   UNL     1      39.132 -11.627   3.586  1.00  0.00    -0.272 N 
HETATM    8  H   UNL     1      38.387 -11.200   4.127  1.00  0.00     0.189 HD
HETATM    9  N   UNL     1      38.957 -11.817   2.251  1.00  0.00    -0.173 NA
HETATM   10  C   UNL     1      40.100 -12.402   1.823  1.00  0.00     0.101 A 
ENDROOT
BRANCH   1  11
HETATM   11  C   UNL     1      42.357 -14.536   2.914  1.00  0.00    -0.030 A 
HETATM   12  C   UNL     1      43.258 -15.059   1.972  1.00  0.00     0.012 A 
HETATM   13  C   UNL     1      43.332 -16.436   1.745  1.00  0.00     0.037 A 
HETATM   14  C   UNL     1      42.519 -17.315   2.458  1.00  0.00     0.069 A 
HETATM   15  C   UNL     1      41.575 -16.807   3.348  1.00  0.00     0.037 A 
HETATM   16  C   UNL     1      41.499 -15.430   3.578  1.00  0.00     0.012 A 
BRANCH  14  17
HETATM   17  O   UNL     1      42.723 -18.644   2.204  1.00  0.00    -0.348 OA
BRANCH  17  18
HETATM   18  C   UNL     1      43.988 -19.158   2.626  1.00  0.00     0.202 C 
BRANCH  18  19
HETATM   19  C   UNL     1      43.963 -19.250   4.122  1.00  0.00    -0.011 C 
HETATM   20  C   UNL     1      44.232 -20.363   4.818  1.00  0.00     0.009 C 
ENDBRANCH  18  19
ENDBRANCH  17  18
ENDBRANCH  14  17
ENDBRANCH   1  11
BRANCH   2  21
HETATM   21  C   UNL     1      43.466 -12.869   5.569  1.00  0.00     0.167 C 
BRANCH  21  22
HETATM   22  C   UNL     1      43.596 -14.202   6.255  1.00  0.00    -0.023 A 
HETATM   23  C   UNL     1      42.829 -14.515   7.374  1.00  0.00     0.125 A 
HETATM   24  N   UNL     1      42.863 -15.709   8.006  1.00  0.00    -0.273 NA
HETATM   25  C   UNL     1      43.705 -16.639   7.508  1.00  0.00     0.116 A 
HETATM   26  C   UNL     1      44.516 -16.431   6.405  1.00  0.00     0.020 A 
HETATM   27  C   UNL     1      44.459 -15.192   5.773  1.00  0.00     0.012 A 
ENDBRANCH  21  22
ENDBRANCH   2  21
BRANCH  10  28
HETATM   28  C   UNL     1      40.290 -12.797   0.432  1.00  0.00     0.028 A 
HETATM   29  C   UNL     1      39.961 -14.076  -0.038  1.00  0.00     0.078 A 
HETATM   30  C   UNL     1      40.052 -14.389  -1.394  1.00  0.00     0.037 A 
HETATM   31  C   UNL     1      40.512 -13.431  -2.297  1.00  0.00     0.003 A 
HETATM   32  C   UNL     1      40.878 -12.165  -1.842  1.00  0.00     0.001 A 
HETATM   33  C   UNL     1      40.765 -11.849  -0.486  1.00  0.00     0.017 A 
BRANCH  29  34
HETATM   34  O   UNL     1      39.562 -15.092   0.790  1.00  0.00    -0.360 OA
HETATM   35  H   UNL     1      39.178 -14.675   1.583  1.00  0.00     0.217 HD
ENDBRANCH  29  34
ENDBRANCH  10  28
TORSDOF 8
ENDMDL
MODEL 4
REMARK VINA RESULT:      -8.2      2.433      6.789
REMARK  8 active torsions:
REMARK  status: ('A' for Active; 'I' for Inactive)
REMARK    1  A    between atoms: C_2  and  C_3 
REMARK    2  A    between atoms: C_3  and  O_4 
REMARK    3  A    between atoms: O_4  and  C_5 
REMARK    4  A    between atoms: C_8  and  C_9 
REMARK    5  A    between atoms: N_10  and  C_11 
REMARK    6  A    between atoms: C_11  and  C_12 
REMARK    7  A    between atoms: C_25  and  C_26 
REMARK    8  A    between atoms: C_27  and  O_28 
ROOT
HETATM    1  C   UNL     1      40.820 -11.904   2.585  1.00  0.00     0.159 A 
HETATM    2  N   UNL     1      40.371 -11.537   3.957  1.00  0.00    -0.329 N 
HETATM    3  C   UNL     1      39.072 -11.014   4.006  1.00  0.00     0.273 A 
HETATM    4  O   UNL     1      38.473 -10.557   4.962  1.00  0.00    -0.266 OA
HETATM    5  C   UNL     1      38.631 -11.096   2.664  1.00  0.00     0.129 A 
HETATM    6  C   UNL     1      39.587 -11.588   1.829  1.00  0.00     0.034 A 
HETATM    7  N   UNL     1      37.540 -10.833   1.930  1.00  0.00    -0.272 N 
HETATM    8  H   UNL     1      36.641 -10.462   2.222  1.00  0.00     0.189 HD
HETATM    9  N   UNL     1      37.738 -11.136   0.620  1.00  0.00    -0.173 NA
HETATM   10  C   UNL     1      39.005 -11.609   0.553  1.00  0.00     0.101 A 
ENDROOT
BRANCH   1  11
HETATM   11  C   UNL     1      41.097 -13.374   2.383  1.00  0.00    -0.030 A 
HETATM   12  C   UNL     1      42.353 -13.864   1.988  1.00  0.00     0.012 A 
HETATM   13  C   UNL     1      42.591 -15.240   1.924  1.00  0.00     0.037 A 
HETATM   14  C   UNL     1      41.589 -16.148   2.260  1.00  0.00     0.069 A 
HETATM   15  C   UNL     1      40.319 -15.678   2.589  1.00  0.00     0.037 A 
HETATM   16  C   UNL     1      40.078 -14.303   2.656  1.00  0.00     0.012 A 
BRANCH  14  17
HETATM   17  O   UNL     1      41.954 -17.467   2.226  1.00  0.00    -0.348 OA
BRANCH  17  18
HETATM   18  C   UNL     1      43.353 -17.716   2.377  1.00  0.00     0.202 C 
BRANCH  18  19
HETATM   19  C   UNL     1      43.519 -19.162   2.737  1.00  0.00    -0.011 C 
HETATM   20  C   UNL     1      43.333 -20.182   1.887  1.00  0.00     0.009 C 
ENDBRANCH  18  19
ENDBRANCH  17  18
ENDBRANCH  14  17
ENDBRANCH   1  11
BRANCH   2  21
HETATM   21  C   UNL     1      41.307 -11.402   5.052  1.00  0.00     0.167 C 
BRANCH  21  22
HETATM   22  C   UNL     1      41.632 -12.733   5.674  1.00  0.00    -0.023 A 
HETATM   23  C   UNL     1      40.627 -13.577   6.135  1.00  0.00     0.125 A 
HETATM   24  N   UNL     1      40.849 -14.804   6.659  1.00  0.00    -0.273 NA
HETATM   25  C   UNL     1      42.134 -15.211   6.735  1.00  0.00     0.116 A 
HETATM   26  C   UNL     1      43.208 -14.449   6.312  1.00  0.00     0.020 A 
HETATM   27  C   UNL     1      42.950 -13.191   5.775  1.00  0.00     0.012 A 
ENDBRANCH  21  22
ENDBRANCH   2  21
BRANCH  10  28
HETATM   28  C   UNL     1      39.588 -12.076  -0.699  1.00  0.00     0.028 A 
HETATM   29  C   UNL     1      38.873 -12.860  -1.616  1.00  0.00     0.078 A 
HETATM   30  C   UNL     1      39.421 -13.199  -2.852  1.00  0.00     0.037 A 
HETATM   31  C   UNL     1      40.715 -12.788  -3.174  1.00  0.00     0.003 A 
HETATM   32  C   UNL     1      41.454 -12.040  -2.259  1.00  0.00     0.001 A 
HETATM   33  C   UNL     1      40.894 -11.684  -1.031  1.00  0.00     0.017 A 
BRANCH  29  34
HETATM   34  O   UNL     1      37.623 -13.356  -1.353  1.00  0.00    -0.360 OA
HETATM   35  H   UNL     1      36.984 -12.723  -1.728  1.00  0.00     0.217 HD
ENDBRANCH  29  34
ENDBRANCH  10  28
TORSDOF 8
ENDMDL
MODEL 5
REMARK VINA RESULT:      -7.8      2.931      7.983
REMARK  8 active torsions:
REMARK  status: ('A' for Active; 'I' for Inactive)
REMARK    1  A    between atoms: C_2  and  C_3 
REMARK    2  A    between atoms: C_3  and  O_4 
REMARK    3  A    between atoms: O_4  and  C_5 
REMARK    4  A    between atoms: C_8  and  C_9 
REMARK    5  A    between atoms: N_10  and  C_11 
REMARK    6  A    between atoms: C_11  and  C_12 
REMARK    7  A    between atoms: C_25  and  C_26 
REMARK    8  A    between atoms: C_27  and  O_28 
ROOT
HETATM    1  C   UNL     1      40.497 -13.886   3.907  1.00  0.00     0.159 A 
HETATM    2  N   UNL     1      40.911 -15.309   3.759  1.00  0.00    -0.329 N 
HETATM    3  C   UNL     1      41.220 -15.674   2.443  1.00  0.00     0.273 A 
HETATM    4  O   UNL     1      41.507 -16.775   2.008  1.00  0.00    -0.266 OA
HETATM    5  C   UNL     1      41.074 -14.467   1.721  1.00  0.00     0.129 A 
HETATM    6  C   UNL     1      40.663 -13.434   2.508  1.00  0.00     0.034 A 
HETATM    7  N   UNL     1      41.213 -14.001   0.471  1.00  0.00    -0.272 N 
HETATM    8  H   UNL     1      41.505 -14.490  -0.370  1.00  0.00     0.189 HD
HETATM    9  N   UNL     1      40.905 -12.680   0.396  1.00  0.00    -0.173 NA
HETATM   10  C   UNL     1      40.568 -12.322   1.657  1.00  0.00     0.101 A 
ENDROOT
BRANCH   1  11
HETATM   11  C   UNL     1      41.420 -13.044   4.755  1.00  0.00    -0.030 A 
HETATM   12  C   UNL     1      42.819 -13.133   4.676  1.00  0.00     0.012 A 
HETATM   13  C   UNL     1      43.630 -12.254   5.398  1.00  0.00     0.037 A 
HETATM   14  C   UNL     1      43.063 -11.267   6.202  1.00  0.00     0.069 A 
HETATM   15  C   UNL     1      41.678 -11.208   6.342  1.00  0.00     0.037 A 
HETATM   16  C   UNL     1      40.864 -12.085   5.620  1.00  0.00     0.012 A 
BRANCH  14  17
HETATM   17  O   UNL     1      43.951 -10.421   6.810  1.00  0.00    -0.348 OA
BRANCH  17  18
HETATM   18  C   UNL     1      45.089 -11.052   7.399  1.00  0.00     0.202 C 
BRANCH  18  19
HETATM   19  C   UNL     1      46.017  -9.971   7.865  1.00  0.00    -0.011 C 
HETATM   20  C   UNL     1      45.623  -8.845   8.477  1.00  0.00     0.009 C 
ENDBRANCH  18  19
ENDBRANCH  17  18
ENDBRANCH  14  17
ENDBRANCH   1  11
BRANCH   2  21
HETATM   21  C   UNL     1      40.668 -16.283   4.802  1.00  0.00     0.167 C 
BRANCH  21  22
HETATM   22  C   UNL     1      41.852 -16.424   5.719  1.00  0.00    -0.023 A 
HETATM   23  C   UNL     1      42.990 -17.121   5.326  1.00  0.00     0.125 A 
HETATM   24  N   UNL     1      44.104 -17.244   6.082  1.00  0.00    -0.273 NA
HETATM   25  C   UNL     1      44.086 -16.649   7.294  1.00  0.00     0.116 A 
HETATM   26  C   UNL     1      43.005 -15.938   7.786  1.00  0.00     0.020 A 
HETATM   27  C   UNL     1      41.873 -15.827   6.984  1.00  0.00     0.012 A 
ENDBRANCH  21  22
ENDBRANCH   2  21
BRANCH  10  28
HETATM   28  C   UNL     1      40.199 -10.953   1.998  1.00  0.00     0.028 A 
HETATM   29  C   UNL     1      40.984  -9.850   1.634  1.00  0.00     0.078 A 
HETATM   30  C   UNL     1      40.550  -8.548   1.879  1.00  0.00     0.037 A 
HETATM   31  C   UNL     1      39.336  -8.332   2.531  1.00  0.00     0.003 A 
HETATM   32  C   UNL     1      38.560  -9.417   2.933  1.00  0.00     0.001 A 
HETATM   33  C   UNL     1      38.987 -10.720   2.666  1.00  0.00     0.017 A 
BRANCH  29  34
HETATM   34  O   UNL     1      42.216  -9.976   1.048  1.00  0.00    -0.360 OA
HETATM   35  H   UNL     1      42.594 -10.817   1.364  1.00  0.00     0.217 HD
ENDBRANCH  29  34
ENDBRANCH  10  28
TORSDOF 8
ENDMDL
MODEL 6
REMARK VINA RESULT:      -7.6      1.704      2.417
REMARK  8 active torsions:
REMARK  status: ('A' for Active; 'I' for Inactive)
REMARK    1  A    between atoms: C_2  and  C_3 
REMARK    2  A    between atoms: C_3  and  O_4 
REMARK    3  A    between atoms: O_4  and  C_5 
REMARK    4  A    between atoms: C_8  and  C_9 
REMARK    5  A    between atoms: N_10  and  C_11 
REMARK    6  A    between atoms: C_11  and  C_12 
REMARK    7  A    between atoms: C_25  and  C_26 
REMARK    8  A    between atoms: C_27  and  O_28 
ROOT
HETATM    1  C   UNL     1      40.781 -13.954   5.200  1.00  0.00     0.159 A 
HETATM    2  N   UNL     1      40.439 -12.547   5.546  1.00  0.00    -0.329 N 
HETATM    3  C   UNL     1      41.469 -11.858   6.199  1.00  0.00     0.273 A 
HETATM    4  O   UNL     1      41.452 -10.735   6.671  1.00  0.00    -0.266 OA
HETATM    5  C   UNL     1      42.527 -12.796   6.229  1.00  0.00     0.129 A 
HETATM    6  C   UNL     1      42.181 -13.993   5.679  1.00  0.00     0.034 A 
HETATM    7  N   UNL     1      43.801 -12.886   6.641  1.00  0.00    -0.272 N 
HETATM    8  H   UNL     1      44.383 -12.187   7.091  1.00  0.00     0.189 HD
HETATM    9  N   UNL     1      44.321 -14.115   6.382  1.00  0.00    -0.173 NA
HETATM   10  C   UNL     1      43.321 -14.803   5.782  1.00  0.00     0.101 A 
ENDROOT
BRANCH   1  11
HETATM   11  C   UNL     1      40.814 -14.251   3.720  1.00  0.00    -0.030 A 
HETATM   12  C   UNL     1      40.077 -15.296   3.137  1.00  0.00     0.012 A 
HETATM   13  C   UNL     1      40.052 -15.460   1.750  1.00  0.00     0.037 A 
HETATM   14  C   UNL     1      40.751 -14.584   0.920  1.00  0.00     0.069 A 
HETATM   15  C   UNL     1      41.538 -13.584   1.487  1.00  0.00     0.037 A 
HETATM   16  C   UNL     1      41.565 -13.416   2.875  1.00  0.00     0.012 A 
BRANCH  14  17
HETATM   17  O   UNL     1      40.600 -14.799  -0.423  1.00  0.00    -0.348 OA
BRANCH  17  18
HETATM   18  C   UNL     1      40.065 -13.698  -1.160  1.00  0.00     0.202 C 
BRANCH  18  19
HETATM   19  C   UNL     1      39.742 -14.191  -2.539  1.00  0.00    -0.011 C 
HETATM   20  C   UNL     1      38.738 -15.029  -2.830  1.00  0.00     0.009 C 
ENDBRANCH  18  19
ENDBRANCH  17  18
ENDBRANCH  14  17
ENDBRANCH   1  11
BRANCH   2  21
HETATM   21  C   UNL     1      39.072 -12.071   5.528  1.00  0.00     0.167 C 
BRANCH  21  22
HETATM   22  C   UNL     1      38.910 -10.876   4.628  1.00  0.00    -0.023 A 
HETATM   23  C   UNL     1      38.416  -9.670   5.113  1.00  0.00     0.125 A 
HETATM   24  N   UNL     1      38.291  -8.547   4.370  1.00  0.00    -0.273 NA
HETATM   25  C   UNL     1      38.669  -8.628   3.076  1.00  0.00     0.116 A 
HETATM   26  C   UNL     1      39.166  -9.779   2.491  1.00  0.00     0.020 A 
HETATM   27  C   UNL     1      39.286 -10.919   3.281  1.00  0.00     0.012 A 
ENDBRANCH  21  22
ENDBRANCH   2  21
BRANCH  10  28
HETATM   28  C   UNL     1      43.500 -16.174   5.317  1.00  0.00     0.028 A 
HETATM   29  C   UNL     1      43.597 -17.260   6.198  1.00  0.00     0.078 A 
HETATM   30  C   UNL     1      43.659 -18.569   5.719  1.00  0.00     0.037 A 
HETATM   31  C   UNL     1      43.664 -18.806   4.345  1.00  0.00     0.003 A 
HETATM   32  C   UNL     1      43.606 -17.736   3.454  1.00  0.00     0.001 A 
HETATM   33  C   UNL     1      43.522 -16.427   3.937  1.00  0.00     0.017 A 
BRANCH  29  34
HETATM   34  O   UNL     1      43.662 -17.111   7.558  1.00  0.00    -0.360 OA
HETATM   35  H   UNL     1      43.440 -17.976   7.947  1.00  0.00     0.217 HD
ENDBRANCH  29  34
ENDBRANCH  10  28
TORSDOF 8
ENDMDL
MODEL 7
REMARK VINA RESULT:      -7.3      3.166      6.395
REMARK  8 active torsions:
REMARK  status: ('A' for Active; 'I' for Inactive)
REMARK    1  A    between atoms: C_2  and  C_3 
REMARK    2  A    between atoms: C_3  and  O_4 
REMARK    3  A    between atoms: O_4  and  C_5 
REMARK    4  A    between atoms: C_8  and  C_9 
REMARK    5  A    between atoms: N_10  and  C_11 
REMARK    6  A    between atoms: C_11  and  C_12 
REMARK    7  A    between atoms: C_25  and  C_26 
REMARK    8  A    between atoms: C_27  and  O_28 
ROOT
HETATM    1  C   UNL     1      42.074 -12.935   2.246  1.00  0.00     0.159 A 
HETATM    2  N   UNL     1      41.082 -12.248   1.373  1.00  0.00    -0.329 N 
HETATM    3  C   UNL     1      39.874 -12.942   1.234  1.00  0.00     0.273 A 
HETATM    4  O   UNL     1      38.919 -12.671   0.528  1.00  0.00    -0.266 OA
HETATM    5  C   UNL     1      40.040 -14.069   2.073  1.00  0.00     0.129 A 
HETATM    6  C   UNL     1      41.269 -14.106   2.660  1.00  0.00     0.034 A 
HETATM    7  N   UNL     1      39.355 -15.145   2.486  1.00  0.00    -0.272 N 
HETATM    8  H   UNL     1      38.410 -15.435   2.253  1.00  0.00     0.189 HD
HETATM    9  N   UNL     1      40.092 -15.907   3.336  1.00  0.00    -0.173 NA
HETATM   10  C   UNL     1      41.278 -15.264   3.451  1.00  0.00     0.101 A 
ENDROOT
BRANCH   1  11
HETATM   11  C   UNL     1      42.439 -12.183   3.503  1.00  0.00    -0.030 A 
HETATM   12  C   UNL     1      41.485 -11.781   4.452  1.00  0.00     0.012 A 
HETATM   13  C   UNL     1      41.883 -11.188   5.653  1.00  0.00     0.037 A 
HETATM   14  C   UNL     1      43.234 -10.995   5.933  1.00  0.00     0.069 A 
HETATM   15  C   UNL     1      44.188 -11.329   4.974  1.00  0.00     0.037 A 
HETATM   16  C   UNL     1      43.793 -11.923   3.772  1.00  0.00     0.012 A 
BRANCH  14  17
HETATM   17  O   UNL     1      43.511 -10.468   7.166  1.00  0.00    -0.348 OA
BRANCH  17  18
HETATM   18  C   UNL     1      44.352 -11.271   7.997  1.00  0.00     0.202 C 
BRANCH  18  19
HETATM   19  C   UNL     1      45.266 -10.346   8.744  1.00  0.00    -0.011 C 
HETATM   20  C   UNL     1      45.647  -9.138   8.306  1.00  0.00     0.009 C 
ENDBRANCH  18  19
ENDBRANCH  17  18
ENDBRANCH  14  17
ENDBRANCH   1  11
BRANCH   2  21
HETATM   21  C   UNL     1      41.467 -11.168   0.489  1.00  0.00     0.167 C 
BRANCH  21  22
HETATM   22  C   UNL     1      40.719  -9.900   0.799  1.00  0.00    -0.023 A 
HETATM   23  C   UNL     1      39.865  -9.321  -0.134  1.00  0.00     0.125 A 
HETATM   24  N   UNL     1      39.129  -8.211   0.098  1.00  0.00    -0.273 NA
HETATM   25  C   UNL     1      39.251  -7.643   1.317  1.00  0.00     0.116 A 
HETATM   26  C   UNL     1      40.076  -8.133   2.315  1.00  0.00     0.020 A 
HETATM   27  C   UNL     1      40.821  -9.278   2.048  1.00  0.00     0.012 A 
ENDBRANCH  21  22
ENDBRANCH   2  21
BRANCH  10  28
HETATM   28  C   UNL     1      42.343 -15.760   4.314  1.00  0.00     0.028 A 
HETATM   29  C   UNL     1      43.094 -16.902   4.002  1.00  0.00     0.078 A 
HETATM   30  C   UNL     1      44.176 -17.288   4.793  1.00  0.00     0.037 A 
HETATM   31  C   UNL     1      44.499 -16.554   5.934  1.00  0.00     0.003 A 
HETATM   32  C   UNL     1      43.741 -15.437   6.280  1.00  0.00     0.001 A 
HETATM   33  C   UNL     1      42.671 -15.041   5.474  1.00  0.00     0.017 A 
BRANCH  29  34
HETATM   34  O   UNL     1      42.805 -17.714   2.937  1.00  0.00    -0.360 OA
HETATM   35  H   UNL     1      43.137 -18.602   3.161  1.00  0.00     0.217 HD
ENDBRANCH  29  34
ENDBRANCH  10  28
TORSDOF 8
ENDMDL
MODEL 8
REMARK VINA RESULT:      -7.3      2.928      8.460
REMARK  8 active torsions:
REMARK  status: ('A' for Active; 'I' for Inactive)
REMARK    1  A    between atoms: C_2  and  C_3 
REMARK    2  A    between atoms: C_3  and  O_4 
REMARK    3  A    between atoms: O_4  and  C_5 
REMARK    4  A    between atoms: C_8  and  C_9 
REMARK    5  A    between atoms: N_10  and  C_11 
REMARK    6  A    between atoms: C_11  and  C_12 
REMARK    7  A    between atoms: C_25  and  C_26 
REMARK    8  A    between atoms: C_27  and  O_28 
ROOT
HETATM    1  C   UNL     1      39.866 -13.234   3.020  1.00  0.00     0.159 A 
HETATM    2  N   UNL     1      40.041 -14.410   2.123  1.00  0.00    -0.329 N 
HETATM    3  C   UNL     1      39.987 -14.095   0.760  1.00  0.00     0.273 A 
HETATM    4  O   UNL     1      40.016 -14.850  -0.196  1.00  0.00    -0.266 OA
HETATM    5  C   UNL     1      39.842 -12.689   0.750  1.00  0.00     0.129 A 
HETATM    6  C   UNL     1      39.765 -12.162   2.004  1.00  0.00     0.034 A 
HETATM    7  N   UNL     1      39.750 -11.677  -0.126  1.00  0.00    -0.272 N 
HETATM    8  H   UNL     1      39.773 -11.700  -1.141  1.00  0.00     0.189 HD
HETATM    9  N   UNL     1      39.613 -10.483   0.507  1.00  0.00    -0.173 NA
HETATM   10  C   UNL     1      39.626 -10.778   1.828  1.00  0.00     0.101 A 
ENDROOT
BRANCH   1  11
HETATM   11  C   UNL     1      41.063 -12.913   3.882  1.00  0.00    -0.030 A 
HETATM   12  C   UNL     1      40.977 -12.753   5.275  1.00  0.00     0.012 A 
HETATM   13  C   UNL     1      42.130 -12.568   6.042  1.00  0.00     0.037 A 
HETATM   14  C   UNL     1      43.386 -12.549   5.438  1.00  0.00     0.069 A 
HETATM   15  C   UNL     1      43.482 -12.640   4.051  1.00  0.00     0.037 A 
HETATM   16  C   UNL     1      42.331 -12.826   3.281  1.00  0.00     0.012 A 
BRANCH  14  17
HETATM   17  O   UNL     1      44.448 -12.429   6.293  1.00  0.00    -0.348 OA
BRANCH  17  18
HETATM   18  C   UNL     1      44.380 -11.327   7.201  1.00  0.00     0.202 C 
BRANCH  18  19
HETATM   19  C   UNL     1      45.779 -10.839   7.427  1.00  0.00    -0.011 C 
HETATM   20  C   UNL     1      46.090  -9.665   7.994  1.00  0.00     0.009 C 
ENDBRANCH  18  19
ENDBRANCH  17  18
ENDBRANCH  14  17
ENDBRANCH   1  11
BRANCH   2  21
HETATM   21  C   UNL     1      39.916 -15.766   2.616  1.00  0.00     0.167 C 
BRANCH  21  22
HETATM   22  C   UNL     1      41.237 -16.309   3.090  1.00  0.00    -0.023 A 
HETATM   23  C   UNL     1      41.531 -16.405   4.446  1.00  0.00     0.125 A 
HETATM   24  N   UNL     1      42.676 -16.928   4.939  1.00  0.00    -0.273 NA
HETATM   25  C   UNL     1      43.580 -17.372   4.039  1.00  0.00     0.116 A 
HETATM   26  C   UNL     1      43.391 -17.318   2.669  1.00  0.00     0.020 A 
HETATM   27  C   UNL     1      42.201 -16.776   2.191  1.00  0.00     0.012 A 
ENDBRANCH  21  22
ENDBRANCH   2  21
BRANCH  10  28
HETATM   28  C   UNL     1      39.532  -9.742   2.850  1.00  0.00     0.028 A 
HETATM   29  C   UNL     1      38.325  -9.098   3.160  1.00  0.00     0.078 A 
HETATM   30  C   UNL     1      38.246  -8.191   4.216  1.00  0.00     0.037 A 
HETATM   31  C   UNL     1      39.389  -7.885   4.955  1.00  0.00     0.003 A 
HETATM   32  C   UNL     1      40.604  -8.488   4.638  1.00  0.00     0.001 A 
HETATM   33  C   UNL     1      40.675  -9.413   3.593  1.00  0.00     0.017 A 
BRANCH  29  34
HETATM   34  O   UNL     1      37.174  -9.294   2.445  1.00  0.00    -0.360 OA
HETATM   35  H   UNL     1      36.569  -8.567   2.679  1.00  0.00     0.217 HD
ENDBRANCH  29  34
ENDBRANCH  10  28
TORSDOF 8
ENDMDL
MODEL 9
REMARK VINA RESULT:      -7.2     14.774     17.365
REMARK  8 active torsions:
REMARK  status: ('A' for Active; 'I' for Inactive)
REMARK    1  A    between atoms: C_2  and  C_3 
REMARK    2  A    between atoms: C_3  and  O_4 
REMARK    3  A    between atoms: O_4  and  C_5 
REMARK    4  A    between atoms: C_8  and  C_9 
REMARK    5  A    between atoms: N_10  and  C_11 
REMARK    6  A    between atoms: C_11  and  C_12 
REMARK    7  A    between atoms: C_25  and  C_26 
REMARK    8  A    between atoms: C_27  and  O_28 
ROOT
HETATM    1  C   UNL     1      46.950 -29.052   0.887  1.00  0.00     0.159 A 
HETATM    2  N   UNL     1      47.074 -29.361   2.339  1.00  0.00    -0.329 N 
HETATM    3  C   UNL     1      45.924 -29.934   2.896  1.00  0.00     0.273 A 
HETATM    4  O   UNL     1      45.703 -30.215   4.060  1.00  0.00    -0.266 OA
HETATM    5  C   UNL     1      45.051 -30.067   1.791  1.00  0.00     0.129 A 
HETATM    6  C   UNL     1      45.589 -29.578   0.639  1.00  0.00     0.034 A 
HETATM    7  N   UNL     1      43.826 -30.532   1.508  1.00  0.00    -0.272 N 
HETATM    8  H   UNL     1      43.144 -30.967   2.122  1.00  0.00     0.189 HD
HETATM    9  N   UNL     1      43.524 -30.368   0.193  1.00  0.00    -0.173 NA
HETATM   10  C   UNL     1      44.616 -29.781  -0.351  1.00  0.00     0.101 A 
ENDROOT
BRANCH   1  11
HETATM   11  C   UNL     1      47.890 -29.824  -0.007  1.00  0.00    -0.030 A 
HETATM   12  C   UNL     1      48.683 -29.208  -0.990  1.00  0.00     0.012 A 
HETATM   13  C   UNL     1      49.620 -29.949  -1.715  1.00  0.00     0.037 A 
HETATM   14  C   UNL     1      49.790 -31.310  -1.468  1.00  0.00     0.069 A 
HETATM   15  C   UNL     1      48.966 -31.948  -0.543  1.00  0.00     0.037 A 
HETATM   16  C   UNL     1      48.028 -31.209   0.185  1.00  0.00     0.012 A 
BRANCH  14  17
HETATM   17  O   UNL     1      50.781 -31.920  -2.188  1.00  0.00    -0.348 OA
BRANCH  17  18
HETATM   18  C   UNL     1      52.032 -31.229  -2.211  1.00  0.00     0.202 C 
BRANCH  18  19
HETATM   19  C   UNL     1      53.085 -32.182  -1.733  1.00  0.00    -0.011 C 
HETATM   20  C   UNL     1      52.952 -32.990  -0.671  1.00  0.00     0.009 C 
ENDBRANCH  18  19
ENDBRANCH  17  18
ENDBRANCH  14  17
ENDBRANCH   1  11
BRANCH   2  21
HETATM   21  C   UNL     1      48.135 -28.798   3.147  1.00  0.00     0.167 C 
BRANCH  21  22
HETATM   22  C   UNL     1      49.177 -29.826   3.493  1.00  0.00    -0.023 A 
HETATM   23  C   UNL     1      49.015 -30.679   4.580  1.00  0.00     0.125 A 
HETATM   24  N   UNL     1      49.889 -31.654   4.916  1.00  0.00    -0.273 NA
HETATM   25  C   UNL     1      50.984 -31.786   4.137  1.00  0.00     0.116 A 
HETATM   26  C   UNL     1      51.246 -30.987   3.038  1.00  0.00     0.020 A 
HETATM   27  C   UNL     1      50.328 -29.992   2.715  1.00  0.00     0.012 A 
ENDBRANCH  21  22
ENDBRANCH   2  21
BRANCH  10  28
HETATM   28  C   UNL     1      44.694 -29.466  -1.773  1.00  0.00     0.028 A 
HETATM   29  C   UNL     1      44.294 -30.370  -2.767  1.00  0.00     0.078 A 
HETATM   30  C   UNL     1      44.279 -29.999  -4.111  1.00  0.00     0.037 A 
HETATM   31  C   UNL     1      44.703 -28.724  -4.484  1.00  0.00     0.003 A 
HETATM   32  C   UNL     1      45.140 -27.825  -3.513  1.00  0.00     0.001 A 
HETATM   33  C   UNL     1      45.133 -28.192  -2.165  1.00  0.00     0.017 A 
BRANCH  29  34
HETATM   34  O   UNL     1      43.923 -31.660  -2.492  1.00  0.00    -0.360 OA
HETATM   35  H   UNL     1      42.975 -31.639  -2.267  1.00  0.00     0.217 HD
ENDBRANCH  29  34
ENDBRANCH  10  28
TORSDOF 8
ENDMDL
MODEL 10
REMARK VINA RESULT:      -7.2     14.657     16.360
REMARK  8 active torsions:
REMARK  status: ('A' for Active; 'I' for Inactive)
REMARK    1  A    between atoms: C_2  and  C_3 
REMARK    2  A    between atoms: C_3  and  O_4 
REMARK    3  A    between atoms: O_4  and  C_5 
REMARK    4  A    between atoms: C_8  and  C_9 
REMARK    5  A    between atoms: N_10  and  C_11 
REMARK    6  A    between atoms: C_11  and  C_12 
REMARK    7  A    between atoms: C_25  and  C_26 
REMARK    8  A    between atoms: C_27  and  O_28 
ROOT
HETATM    1  C   UNL     1      46.579 -30.842   1.779  1.00  0.00     0.159 A 
HETATM    2  N   UNL     1      47.266 -30.857   3.101  1.00  0.00    -0.329 N 
HETATM    3  C   UNL     1      48.019 -29.704   3.360  1.00  0.00     0.273 A 
HETATM    4  O   UNL     1      48.745 -29.469   4.309  1.00  0.00    -0.266 OA
HETATM    5  C   UNL     1      47.777 -28.889   2.230  1.00  0.00     0.129 A 
HETATM    6  C   UNL     1      46.972 -29.494   1.312  1.00  0.00     0.034 A 
HETATM    7  N   UNL     1      48.097 -27.675   1.759  1.00  0.00    -0.272 N 
HETATM    8  H   UNL     1      48.675 -26.953   2.179  1.00  0.00     0.189 HD
HETATM    9  N   UNL     1      47.529 -27.447   0.546  1.00  0.00    -0.173 NA
HETATM   10  C   UNL     1      46.827 -28.571   0.266  1.00  0.00     0.101 A 
ENDROOT
BRANCH   1  11
HETATM   11  C   UNL     1      45.071 -30.860   1.851  1.00  0.00    -0.030 A 
HETATM   12  C   UNL     1      44.332 -29.913   2.579  1.00  0.00     0.012 A 
HETATM   13  C   UNL     1      42.936 -29.905   2.523  1.00  0.00     0.037 A 
HETATM   14  C   UNL     1      42.253 -30.830   1.735  1.00  0.00     0.069 A 
HETATM   15  C   UNL     1      42.970 -31.816   1.059  1.00  0.00     0.037 A 
HETATM   16  C   UNL     1      44.367 -31.827   1.113  1.00  0.00     0.012 A 
BRANCH  14  17
HETATM   17  O   UNL     1      40.893 -30.686   1.702  1.00  0.00    -0.348 OA
BRANCH  17  18
HETATM   18  C   UNL     1      40.148 -31.840   2.098  1.00  0.00     0.202 C 
BRANCH  18  19
HETATM   19  C   UNL     1      40.264 -31.966   3.587  1.00  0.00    -0.011 C 
HETATM   20  C   UNL     1      40.653 -33.078   4.226  1.00  0.00     0.009 C 
ENDBRANCH  18  19
ENDBRANCH  17  18
ENDBRANCH  14  17
ENDBRANCH   1  11
BRANCH   2  21
HETATM   21  C   UNL     1      47.423 -32.078   3.861  1.00  0.00     0.167 C 
BRANCH  21  22
HETATM   22  C   UNL     1      46.419 -32.172   4.978  1.00  0.00    -0.023 A 
HETATM   23  C   UNL     1      46.692 -31.650   6.238  1.00  0.00     0.125 A 
HETATM   24  N   UNL     1      45.817 -31.659   7.268  1.00  0.00    -0.273 NA
HETATM   25  C   UNL     1      44.611 -32.222   7.039  1.00  0.00     0.116 A 
HETATM   26  C   UNL     1      44.239 -32.776   5.826  1.00  0.00     0.020 A 
HETATM   27  C   UNL     1      45.160 -32.750   4.783  1.00  0.00     0.012 A 
ENDBRANCH  21  22
ENDBRANCH   2  21
BRANCH  10  28
HETATM   28  C   UNL     1      46.041 -28.704  -0.955  1.00  0.00     0.028 A 
HETATM   29  C   UNL     1      46.628 -28.738  -2.228  1.00  0.00     0.078 A 
HETATM   30  C   UNL     1      45.859 -28.975  -3.367  1.00  0.00     0.037 A 
HETATM   31  C   UNL     1      44.479 -29.145  -3.250  1.00  0.00     0.003 A 
HETATM   32  C   UNL     1      43.874 -29.078  -1.996  1.00  0.00     0.001 A 
HETATM   33  C   UNL     1      44.650 -28.861  -0.855  1.00  0.00     0.017 A 
BRANCH  29  34
HETATM   34  O   UNL     1      47.964 -28.518  -2.436  1.00  0.00    -0.360 OA
HETATM   35  H   UNL     1      48.245 -29.134  -3.137  1.00  0.00     0.217 HD
ENDBRANCH  29  34
ENDBRANCH  10  28
TORSDOF 8
ENDMDL
