MODEL 1
REMARK VINA RESULT:      -7.6      0.000      0.000
REMARK  2 active torsions:
REMARK  status: ('A' for Active; 'I' for Inactive)
REMARK    1  A    between atoms: C_8  and  S_9 
REMARK    2  A    between atoms: S_9  and  C_10 
ROOT
HETATM    1  C   UNL     1      43.535 -20.430   2.427  1.00  0.00     0.002 A 
HETATM    2  C   UNL     1      43.043 -19.151   2.156  1.00  0.00     0.034 A 
HETATM    3  C   UNL     1      43.174 -18.119   3.077  1.00  0.00     0.087 A 
HETATM    4  C   UNL     1      43.825 -18.377   4.314  1.00  0.00     0.087 A 
HETATM    5  N   UNL     1      43.978 -17.412   5.244  1.00  0.00    -0.231 NA
HETATM    6  C   UNL     1      43.504 -16.184   4.946  1.00  0.00     0.167 A 
HETATM    7 CL   UNL     1      43.714 -15.043   6.203  1.00  0.00    -0.059 Cl
HETATM    8  C   UNL     1      42.879 -15.947   3.745  1.00  0.00     0.193 A 
HETATM    9  N   UNL     1      42.680 -16.895   2.785  1.00  0.00    -0.232 NA
HETATM   10  C   UNL     1      44.308 -19.654   4.570  1.00  0.00     0.034 A 
HETATM   11  C   UNL     1      44.167 -20.681   3.637  1.00  0.00     0.002 A 
ENDROOT
BRANCH   8  12
HETATM   12  S   UNL     1      42.231 -14.364   3.345  1.00  0.00     0.201 S 
HETATM   13  O   UNL     1      41.278 -13.999   4.385  1.00  0.00    -0.221 OA
HETATM   14  O   UNL     1      43.339 -13.501   2.996  1.00  0.00    -0.221 OA
BRANCH  12  15
HETATM   15  C   UNL     1      41.244 -14.583   1.867  1.00  0.00     0.141 C 
HETATM   16  C   UNL     1      39.794 -14.873   2.253  1.00  0.00     0.252 C 
HETATM   17  N   UNL     1      39.108 -13.634   2.762  1.00  0.00    -0.074 N 
HETATM   18  H   UNL     1      39.580 -13.338   3.644  1.00  0.00     0.277 HD
HETATM   19  H   UNL     1      38.140 -13.851   3.039  1.00  0.00     0.277 HD
HETATM   20  C   UNL     1      39.112 -12.486   1.811  1.00  0.00     0.232 C 
HETATM   21  C   UNL     1      40.549 -12.144   1.452  1.00  0.00     0.029 C 
HETATM   22  C   UNL     1      41.318 -13.362   0.934  1.00  0.00     0.024 C 
ENDBRANCH  12  15
ENDBRANCH   8  12
TORSDOF 2
ENDMDL
MODEL 2
REMARK VINA RESULT:      -7.3      2.375      2.813
REMARK  2 active torsions:
REMARK  status: ('A' for Active; 'I' for Inactive)
REMARK    1  A    between atoms: C_8  and  S_9 
REMARK    2  A    between atoms: S_9  and  C_10 
ROOT
HETATM    1  C   UNL     1      44.249 -20.609   4.894  1.00  0.00     0.002 A 
HETATM    2  C   UNL     1      44.035 -19.282   5.276  1.00  0.00     0.034 A 
HETATM    3  C   UNL     1      43.611 -18.329   4.359  1.00  0.00     0.087 A 
HETATM    4  C   UNL     1      43.387 -18.720   3.010  1.00  0.00     0.087 A 
HETATM    5  N   UNL     1      42.976 -17.834   2.080  1.00  0.00    -0.231 NA
HETATM    6  C   UNL     1      42.765 -16.564   2.483  1.00  0.00     0.167 A 
HETATM    7 CL   UNL     1      42.281 -15.514   1.223  1.00  0.00    -0.059 Cl
HETATM    8  C   UNL     1      42.982 -16.199   3.791  1.00  0.00     0.193 A 
HETATM    9  N   UNL     1      43.420 -17.052   4.761  1.00  0.00    -0.232 NA
HETATM   10  C   UNL     1      43.605 -20.042   2.646  1.00  0.00     0.034 A 
HETATM   11  C   UNL     1      44.034 -20.988   3.576  1.00  0.00     0.002 A 
ENDROOT
BRANCH   8  12
HETATM   12  S   UNL     1      42.740 -14.547   4.335  1.00  0.00     0.201 S 
HETATM   13  O   UNL     1      43.178 -14.468   5.722  1.00  0.00    -0.221 OA
HETATM   14  O   UNL     1      43.268 -13.659   3.322  1.00  0.00    -0.221 OA
BRANCH  12  15
HETATM   15  C   UNL     1      40.968 -14.291   4.393  1.00  0.00     0.141 C 
HETATM   16  C   UNL     1      40.489 -14.325   5.843  1.00  0.00     0.252 C 
HETATM   17  N   UNL     1      40.889 -13.074   6.578  1.00  0.00    -0.074 N 
HETATM   18  H   UNL     1      41.931 -13.042   6.627  1.00  0.00     0.277 HD
HETATM   19  H   UNL     1      40.579 -13.122   7.559  1.00  0.00     0.277 HD
HETATM   20  C   UNL     1      40.403 -11.807   5.961  1.00  0.00     0.232 C 
HETATM   21  C   UNL     1      40.912 -11.725   4.531  1.00  0.00     0.029 C 
HETATM   22  C   UNL     1      40.550 -12.972   3.720  1.00  0.00     0.024 C 
ENDBRANCH  12  15
ENDBRANCH   8  12
TORSDOF 2
ENDMDL
MODEL 3
REMARK VINA RESULT:      -7.3      1.955      2.090
REMARK  2 active torsions:
REMARK  status: ('A' for Active; 'I' for Inactive)
REMARK    1  A    between atoms: C_8  and  S_9 
REMARK    2  A    between atoms: S_9  and  C_10 
ROOT
HETATM    1  C   UNL     1      43.876 -19.634   2.831  1.00  0.00     0.002 A 
HETATM    2  C   UNL     1      43.595 -18.267   2.877  1.00  0.00     0.034 A 
HETATM    3  C   UNL     1      43.469 -17.597   4.087  1.00  0.00     0.087 A 
HETATM    4  C   UNL     1      43.636 -18.323   5.298  1.00  0.00     0.087 A 
HETATM    5  N   UNL     1      43.524 -17.722   6.500  1.00  0.00    -0.231 NA
HETATM    6  C   UNL     1      43.265 -16.398   6.510  1.00  0.00     0.167 A 
HETATM    7 CL   UNL     1      43.107 -15.740   8.081  1.00  0.00    -0.059 Cl
HETATM    8  C   UNL     1      43.109 -15.707   5.332  1.00  0.00     0.193 A 
HETATM    9  N   UNL     1      43.190 -16.274   4.095  1.00  0.00    -0.232 NA
HETATM   10  C   UNL     1      43.915 -19.682   5.237  1.00  0.00     0.034 A 
HETATM   11  C   UNL     1      44.036 -20.342   4.015  1.00  0.00     0.002 A 
ENDROOT
BRANCH   8  12
HETATM   12  S   UNL     1      42.747 -13.988   5.319  1.00  0.00     0.201 S 
HETATM   13  O   UNL     1      41.366 -13.823   5.756  1.00  0.00    -0.221 OA
HETATM   14  O   UNL     1      43.836 -13.295   5.971  1.00  0.00    -0.221 OA
BRANCH  12  15
HETATM   15  C   UNL     1      42.751 -13.486   3.600  1.00  0.00     0.141 C 
HETATM   16  C   UNL     1      41.315 -13.345   3.100  1.00  0.00     0.252 C 
HETATM   17  N   UNL     1      40.662 -12.110   3.659  1.00  0.00    -0.074 N 
HETATM   18  H   UNL     1      40.589 -12.219   4.694  1.00  0.00     0.277 HD
HETATM   19  H   UNL     1      39.688 -12.042   3.331  1.00  0.00     0.277 HD
HETATM   20  C   UNL     1      41.381 -10.838   3.364  1.00  0.00     0.232 C 
HETATM   21  C   UNL     1      42.800 -10.934   3.900  1.00  0.00     0.029 C 
HETATM   22  C   UNL     1      43.528 -12.177   3.380  1.00  0.00     0.024 C 
ENDBRANCH  12  15
ENDBRANCH   8  12
TORSDOF 2
ENDMDL
MODEL 4
REMARK VINA RESULT:      -6.9      2.850      6.297
REMARK  2 active torsions:
REMARK  status: ('A' for Active; 'I' for Inactive)
REMARK    1  A    between atoms: C_8  and  S_9 
REMARK    2  A    between atoms: S_9  and  C_10 
ROOT
HETATM    1  C   UNL     1      38.795 -14.834  -2.921  1.00  0.00     0.002 A 
HETATM    2  C   UNL     1      39.061 -15.271  -1.622  1.00  0.00     0.034 A 
HETATM    3  C   UNL     1      39.741 -14.467  -0.716  1.00  0.00     0.087 A 
HETATM    4  C   UNL     1      40.167 -13.174  -1.126  1.00  0.00     0.087 A 
HETATM    5  N   UNL     1      40.831 -12.353  -0.286  1.00  0.00    -0.231 NA
HETATM    6  C   UNL     1      41.061 -12.800   0.966  1.00  0.00     0.167 A 
HETATM    7 CL   UNL     1      41.940 -11.701   1.938  1.00  0.00    -0.059 Cl
HETATM    8  C   UNL     1      40.641 -14.051   1.351  1.00  0.00     0.193 A 
HETATM    9  N   UNL     1      39.987 -14.925   0.532  1.00  0.00    -0.232 NA
HETATM   10  C   UNL     1      39.896 -12.753  -2.421  1.00  0.00     0.034 A 
HETATM   11  C   UNL     1      39.215 -13.572  -3.321  1.00  0.00     0.002 A 
ENDROOT
BRANCH   8  12
HETATM   12  S   UNL     1      40.949 -14.665   2.967  1.00  0.00     0.201 S 
HETATM   13  O   UNL     1      40.557 -13.632   3.916  1.00  0.00    -0.221 OA
HETATM   14  O   UNL     1      40.418 -16.009   3.046  1.00  0.00    -0.221 OA
BRANCH  12  15
HETATM   15  C   UNL     1      42.729 -14.789   3.127  1.00  0.00     0.141 C 
HETATM   16  C   UNL     1      43.082 -15.452   4.457  1.00  0.00     0.252 C 
HETATM   17  N   UNL     1      42.788 -16.927   4.427  1.00  0.00    -0.074 N 
HETATM   18  H   UNL     1      41.759 -17.053   4.315  1.00  0.00     0.277 HD
HETATM   19  H   UNL     1      43.011 -17.354   5.337  1.00  0.00     0.277 HD
HETATM   20  C   UNL     1      43.480 -17.677   3.340  1.00  0.00     0.232 C 
HETATM   21  C   UNL     1      43.102 -17.068   1.999  1.00  0.00     0.029 C 
HETATM   22  C   UNL     1      43.365 -15.561   1.957  1.00  0.00     0.024 C 
ENDBRANCH  12  15
ENDBRANCH   8  12
TORSDOF 2
ENDMDL
MODEL 5
REMARK VINA RESULT:      -6.5      2.988      3.676
REMARK  2 active torsions:
REMARK  status: ('A' for Active; 'I' for Inactive)
REMARK    1  A    between atoms: C_8  and  S_9 
REMARK    2  A    between atoms: S_9  and  C_10 
ROOT
HETATM    1  C   UNL     1      44.224 -18.828   4.652  1.00  0.00     0.002 A 
HETATM    2  C   UNL     1      43.693 -17.569   4.939  1.00  0.00     0.034 A 
HETATM    3  C   UNL     1      42.963 -16.862   3.991  1.00  0.00     0.087 A 
HETATM    4  C   UNL     1      42.753 -17.441   2.710  1.00  0.00     0.087 A 
HETATM    5  N   UNL     1      42.053 -16.798   1.753  1.00  0.00    -0.231 NA
HETATM    6  C   UNL     1      41.542 -15.589   2.065  1.00  0.00     0.167 A 
HETATM    7 CL   UNL     1      40.704 -14.843   0.775  1.00  0.00    -0.059 Cl
HETATM    8  C   UNL     1      41.750 -15.041   3.309  1.00  0.00     0.193 A 
HETATM    9  N   UNL     1      42.470 -15.642   4.300  1.00  0.00    -0.232 NA
HETATM   10  C   UNL     1      43.288 -18.694   2.439  1.00  0.00     0.034 A 
HETATM   11  C   UNL     1      44.020 -19.391   3.400  1.00  0.00     0.002 A 
ENDROOT
BRANCH   8  12
HETATM   12  S   UNL     1      41.117 -13.459   3.731  1.00  0.00     0.201 S 
HETATM   13  O   UNL     1      42.024 -12.458   3.183  1.00  0.00    -0.221 OA
HETATM   14  O   UNL     1      39.702 -13.446   3.430  1.00  0.00    -0.221 OA
BRANCH  12  15
HETATM   15  C   UNL     1      41.281 -13.308   5.508  1.00  0.00     0.141 C 
HETATM   16  C   UNL     1      42.425 -12.352   5.842  1.00  0.00     0.252 C 
HETATM   17  N   UNL     1      42.040 -10.924   5.563  1.00  0.00    -0.074 N 
HETATM   18  H   UNL     1      41.880 -10.824   4.536  1.00  0.00     0.277 HD
HETATM   19  H   UNL     1      42.829 -10.296   5.771  1.00  0.00     0.277 HD
HETATM   20  C   UNL     1      40.822 -10.456   6.283  1.00  0.00     0.232 C 
HETATM   21  C   UNL     1      39.655 -11.362   5.925  1.00  0.00     0.029 C 
HETATM   22  C   UNL     1      39.976 -12.838   6.174  1.00  0.00     0.024 C 
ENDBRANCH  12  15
ENDBRANCH   8  12
TORSDOF 2
ENDMDL
MODEL 6
REMARK VINA RESULT:      -6.4     14.337     15.718
REMARK  2 active torsions:
REMARK  status: ('A' for Active; 'I' for Inactive)
REMARK    1  A    between atoms: C_8  and  S_9 
REMARK    2  A    between atoms: S_9  and  C_10 
ROOT
HETATM    1  C   UNL     1      49.064 -30.029   4.339  1.00  0.00     0.002 A 
HETATM    2  C   UNL     1      48.250 -29.925   3.209  1.00  0.00     0.034 A 
HETATM    3  C   UNL     1      48.783 -29.995   1.928  1.00  0.00     0.087 A 
HETATM    4  C   UNL     1      50.184 -30.182   1.774  1.00  0.00     0.087 A 
HETATM    5  N   UNL     1      50.754 -30.256   0.554  1.00  0.00    -0.231 NA
HETATM    6  C   UNL     1      49.939 -30.165  -0.518  1.00  0.00     0.167 A 
HETATM    7 CL   UNL     1      50.762 -30.234  -2.015  1.00  0.00    -0.059 Cl
HETATM    8  C   UNL     1      48.585 -29.987  -0.355  1.00  0.00     0.193 A 
HETATM    9  N   UNL     1      47.967 -29.883   0.857  1.00  0.00    -0.232 NA
HETATM   10  C   UNL     1      50.981 -30.283   2.907  1.00  0.00     0.034 A 
HETATM   11  C   UNL     1      50.432 -30.209   4.186  1.00  0.00     0.002 A 
ENDROOT
BRANCH   8  12
HETATM   12  S   UNL     1      47.507 -29.840  -1.733  1.00  0.00     0.201 S 
HETATM   13  O   UNL     1      47.821 -28.588  -2.410  1.00  0.00    -0.221 OA
HETATM   14  O   UNL     1      47.505 -31.103  -2.439  1.00  0.00    -0.221 OA
BRANCH  12  15
HETATM   15  C   UNL     1      45.863 -29.604  -1.064  1.00  0.00     0.141 C 
HETATM   16  C   UNL     1      45.351 -28.212  -1.430  1.00  0.00     0.252 C 
HETATM   17  N   UNL     1      44.979 -28.135  -2.886  1.00  0.00    -0.074 N 
HETATM   18  H   UNL     1      45.844 -28.274  -3.452  1.00  0.00     0.277 HD
HETATM   19  H   UNL     1      44.658 -27.185  -3.121  1.00  0.00     0.277 HD
HETATM   20  C   UNL     1      43.959 -29.131  -3.322  1.00  0.00     0.232 C 
HETATM   21  C   UNL     1      44.470 -30.530  -3.015  1.00  0.00     0.029 C 
HETATM   22  C   UNL     1      44.879 -30.684  -1.548  1.00  0.00     0.024 C 
ENDBRANCH  12  15
ENDBRANCH   8  12
TORSDOF 2
ENDMDL
MODEL 7
REMARK VINA RESULT:      -6.4      1.702      2.054
REMARK  2 active torsions:
REMARK  status: ('A' for Active; 'I' for Inactive)
REMARK    1  A    between atoms: C_8  and  S_9 
REMARK    2  A    between atoms: S_9  and  C_10 
ROOT
HETATM    1  C   UNL     1      43.922 -20.083   2.793  1.00  0.00     0.002 A 
HETATM    2  C   UNL     1      43.132 -19.036   2.313  1.00  0.00     0.034 A 
HETATM    3  C   UNL     1      42.797 -17.957   3.121  1.00  0.00     0.087 A 
HETATM    4  C   UNL     1      43.275 -17.922   4.459  1.00  0.00     0.087 A 
HETATM    5  N   UNL     1      42.980 -16.899   5.286  1.00  0.00    -0.231 NA
HETATM    6  C   UNL     1      42.225 -15.897   4.788  1.00  0.00     0.167 A 
HETATM    7 CL   UNL     1      41.877 -14.668   5.924  1.00  0.00    -0.059 Cl
HETATM    8  C   UNL     1      41.772 -15.941   3.491  1.00  0.00     0.193 A 
HETATM    9  N   UNL     1      42.024 -16.965   2.625  1.00  0.00    -0.232 NA
HETATM   10  C   UNL     1      44.059 -18.971   4.923  1.00  0.00     0.034 A 
HETATM   11  C   UNL     1      44.386 -20.049   4.101  1.00  0.00     0.002 A 
ENDROOT
BRANCH   8  12
HETATM   12  S   UNL     1      40.768 -14.662   2.827  1.00  0.00     0.201 S 
HETATM   13  O   UNL     1      39.741 -15.287   2.002  1.00  0.00    -0.221 OA
HETATM   14  O   UNL     1      40.429 -13.754   3.901  1.00  0.00    -0.221 OA
BRANCH  12  15
HETATM   15  C   UNL     1      41.800 -13.758   1.675  1.00  0.00     0.141 C 
HETATM   16  C   UNL     1      41.164 -12.405   1.365  1.00  0.00     0.252 C 
HETATM   17  N   UNL     1      41.300 -11.459   2.527  1.00  0.00    -0.074 N 
HETATM   18  H   UNL     1      40.756 -11.848   3.329  1.00  0.00     0.277 HD
HETATM   19  H   UNL     1      40.847 -10.560   2.311  1.00  0.00     0.277 HD
HETATM   20  C   UNL     1      42.701 -11.219   2.974  1.00  0.00     0.232 C 
HETATM   21  C   UNL     1      43.340 -12.549   3.340  1.00  0.00     0.029 C 
HETATM   22  C   UNL     1      43.233 -13.571   2.204  1.00  0.00     0.024 C 
ENDBRANCH  12  15
ENDBRANCH   8  12
TORSDOF 2
ENDMDL
MODEL 8
REMARK VINA RESULT:      -6.4      4.326      6.473
REMARK  2 active torsions:
REMARK  status: ('A' for Active; 'I' for Inactive)
REMARK    1  A    between atoms: C_8  and  S_9 
REMARK    2  A    between atoms: S_9  and  C_10 
ROOT
HETATM    1  C   UNL     1      45.990 -10.634   7.586  1.00  0.00     0.002 A 
HETATM    2  C   UNL     1      45.478 -11.547   6.662  1.00  0.00     0.034 A 
HETATM    3  C   UNL     1      44.121 -11.589   6.368  1.00  0.00     0.087 A 
HETATM    4  C   UNL     1      43.245 -10.679   7.020  1.00  0.00     0.087 A 
HETATM    5  N   UNL     1      41.920 -10.677   6.771  1.00  0.00    -0.231 NA
HETATM    6  C   UNL     1      41.457 -11.563   5.864  1.00  0.00     0.167 A 
HETATM    7 CL   UNL     1      39.762 -11.504   5.648  1.00  0.00    -0.059 Cl
HETATM    8  C   UNL     1      42.315 -12.436   5.238  1.00  0.00     0.193 A 
HETATM    9  N   UNL     1      43.658 -12.491   5.474  1.00  0.00    -0.232 NA
HETATM   10  C   UNL     1      43.769  -9.777   7.936  1.00  0.00     0.034 A 
HETATM   11  C   UNL     1      45.133  -9.748   8.224  1.00  0.00     0.002 A 
ENDROOT
BRANCH   8  12
HETATM   12  S   UNL     1      41.735 -13.614   4.073  1.00  0.00     0.201 S 
HETATM   13  O   UNL     1      40.899 -14.570   4.788  1.00  0.00    -0.221 OA
HETATM   14  O   UNL     1      41.246 -12.898   2.915  1.00  0.00    -0.221 OA
BRANCH  12  15
HETATM   15  C   UNL     1      43.168 -14.552   3.549  1.00  0.00     0.141 C 
HETATM   16  C   UNL     1      43.197 -15.897   4.274  1.00  0.00     0.252 C 
HETATM   17  N   UNL     1      42.148 -16.830   3.733  1.00  0.00    -0.074 N 
HETATM   18  H   UNL     1      41.210 -16.421   3.938  1.00  0.00     0.277 HD
HETATM   19  H   UNL     1      42.166 -17.723   4.247  1.00  0.00     0.277 HD
HETATM   20  C   UNL     1      42.244 -17.093   2.269  1.00  0.00     0.232 C 
HETATM   21  C   UNL     1      42.163 -15.771   1.522  1.00  0.00     0.029 C 
HETATM   22  C   UNL     1      43.199 -14.762   2.025  1.00  0.00     0.024 C 
ENDBRANCH  12  15
ENDBRANCH   8  12
TORSDOF 2
ENDMDL
MODEL 9
REMARK VINA RESULT:      -6.2      4.266      6.123
REMARK  2 active torsions:
REMARK  status: ('A' for Active; 'I' for Inactive)
REMARK    1  A    between atoms: C_8  and  S_9 
REMARK    2  A    between atoms: S_9  and  C_10 
ROOT
HETATM    1  C   UNL     1      40.053 -12.391  -2.766  1.00  0.00     0.002 A 
HETATM    2  C   UNL     1      40.664 -12.151  -1.534  1.00  0.00     0.034 A 
HETATM    3  C   UNL     1      40.593 -13.079  -0.502  1.00  0.00     0.087 A 
HETATM    4  C   UNL     1      39.887 -14.295  -0.715  1.00  0.00     0.087 A 
HETATM    5  N   UNL     1      39.787 -15.229   0.252  1.00  0.00    -0.231 NA
HETATM    6  C   UNL     1      40.399 -14.973   1.427  1.00  0.00     0.167 A 
HETATM    7 CL   UNL     1      40.182 -16.201   2.597  1.00  0.00    -0.059 Cl
HETATM    8  C   UNL     1      41.081 -13.795   1.619  1.00  0.00     0.193 A 
HETATM    9  N   UNL     1      41.190 -12.811   0.681  1.00  0.00    -0.232 NA
HETATM   10  C   UNL     1      39.284 -14.518  -1.946  1.00  0.00     0.034 A 
HETATM   11  C   UNL     1      39.361 -13.577  -2.972  1.00  0.00     0.002 A 
ENDROOT
BRANCH   8  12
HETATM   12  S   UNL     1      41.865 -13.428   3.148  1.00  0.00     0.201 S 
HETATM   13  O   UNL     1      40.826 -13.325   4.165  1.00  0.00    -0.221 OA
HETATM   14  O   UNL     1      42.990 -14.324   3.302  1.00  0.00    -0.221 OA
BRANCH  12  15
HETATM   15  C   UNL     1      42.524 -11.771   2.990  1.00  0.00     0.141 C 
HETATM   16  C   UNL     1      41.569 -10.771   3.639  1.00  0.00     0.252 C 
HETATM   17  N   UNL     1      41.626 -10.859   5.140  1.00  0.00    -0.074 N 
HETATM   18  H   UNL     1      41.282 -11.802   5.426  1.00  0.00     0.277 HD
HETATM   19  H   UNL     1      40.961 -10.195   5.561  1.00  0.00     0.277 HD
HETATM   20  C   UNL     1      42.981 -10.649   5.724  1.00  0.00     0.232 C 
HETATM   21  C   UNL     1      43.940 -11.668   5.132  1.00  0.00     0.029 C 
HETATM   22  C   UNL     1      43.931 -11.645   3.601  1.00  0.00     0.024 C 
ENDBRANCH  12  15
ENDBRANCH   8  12
TORSDOF 2
ENDMDL
MODEL 10
REMARK VINA RESULT:      -6.2      2.791      3.904
REMARK  2 active torsions:
REMARK  status: ('A' for Active; 'I' for Inactive)
REMARK    1  A    between atoms: C_8  and  S_9 
REMARK    2  A    between atoms: S_9  and  C_10 
ROOT
HETATM    1  C   UNL     1      44.369 -16.767   5.924  1.00  0.00     0.002 A 
HETATM    2  C   UNL     1      43.682 -15.583   5.645  1.00  0.00     0.034 A 
HETATM    3  C   UNL     1      42.825 -15.488   4.556  1.00  0.00     0.087 A 
HETATM    4  C   UNL     1      42.645 -16.622   3.718  1.00  0.00     0.087 A 
HETATM    5  N   UNL     1      41.825 -16.584   2.647  1.00  0.00    -0.231 NA
HETATM    6  C   UNL     1      41.166 -15.430   2.412  1.00  0.00     0.167 A 
HETATM    7 CL   UNL     1      40.183 -15.473   1.014  1.00  0.00    -0.059 Cl
HETATM    8  C   UNL     1      41.346 -14.341   3.232  1.00  0.00     0.193 A 
HETATM    9  N   UNL     1      42.181 -14.325   4.310  1.00  0.00    -0.232 NA
HETATM   10  C   UNL     1      43.335 -17.792   4.008  1.00  0.00     0.034 A 
HETATM   11  C   UNL     1      44.195 -17.872   5.103  1.00  0.00     0.002 A 
ENDROOT
BRANCH   8  12
HETATM   12  S   UNL     1      40.520 -12.821   2.932  1.00  0.00     0.201 S 
HETATM   13  O   UNL     1      41.013 -12.290   1.667  1.00  0.00    -0.221 OA
HETATM   14  O   UNL     1      39.107 -13.024   3.169  1.00  0.00    -0.221 OA
BRANCH  12  15
HETATM   15  C   UNL     1      41.107 -11.675   4.176  1.00  0.00     0.141 C 
HETATM   16  C   UNL     1      42.181 -10.769   3.578  1.00  0.00     0.252 C 
HETATM   17  N   UNL     1      41.579  -9.751   2.647  1.00  0.00    -0.074 N 
HETATM   18  H   UNL     1      41.156 -10.257   1.839  1.00  0.00     0.277 HD
HETATM   19  H   UNL     1      42.317  -9.163   2.235  1.00  0.00     0.277 HD
HETATM   20  C   UNL     1      40.535  -8.884   3.265  1.00  0.00     0.232 C 
HETATM   21  C   UNL     1      39.427  -9.763   3.823  1.00  0.00     0.029 C 
HETATM   22  C   UNL     1      39.966 -10.834   4.775  1.00  0.00     0.024 C 
ENDBRANCH  12  15
ENDBRANCH   8  12
TORSDOF 2
ENDMDL
