MODEL 1
REMARK VINA RESULT:     -10.3      0.000      0.000
REMARK  6 active torsions:
REMARK  status: ('A' for Active; 'I' for Inactive)
REMARK    1  A    between atoms: C_2  and  O_3 
REMARK    2  A    between atoms: O_3  and  C_4 
REMARK    3  A    between atoms: C_5  and  C_6 
REMARK    4  A    between atoms: N_7  and  N_8 
REMARK       I    between atoms: N_8  and  C_9 
REMARK    5  A    between atoms: C_9  and  C_10 
REMARK    6  A    between atoms: C_14  and  C_15 
ROOT
HETATM    1  C   UNL     1      43.620 -11.987   7.298  1.00  0.00     0.121 A 
HETATM    2  N   UNL     1      42.384 -12.063   6.718  1.00  0.00    -0.272 N 
HETATM    3  H   UNL     1      41.633 -11.382   6.799  1.00  0.00     0.189 HD
HETATM    4  N   UNL     1      42.176 -13.178   6.002  1.00  0.00    -0.174 NA
HETATM    5  C   UNL     1      43.317 -13.874   6.125  1.00  0.00     0.090 A 
HETATM    6  C   UNL     1      44.269 -13.132   6.877  1.00  0.00     0.071 A 
ENDROOT
BRANCH   1   7
HETATM    7  C   UNL     1      43.984 -10.887   8.161  1.00  0.00     0.289 C 
HETATM    8  N   UNL     1      43.524 -11.022   9.464  1.00  0.00    -0.242 N 
HETATM    9  H   UNL     1      43.023 -11.868   9.705  1.00  0.00     0.192 HD
HETATM   10  O   UNL     1      44.618  -9.938   7.714  1.00  0.00    -0.264 OA
BRANCH   8  11
HETATM   11  N   UNL     1      43.515 -10.111  10.486  1.00  0.00    -0.183 NA
HETATM   12  C   UNL     1      42.533 -10.049  11.329  1.00  0.00     0.153 C 
BRANCH  12  13
HETATM   13  C   UNL     1      42.572  -9.093  12.467  1.00  0.00     0.016 A 
HETATM   14  C   UNL     1      41.685  -9.235  13.548  1.00  0.00     0.080 A 
HETATM   15  C   UNL     1      41.773  -8.334  14.616  1.00  0.00     0.037 A 
HETATM   16  C   UNL     1      42.723  -7.306  14.604  1.00  0.00     0.003 A 
HETATM   17  C   UNL     1      43.593  -7.167  13.527  1.00  0.00     0.001 A 
HETATM   18  C   UNL     1      43.520  -8.058  12.459  1.00  0.00     0.016 A 
BRANCH  14  19
HETATM   19  O   UNL     1      40.788 -10.269  13.484  1.00  0.00    -0.351 OA
BRANCH  19  20
HETATM   20  C   UNL     1      39.489  -9.996  12.961  1.00  0.00     0.171 C 
HETATM   21  C   UNL     1      38.841 -11.322  12.609  1.00  0.00     0.034 C 
ENDBRANCH  19  20
ENDBRANCH  14  19
ENDBRANCH  12  13
ENDBRANCH   8  11
ENDBRANCH   1   7
BRANCH   5  22
HETATM   22  C   UNL     1      43.489 -15.192   5.513  1.00  0.00     0.005 A 
HETATM   23  C   UNL     1      43.303 -15.408   4.114  1.00  0.00    -0.012 A 
HETATM   24  C   UNL     1      43.433 -16.708   3.689  1.00  0.00    -0.012 A 
HETATM   25  C   UNL     1      43.023 -14.472   3.083  1.00  0.00     0.013 A 
HETATM   26  C   UNL     1      43.277 -17.121   2.378  1.00  0.00    -0.046 A 
HETATM   27  C   UNL     1      43.753 -17.770   4.513  1.00  0.00    -0.046 A 
HETATM   28  C   UNL     1      42.976 -16.223   1.366  1.00  0.00     0.008 A 
HETATM   29  C   UNL     1      43.491 -18.590   2.268  1.00  0.00     0.044 A 
HETATM   30  C   UNL     1      42.858 -14.879   1.744  1.00  0.00     0.001 A 
HETATM   31  C   UNL     1      43.830 -19.033   3.724  1.00  0.00     0.044 A 
HETATM   32  C   UNL     1      43.974 -17.592   5.869  1.00  0.00     0.009 A 
HETATM   33  C   UNL     1      43.834 -16.282   6.354  1.00  0.00     0.015 A 
ENDBRANCH   5  22
TORSDOF 6
ENDMDL
MODEL 2
REMARK VINA RESULT:     -10.0      1.548      2.040
REMARK  6 active torsions:
REMARK  status: ('A' for Active; 'I' for Inactive)
REMARK    1  A    between atoms: C_2  and  O_3 
REMARK    2  A    between atoms: O_3  and  C_4 
REMARK    3  A    between atoms: C_5  and  C_6 
REMARK    4  A    between atoms: N_7  and  N_8 
REMARK       I    between atoms: N_8  and  C_9 
REMARK    5  A    between atoms: C_9  and  C_10 
REMARK    6  A    between atoms: C_14  and  C_15 
ROOT
HETATM    1  C   UNL     1      43.635 -12.010   7.184  1.00  0.00     0.121 A 
HETATM    2  N   UNL     1      42.344 -12.188   6.768  1.00  0.00    -0.272 N 
HETATM    3  H   UNL     1      41.570 -11.541   6.896  1.00  0.00     0.189 HD
HETATM    4  N   UNL     1      42.117 -13.361   6.157  1.00  0.00    -0.174 NA
HETATM    5  C   UNL     1      43.303 -13.989   6.184  1.00  0.00     0.090 A 
HETATM    6  C   UNL     1      44.294 -13.149   6.762  1.00  0.00     0.071 A 
ENDROOT
BRANCH   1   7
HETATM    7  C   UNL     1      44.036 -10.834   7.922  1.00  0.00     0.289 C 
HETATM    8  N   UNL     1      43.329 -10.646   9.102  1.00  0.00    -0.242 N 
HETATM    9  H   UNL     1      42.644 -11.345   9.362  1.00  0.00     0.192 HD
HETATM   10  O   UNL     1      44.906 -10.095   7.477  1.00  0.00    -0.264 OA
BRANCH   8  11
HETATM   11  N   UNL     1      43.305  -9.567   9.945  1.00  0.00    -0.183 NA
HETATM   12  C   UNL     1      42.411  -9.453  10.874  1.00  0.00     0.153 C 
BRANCH  12  13
HETATM   13  C   UNL     1      42.440  -8.304  11.816  1.00  0.00     0.016 A 
HETATM   14  C   UNL     1      41.697  -7.141  11.546  1.00  0.00     0.080 A 
HETATM   15  C   UNL     1      41.726  -6.092  12.472  1.00  0.00     0.037 A 
HETATM   16  C   UNL     1      42.486  -6.195  13.643  1.00  0.00     0.003 A 
HETATM   17  C   UNL     1      43.226  -7.346  13.900  1.00  0.00     0.001 A 
HETATM   18  C   UNL     1      43.203  -8.399  12.989  1.00  0.00     0.016 A 
BRANCH  14  19
HETATM   19  O   UNL     1      40.977  -7.121  10.380  1.00  0.00    -0.351 OA
BRANCH  19  20
HETATM   20  C   UNL     1      41.186  -6.031   9.483  1.00  0.00     0.171 C 
HETATM   21  C   UNL     1      42.462  -6.303   8.709  1.00  0.00     0.034 C 
ENDBRANCH  19  20
ENDBRANCH  14  19
ENDBRANCH  12  13
ENDBRANCH   8  11
ENDBRANCH   1   7
BRANCH   5  22
HETATM   22  C   UNL     1      43.475 -15.337   5.643  1.00  0.00     0.005 A 
HETATM   23  C   UNL     1      43.349 -15.617   4.248  1.00  0.00    -0.012 A 
HETATM   24  C   UNL     1      43.472 -16.937   3.891  1.00  0.00    -0.012 A 
HETATM   25  C   UNL     1      43.135 -14.725   3.162  1.00  0.00     0.013 A 
HETATM   26  C   UNL     1      43.367 -17.409   2.595  1.00  0.00    -0.046 A 
HETATM   27  C   UNL     1      43.733 -17.965   4.777  1.00  0.00    -0.046 A 
HETATM   28  C   UNL     1      43.130 -16.555   1.529  1.00  0.00     0.008 A 
HETATM   29  C   UNL     1      43.557 -18.886   2.563  1.00  0.00     0.044 A 
HETATM   30  C   UNL     1      43.022 -15.193   1.838  1.00  0.00     0.001 A 
HETATM   31  C   UNL     1      43.821 -19.264   4.053  1.00  0.00     0.044 A 
HETATM   32  C   UNL     1      43.896 -17.726   6.132  1.00  0.00     0.009 A 
HETATM   33  C   UNL     1      43.760 -16.392   6.548  1.00  0.00     0.015 A 
ENDBRANCH   5  22
TORSDOF 6
ENDMDL
MODEL 3
REMARK VINA RESULT:      -9.9      0.582      2.034
REMARK  6 active torsions:
REMARK  status: ('A' for Active; 'I' for Inactive)
REMARK    1  A    between atoms: C_2  and  O_3 
REMARK    2  A    between atoms: O_3  and  C_4 
REMARK    3  A    between atoms: C_5  and  C_6 
REMARK    4  A    between atoms: N_7  and  N_8 
REMARK       I    between atoms: N_8  and  C_9 
REMARK    5  A    between atoms: C_9  and  C_10 
REMARK    6  A    between atoms: C_14  and  C_15 
ROOT
HETATM    1  C   UNL     1      43.604 -11.771   7.094  1.00  0.00     0.121 A 
HETATM    2  N   UNL     1      42.351 -11.609   6.569  1.00  0.00    -0.272 N 
HETATM    3  H   UNL     1      41.669 -10.904   6.833  1.00  0.00     0.189 HD
HETATM    4  N   UNL     1      42.024 -12.511   5.631  1.00  0.00    -0.174 NA
HETATM    5  C   UNL     1      43.098 -13.310   5.544  1.00  0.00     0.090 A 
HETATM    6  C   UNL     1      44.134 -12.841   6.399  1.00  0.00     0.071 A 
ENDROOT
BRANCH   1   7
HETATM    7  C   UNL     1      44.089 -10.930   8.165  1.00  0.00     0.289 C 
HETATM    8  N   UNL     1      43.162 -10.723   9.177  1.00  0.00    -0.242 N 
HETATM    9  H   UNL     1      42.268 -11.192   9.106  1.00  0.00     0.192 HD
HETATM   10  O   UNL     1      45.216 -10.452   8.109  1.00  0.00    -0.264 OA
BRANCH   8  11
HETATM   11  N   UNL     1      43.201  -9.851  10.232  1.00  0.00    -0.183 NA
HETATM   12  C   UNL     1      42.457 -10.021  11.279  1.00  0.00     0.153 C 
BRANCH  12  13
HETATM   13  C   UNL     1      42.559  -9.096  12.438  1.00  0.00     0.016 A 
HETATM   14  C   UNL     1      41.724  -9.260  13.557  1.00  0.00     0.080 A 
HETATM   15  C   UNL     1      41.872  -8.387  14.642  1.00  0.00     0.037 A 
HETATM   16  C   UNL     1      42.829  -7.366  14.611  1.00  0.00     0.003 A 
HETATM   17  C   UNL     1      43.647  -7.205  13.497  1.00  0.00     0.001 A 
HETATM   18  C   UNL     1      43.515  -8.068  12.412  1.00  0.00     0.016 A 
BRANCH  14  19
HETATM   19  O   UNL     1      40.816 -10.284  13.510  1.00  0.00    -0.351 OA
BRANCH  19  20
HETATM   20  C   UNL     1      39.473  -9.973  13.143  1.00  0.00     0.171 C 
HETATM   21  C   UNL     1      38.904 -11.168  12.401  1.00  0.00     0.034 C 
ENDBRANCH  19  20
ENDBRANCH  14  19
ENDBRANCH  12  13
ENDBRANCH   8  11
ENDBRANCH   1   7
BRANCH   5  22
HETATM   22  C   UNL     1      43.132 -14.465   4.646  1.00  0.00     0.005 A 
HETATM   23  C   UNL     1      43.327 -15.795   5.127  1.00  0.00    -0.012 A 
HETATM   24  C   UNL     1      43.402 -16.772   4.165  1.00  0.00    -0.012 A 
HETATM   25  C   UNL     1      43.434 -16.268   6.463  1.00  0.00     0.013 A 
HETATM   26  C   UNL     1      43.601 -18.115   4.429  1.00  0.00    -0.046 A 
HETATM   27  C   UNL     1      43.272 -16.544   2.808  1.00  0.00    -0.046 A 
HETATM   28  C   UNL     1      43.735 -18.588   5.726  1.00  0.00     0.008 A 
HETATM   29  C   UNL     1      43.626 -18.896   3.161  1.00  0.00     0.044 A 
HETATM   30  C   UNL     1      43.641 -17.632   6.746  1.00  0.00     0.001 A 
HETATM   31  C   UNL     1      43.387 -17.824   2.054  1.00  0.00     0.044 A 
HETATM   32  C   UNL     1      43.048 -15.272   2.308  1.00  0.00     0.009 A 
HETATM   33  C   UNL     1      42.983 -14.236   3.253  1.00  0.00     0.015 A 
ENDBRANCH   5  22
TORSDOF 6
ENDMDL
MODEL 4
REMARK VINA RESULT:      -9.6      1.742      2.958
REMARK  6 active torsions:
REMARK  status: ('A' for Active; 'I' for Inactive)
REMARK    1  A    between atoms: C_2  and  O_3 
REMARK    2  A    between atoms: O_3  and  C_4 
REMARK    3  A    between atoms: C_5  and  C_6 
REMARK    4  A    between atoms: N_7  and  N_8 
REMARK       I    between atoms: N_8  and  C_9 
REMARK    5  A    between atoms: C_9  and  C_10 
REMARK    6  A    between atoms: C_14  and  C_15 
ROOT
HETATM    1  C   UNL     1      43.489 -11.811   6.962  1.00  0.00     0.121 A 
HETATM    2  N   UNL     1      42.151 -11.873   6.680  1.00  0.00    -0.272 N 
HETATM    3  H   UNL     1      41.419 -11.294   7.081  1.00  0.00     0.189 HD
HETATM    4  N   UNL     1      41.816 -12.828   5.798  1.00  0.00    -0.174 NA
HETATM    5  C   UNL     1      42.977 -13.429   5.497  1.00  0.00     0.090 A 
HETATM    6  C   UNL     1      44.056 -12.779   6.157  1.00  0.00     0.071 A 
ENDROOT
BRANCH   1   7
HETATM    7  C   UNL     1      44.012 -10.888   7.943  1.00  0.00     0.289 C 
HETATM    8  N   UNL     1      43.053 -10.407   8.825  1.00  0.00    -0.242 N 
HETATM    9  H   UNL     1      42.108 -10.759   8.738  1.00  0.00     0.192 HD
HETATM   10  O   UNL     1      45.197 -10.578   7.926  1.00  0.00    -0.264 OA
BRANCH   8  11
HETATM   11  N   UNL     1      43.141  -9.397   9.745  1.00  0.00    -0.183 NA
HETATM   12  C   UNL     1      42.207  -9.193  10.619  1.00  0.00     0.153 C 
BRANCH  12  13
HETATM   13  C   UNL     1      42.351  -8.130  11.647  1.00  0.00     0.016 A 
HETATM   14  C   UNL     1      41.771  -6.864  11.450  1.00  0.00     0.080 A 
HETATM   15  C   UNL     1      41.903  -5.898  12.456  1.00  0.00     0.037 A 
HETATM   16  C   UNL     1      42.604  -6.185  13.632  1.00  0.00     0.003 A 
HETATM   17  C   UNL     1      43.182  -7.438  13.817  1.00  0.00     0.001 A 
HETATM   18  C   UNL     1      43.056  -8.410  12.828  1.00  0.00     0.016 A 
BRANCH  14  19
HETATM   19  O   UNL     1      41.100  -6.665  10.273  1.00  0.00    -0.351 OA
BRANCH  19  20
HETATM   20  C   UNL     1      41.556  -5.625   9.409  1.00  0.00     0.171 C 
HETATM   21  C   UNL     1      42.170  -6.274   8.183  1.00  0.00     0.034 C 
ENDBRANCH  19  20
ENDBRANCH  14  19
ENDBRANCH  12  13
ENDBRANCH   8  11
ENDBRANCH   1   7
BRANCH   5  22
HETATM   22  C   UNL     1      43.042 -14.569   4.581  1.00  0.00     0.005 A 
HETATM   23  C   UNL     1      43.270 -15.901   5.043  1.00  0.00    -0.012 A 
HETATM   24  C   UNL     1      43.372 -16.861   4.067  1.00  0.00    -0.012 A 
HETATM   25  C   UNL     1      43.387 -16.390   6.372  1.00  0.00     0.013 A 
HETATM   26  C   UNL     1      43.604 -18.203   4.312  1.00  0.00    -0.046 A 
HETATM   27  C   UNL     1      43.238 -16.617   2.714  1.00  0.00    -0.046 A 
HETATM   28  C   UNL     1      43.749 -18.691   5.602  1.00  0.00     0.008 A 
HETATM   29  C   UNL     1      43.652 -18.963   3.033  1.00  0.00     0.044 A 
HETATM   30  C   UNL     1      43.628 -17.753   6.636  1.00  0.00     0.001 A 
HETATM   31  C   UNL     1      43.388 -17.882   1.941  1.00  0.00     0.044 A 
HETATM   32  C   UNL     1      42.983 -15.343   2.232  1.00  0.00     0.009 A 
HETATM   33  C   UNL     1      42.889 -14.323   3.192  1.00  0.00     0.015 A 
ENDBRANCH   5  22
TORSDOF 6
ENDMDL
MODEL 5
REMARK VINA RESULT:      -9.6      1.477      1.866
REMARK  6 active torsions:
REMARK  status: ('A' for Active; 'I' for Inactive)
REMARK    1  A    between atoms: C_2  and  O_3 
REMARK    2  A    between atoms: O_3  and  C_4 
REMARK    3  A    between atoms: C_5  and  C_6 
REMARK    4  A    between atoms: N_7  and  N_8 
REMARK       I    between atoms: N_8  and  C_9 
REMARK    5  A    between atoms: C_9  and  C_10 
REMARK    6  A    between atoms: C_14  and  C_15 
ROOT
HETATM    1  C   UNL     1      43.385 -12.028   6.966  1.00  0.00     0.121 A 
HETATM    2  N   UNL     1      42.077 -12.330   6.707  1.00  0.00    -0.272 N 
HETATM    3  H   UNL     1      41.268 -11.745   6.899  1.00  0.00     0.189 HD
HETATM    4  N   UNL     1      41.887 -13.545   6.168  1.00  0.00    -0.174 NA
HETATM    5  C   UNL     1      43.118 -14.070   6.081  1.00  0.00     0.090 A 
HETATM    6  C   UNL     1      44.090 -13.126   6.512  1.00  0.00     0.071 A 
ENDROOT
BRANCH   1   7
HETATM    7  C   UNL     1      43.761 -10.791   7.612  1.00  0.00     0.289 C 
HETATM    8  N   UNL     1      42.722 -10.184   8.305  1.00  0.00    -0.242 N 
HETATM    9  H   UNL     1      41.829 -10.659   8.335  1.00  0.00     0.192 HD
HETATM   10  O   UNL     1      44.900 -10.357   7.495  1.00  0.00    -0.264 OA
BRANCH   8  11
HETATM   11  N   UNL     1      42.657  -8.937   8.867  1.00  0.00    -0.183 NA
HETATM   12  C   UNL     1      42.356  -8.771  10.115  1.00  0.00     0.153 C 
BRANCH  12  13
HETATM   13  C   UNL     1      42.350  -7.413  10.719  1.00  0.00     0.016 A 
HETATM   14  C   UNL     1      42.260  -7.252  12.113  1.00  0.00     0.080 A 
HETATM   15  C   UNL     1      42.288  -5.958  12.646  1.00  0.00     0.037 A 
HETATM   16  C   UNL     1      42.399  -4.844  11.806  1.00  0.00     0.003 A 
HETATM   17  C   UNL     1      42.481  -5.010  10.427  1.00  0.00     0.001 A 
HETATM   18  C   UNL     1      42.458  -6.292   9.883  1.00  0.00     0.016 A 
BRANCH  14  19
HETATM   19  O   UNL     1      42.156  -8.393  12.864  1.00  0.00    -0.351 OA
BRANCH  19  20
HETATM   20  C   UNL     1      40.972  -8.581  13.637  1.00  0.00     0.171 C 
HETATM   21  C   UNL     1      41.343  -8.431  15.101  1.00  0.00     0.034 C 
ENDBRANCH  19  20
ENDBRANCH  14  19
ENDBRANCH  12  13
ENDBRANCH   8  11
ENDBRANCH   1   7
BRANCH   5  22
HETATM   22  C   UNL     1      43.347 -15.423   5.572  1.00  0.00     0.005 A 
HETATM   23  C   UNL     1      43.272 -15.732   4.180  1.00  0.00    -0.012 A 
HETATM   24  C   UNL     1      43.445 -17.054   3.852  1.00  0.00    -0.012 A 
HETATM   25  C   UNL     1      43.065 -14.868   3.071  1.00  0.00     0.013 A 
HETATM   26  C   UNL     1      43.394 -17.553   2.563  1.00  0.00    -0.046 A 
HETATM   27  C   UNL     1      43.709 -18.057   4.766  1.00  0.00    -0.046 A 
HETATM   28  C   UNL     1      43.165 -16.727   1.474  1.00  0.00     0.008 A 
HETATM   29  C   UNL     1      43.628 -19.024   2.566  1.00  0.00     0.044 A 
HETATM   30  C   UNL     1      43.007 -15.363   1.753  1.00  0.00     0.001 A 
HETATM   31  C   UNL     1      43.857 -19.367   4.070  1.00  0.00     0.044 A 
HETATM   32  C   UNL     1      43.823 -17.788   6.120  1.00  0.00     0.009 A 
HETATM   33  C   UNL     1      43.635 -16.452   6.506  1.00  0.00     0.015 A 
ENDBRANCH   5  22
TORSDOF 6
ENDMDL
MODEL 6
REMARK VINA RESULT:      -9.5      1.875      3.324
REMARK  6 active torsions:
REMARK  status: ('A' for Active; 'I' for Inactive)
REMARK    1  A    between atoms: C_2  and  O_3 
REMARK    2  A    between atoms: O_3  and  C_4 
REMARK    3  A    between atoms: C_5  and  C_6 
REMARK    4  A    between atoms: N_7  and  N_8 
REMARK       I    between atoms: N_8  and  C_9 
REMARK    5  A    between atoms: C_9  and  C_10 
REMARK    6  A    between atoms: C_14  and  C_15 
ROOT
HETATM    1  C   UNL     1      42.838 -12.978   5.725  1.00  0.00     0.121 A 
HETATM    2  N   UNL     1      42.057 -13.788   6.502  1.00  0.00    -0.272 N 
HETATM    3  H   UNL     1      41.583 -13.531   7.363  1.00  0.00     0.189 HD
HETATM    4  N   UNL     1      41.956 -15.050   6.056  1.00  0.00    -0.174 NA
HETATM    5  C   UNL     1      42.713 -15.077   4.948  1.00  0.00     0.090 A 
HETATM    6  C   UNL     1      43.231 -13.781   4.672  1.00  0.00     0.071 A 
ENDROOT
BRANCH   1   7
HETATM    7  C   UNL     1      43.111 -11.608   6.099  1.00  0.00     0.289 C 
HETATM    8  N   UNL     1      43.234 -11.416   7.468  1.00  0.00    -0.242 N 
HETATM    9  H   UNL     1      43.166 -12.228   8.070  1.00  0.00     0.192 HD
HETATM   10  O   UNL     1      43.186 -10.739   5.239  1.00  0.00    -0.264 OA
BRANCH   8  11
HETATM   11  N   UNL     1      43.303 -10.251   8.185  1.00  0.00    -0.183 NA
HETATM   12  C   UNL     1      42.244  -9.557   8.452  1.00  0.00     0.153 C 
BRANCH  12  13
HETATM   13  C   UNL     1      42.334  -8.328   9.283  1.00  0.00     0.016 A 
HETATM   14  C   UNL     1      42.037  -8.371  10.656  1.00  0.00     0.080 A 
HETATM   15  C   UNL     1      42.163  -7.199  11.411  1.00  0.00     0.037 A 
HETATM   16  C   UNL     1      42.572  -6.004  10.809  1.00  0.00     0.003 A 
HETATM   17  C   UNL     1      42.858  -5.966   9.448  1.00  0.00     0.001 A 
HETATM   18  C   UNL     1      42.741  -7.125   8.684  1.00  0.00     0.016 A 
BRANCH  14  19
HETATM   19  O   UNL     1      41.645  -9.580  11.169  1.00  0.00    -0.351 OA
BRANCH  19  20
HETATM   20  C   UNL     1      42.375 -10.106  12.276  1.00  0.00     0.171 C 
HETATM   21  C   UNL     1      43.654 -10.721  11.741  1.00  0.00     0.034 C 
ENDBRANCH  19  20
ENDBRANCH  14  19
ENDBRANCH  12  13
ENDBRANCH   8  11
ENDBRANCH   1   7
BRANCH   5  22
HETATM   22  C   UNL     1      42.902 -16.301   4.170  1.00  0.00     0.005 A 
HETATM   23  C   UNL     1      43.202 -17.553   4.787  1.00  0.00    -0.012 A 
HETATM   24  C   UNL     1      43.417 -18.605   3.931  1.00  0.00    -0.012 A 
HETATM   25  C   UNL     1      43.291 -17.884   6.167  1.00  0.00     0.013 A 
HETATM   26  C   UNL     1      43.732 -19.890   4.334  1.00  0.00    -0.046 A 
HETATM   27  C   UNL     1      43.330 -18.521   2.554  1.00  0.00    -0.046 A 
HETATM   28  C   UNL     1      43.851 -20.221   5.675  1.00  0.00     0.008 A 
HETATM   29  C   UNL     1      43.893 -20.780   3.151  1.00  0.00     0.044 A 
HETATM   30  C   UNL     1      43.615 -19.188   6.591  1.00  0.00     0.001 A 
HETATM   31  C   UNL     1      43.605 -19.848   1.935  1.00  0.00     0.044 A 
HETATM   32  C   UNL     1      43.007 -17.330   1.922  1.00  0.00     0.009 A 
HETATM   33  C   UNL     1      42.797 -16.222   2.757  1.00  0.00     0.015 A 
ENDBRANCH   5  22
TORSDOF 6
ENDMDL
MODEL 7
REMARK VINA RESULT:      -9.3      2.583      3.635
REMARK  6 active torsions:
REMARK  status: ('A' for Active; 'I' for Inactive)
REMARK    1  A    between atoms: C_2  and  O_3 
REMARK    2  A    between atoms: O_3  and  C_4 
REMARK    3  A    between atoms: C_5  and  C_6 
REMARK    4  A    between atoms: N_7  and  N_8 
REMARK       I    between atoms: N_8  and  C_9 
REMARK    5  A    between atoms: C_9  and  C_10 
REMARK    6  A    between atoms: C_14  and  C_15 
ROOT
HETATM    1  C   UNL     1      40.137 -11.915   5.922  1.00  0.00     0.121 A 
HETATM    2  N   UNL     1      40.987 -11.389   4.988  1.00  0.00    -0.272 N 
HETATM    3  H   UNL     1      41.166 -10.403   4.817  1.00  0.00     0.189 HD
HETATM    4  N   UNL     1      41.605 -12.304   4.226  1.00  0.00    -0.174 NA
HETATM    5  C   UNL     1      41.133 -13.481   4.665  1.00  0.00     0.090 A 
HETATM    6  C   UNL     1      40.260 -13.282   5.769  1.00  0.00     0.071 A 
ENDROOT
BRANCH   1   7
HETATM    7  C   UNL     1      39.338 -11.068   6.779  1.00  0.00     0.289 C 
HETATM    8  N   UNL     1      40.084 -10.166   7.526  1.00  0.00    -0.242 N 
HETATM    9  H   UNL     1      41.086 -10.148   7.387  1.00  0.00     0.192 HD
HETATM   10  O   UNL     1      38.121 -11.204   6.817  1.00  0.00    -0.264 OA
BRANCH   8  11
HETATM   11  N   UNL     1      39.695  -9.356   8.559  1.00  0.00    -0.183 NA
HETATM   12  C   UNL     1      39.892  -9.691   9.794  1.00  0.00     0.153 C 
BRANCH  12  13
HETATM   13  C   UNL     1      39.517  -8.768  10.898  1.00  0.00     0.016 A 
HETATM   14  C   UNL     1      40.038  -8.953  12.191  1.00  0.00     0.080 A 
HETATM   15  C   UNL     1      39.685  -8.045  13.197  1.00  0.00     0.037 A 
HETATM   16  C   UNL     1      38.824  -6.977  12.922  1.00  0.00     0.003 A 
HETATM   17  C   UNL     1      38.306  -6.804  11.642  1.00  0.00     0.001 A 
HETATM   18  C   UNL     1      38.652  -7.697  10.630  1.00  0.00     0.016 A 
BRANCH  14  19
HETATM   19  O   UNL     1      40.875 -10.022  12.376  1.00  0.00    -0.351 OA
BRANCH  19  20
HETATM   20  C   UNL     1      42.183  -9.768  12.885  1.00  0.00     0.171 C 
HETATM   21  C   UNL     1      43.185 -10.354  11.908  1.00  0.00     0.034 C 
ENDBRANCH  19  20
ENDBRANCH  14  19
ENDBRANCH  12  13
ENDBRANCH   8  11
ENDBRANCH   1   7
BRANCH   5  22
HETATM   22  C   UNL     1      41.537 -14.750   4.058  1.00  0.00     0.005 A 
HETATM   23  C   UNL     1      42.572 -15.561   4.614  1.00  0.00    -0.012 A 
HETATM   24  C   UNL     1      42.890 -16.692   3.904  1.00  0.00    -0.012 A 
HETATM   25  C   UNL     1      43.315 -15.384   5.813  1.00  0.00     0.013 A 
HETATM   26  C   UNL     1      43.871 -17.596   4.270  1.00  0.00    -0.046 A 
HETATM   27  C   UNL     1      42.259 -17.086   2.738  1.00  0.00    -0.046 A 
HETATM   28  C   UNL     1      44.624 -17.422   5.422  1.00  0.00     0.008 A 
HETATM   29  C   UNL     1      43.950 -18.706   3.282  1.00  0.00     0.044 A 
HETATM   30  C   UNL     1      44.320 -16.295   6.196  1.00  0.00     0.001 A 
HETATM   31  C   UNL     1      42.839 -18.366   2.242  1.00  0.00     0.044 A 
HETATM   32  C   UNL     1      41.228 -16.341   2.189  1.00  0.00     0.009 A 
HETATM   33  C   UNL     1      40.880 -15.165   2.871  1.00  0.00     0.015 A 
ENDBRANCH   5  22
TORSDOF 6
ENDMDL
MODEL 8
REMARK VINA RESULT:      -9.1      7.285     10.917
REMARK  6 active torsions:
REMARK  status: ('A' for Active; 'I' for Inactive)
REMARK    1  A    between atoms: C_2  and  O_3 
REMARK    2  A    between atoms: O_3  and  C_4 
REMARK    3  A    between atoms: C_5  and  C_6 
REMARK    4  A    between atoms: N_7  and  N_8 
REMARK       I    between atoms: N_8  and  C_9 
REMARK    5  A    between atoms: C_9  and  C_10 
REMARK    6  A    between atoms: C_14  and  C_15 
ROOT
HETATM    1  C   UNL     1      40.183 -14.123  -0.053  1.00  0.00     0.121 A 
HETATM    2  N   UNL     1      39.541 -15.322   0.090  1.00  0.00    -0.272 N 
HETATM    3  H   UNL     1      38.877 -15.737  -0.559  1.00  0.00     0.189 HD
HETATM    4  N   UNL     1      39.826 -15.970   1.230  1.00  0.00    -0.174 NA
HETATM    5  C   UNL     1      40.681 -15.159   1.872  1.00  0.00     0.090 A 
HETATM    6  C   UNL     1      40.978 -14.021   1.072  1.00  0.00     0.071 A 
ENDROOT
BRANCH   1   7
HETATM    7  C   UNL     1      39.935 -13.263  -1.188  1.00  0.00     0.289 C 
HETATM    8  N   UNL     1      41.057 -12.569  -1.619  1.00  0.00    -0.242 N 
HETATM    9  H   UNL     1      41.935 -12.745  -1.147  1.00  0.00     0.192 HD
HETATM   10  O   UNL     1      38.808 -13.179  -1.661  1.00  0.00    -0.264 OA
BRANCH   8  11
HETATM   11  N   UNL     1      41.158 -11.547  -2.525  1.00  0.00    -0.183 NA
HETATM   12  C   UNL     1      40.901 -10.321  -2.194  1.00  0.00     0.153 C 
BRANCH  12  13
HETATM   13  C   UNL     1      41.075  -9.220  -3.177  1.00  0.00     0.016 A 
HETATM   14  C   UNL     1      41.955  -8.157  -2.908  1.00  0.00     0.080 A 
HETATM   15  C   UNL     1      42.115  -7.154  -3.872  1.00  0.00     0.037 A 
HETATM   16  C   UNL     1      41.407  -7.205  -5.078  1.00  0.00     0.003 A 
HETATM   17  C   UNL     1      40.532  -8.256  -5.334  1.00  0.00     0.001 A 
HETATM   18  C   UNL     1      40.365  -9.263  -4.387  1.00  0.00     0.016 A 
BRANCH  14  19
HETATM   19  O   UNL     1      42.612  -8.183  -1.706  1.00  0.00    -0.351 OA
BRANCH  19  20
HETATM   20  C   UNL     1      42.306  -7.166  -0.754  1.00  0.00     0.171 C 
HETATM   21  C   UNL     1      43.434  -6.152  -0.777  1.00  0.00     0.034 C 
ENDBRANCH  19  20
ENDBRANCH  14  19
ENDBRANCH  12  13
ENDBRANCH   8  11
ENDBRANCH   1   7
BRANCH   5  22
HETATM   22  C   UNL     1      41.212 -15.488   3.195  1.00  0.00     0.005 A 
HETATM   23  C   UNL     1      42.180 -16.520   3.389  1.00  0.00    -0.012 A 
HETATM   24  C   UNL     1      42.541 -16.763   4.691  1.00  0.00    -0.012 A 
HETATM   25  C   UNL     1      42.849 -17.325   2.428  1.00  0.00     0.013 A 
HETATM   26  C   UNL     1      43.450 -17.728   5.084  1.00  0.00    -0.046 A 
HETATM   27  C   UNL     1      42.054 -16.063   5.780  1.00  0.00    -0.046 A 
HETATM   28  C   UNL     1      44.090 -18.540   4.159  1.00  0.00     0.008 A 
HETATM   29  C   UNL     1      43.610 -17.720   6.564  1.00  0.00     0.044 A 
HETATM   30  C   UNL     1      43.775 -18.315   2.813  1.00  0.00     0.001 A 
HETATM   31  C   UNL     1      42.667 -16.573   7.039  1.00  0.00     0.044 A 
HETATM   32  C   UNL     1      41.140 -15.034   5.627  1.00  0.00     0.009 A 
HETATM   33  C   UNL     1      40.727 -14.760   4.313  1.00  0.00     0.015 A 
ENDBRANCH   5  22
TORSDOF 6
ENDMDL
MODEL 9
REMARK VINA RESULT:      -9.0      2.465      4.118
REMARK  6 active torsions:
REMARK  status: ('A' for Active; 'I' for Inactive)
REMARK    1  A    between atoms: C_2  and  O_3 
REMARK    2  A    between atoms: O_3  and  C_4 
REMARK    3  A    between atoms: C_5  and  C_6 
REMARK    4  A    between atoms: N_7  and  N_8 
REMARK       I    between atoms: N_8  and  C_9 
REMARK    5  A    between atoms: C_9  and  C_10 
REMARK    6  A    between atoms: C_14  and  C_15 
ROOT
HETATM    1  C   UNL     1      42.852 -12.986   5.756  1.00  0.00     0.121 A 
HETATM    2  N   UNL     1      42.090 -13.799   6.549  1.00  0.00    -0.272 N 
HETATM    3  H   UNL     1      41.633 -13.542   7.420  1.00  0.00     0.189 HD
HETATM    4  N   UNL     1      41.983 -15.061   6.107  1.00  0.00    -0.174 NA
HETATM    5  C   UNL     1      42.716 -15.086   4.983  1.00  0.00     0.090 A 
HETATM    6  C   UNL     1      43.224 -13.790   4.695  1.00  0.00     0.071 A 
ENDROOT
BRANCH   1   7
HETATM    7  C   UNL     1      43.128 -11.616   6.122  1.00  0.00     0.289 C 
HETATM    8  N   UNL     1      43.290 -11.424   7.488  1.00  0.00    -0.242 N 
HETATM    9  H   UNL     1      43.243 -12.236   8.091  1.00  0.00     0.192 HD
HETATM   10  O   UNL     1      43.174 -10.746   5.261  1.00  0.00    -0.264 OA
BRANCH   8  11
HETATM   11  N   UNL     1      43.374 -10.260   8.203  1.00  0.00    -0.183 NA
HETATM   12  C   UNL     1      42.347  -9.487   8.363  1.00  0.00     0.153 C 
BRANCH  12  13
HETATM   13  C   UNL     1      42.446  -8.259   9.194  1.00  0.00     0.016 A 
HETATM   14  C   UNL     1      42.514  -6.992   8.589  1.00  0.00     0.080 A 
HETATM   15  C   UNL     1      42.575  -5.856   9.406  1.00  0.00     0.037 A 
HETATM   16  C   UNL     1      42.576  -5.981  10.800  1.00  0.00     0.003 A 
HETATM   17  C   UNL     1      42.516  -7.238  11.392  1.00  0.00     0.001 A 
HETATM   18  C   UNL     1      42.450  -8.377  10.592  1.00  0.00     0.016 A 
BRANCH  14  19
HETATM   19  O   UNL     1      42.506  -6.957   7.219  1.00  0.00    -0.351 OA
BRANCH  19  20
HETATM   20  C   UNL     1      41.366  -6.396   6.570  1.00  0.00     0.171 C 
HETATM   21  C   UNL     1      41.770  -5.048   6.003  1.00  0.00     0.034 C 
ENDBRANCH  19  20
ENDBRANCH  14  19
ENDBRANCH  12  13
ENDBRANCH   8  11
ENDBRANCH   1   7
BRANCH   5  22
HETATM   22  C   UNL     1      42.892 -16.311   4.202  1.00  0.00     0.005 A 
HETATM   23  C   UNL     1      43.207 -17.562   4.814  1.00  0.00    -0.012 A 
HETATM   24  C   UNL     1      43.407 -18.614   3.954  1.00  0.00    -0.012 A 
HETATM   25  C   UNL     1      43.324 -17.892   6.192  1.00  0.00     0.013 A 
HETATM   26  C   UNL     1      43.733 -19.898   4.351  1.00  0.00    -0.046 A 
HETATM   27  C   UNL     1      43.292 -18.531   2.579  1.00  0.00    -0.046 A 
HETATM   28  C   UNL     1      43.879 -20.228   5.690  1.00  0.00     0.008 A 
HETATM   29  C   UNL     1      43.873 -20.789   3.167  1.00  0.00     0.044 A 
HETATM   30  C   UNL     1      43.660 -19.195   6.611  1.00  0.00     0.001 A 
HETATM   31  C   UNL     1      43.558 -19.858   1.955  1.00  0.00     0.044 A 
HETATM   32  C   UNL     1      42.955 -17.342   1.953  1.00  0.00     0.009 A 
HETATM   33  C   UNL     1      42.758 -16.233   2.792  1.00  0.00     0.015 A 
ENDBRANCH   5  22
TORSDOF 6
ENDMDL
MODEL 10
REMARK VINA RESULT:      -8.8      7.375     10.486
REMARK  6 active torsions:
REMARK  status: ('A' for Active; 'I' for Inactive)
REMARK    1  A    between atoms: C_2  and  O_3 
REMARK    2  A    between atoms: O_3  and  C_4 
REMARK    3  A    between atoms: C_5  and  C_6 
REMARK    4  A    between atoms: N_7  and  N_8 
REMARK       I    between atoms: N_8  and  C_9 
REMARK    5  A    between atoms: C_9  and  C_10 
REMARK    6  A    between atoms: C_14  and  C_15 
ROOT
HETATM    1  C   UNL     1      40.469 -13.834   0.114  1.00  0.00     0.121 A 
HETATM    2  N   UNL     1      39.667 -14.938   0.209  1.00  0.00    -0.272 N 
HETATM    3  H   UNL     1      38.928 -15.210  -0.434  1.00  0.00     0.189 HD
HETATM    4  N   UNL     1      39.896 -15.696   1.293  1.00  0.00    -0.174 NA
HETATM    5  C   UNL     1      40.881 -15.059   1.946  1.00  0.00     0.090 A 
HETATM    6  C   UNL     1      41.310 -13.923   1.206  1.00  0.00     0.071 A 
ENDROOT
BRANCH   1   7
HETATM    7  C   UNL     1      40.307 -12.873  -0.953  1.00  0.00     0.289 C 
HETATM    8  N   UNL     1      41.328 -11.934  -1.019  1.00  0.00    -0.242 N 
HETATM    9  H   UNL     1      42.096 -12.020  -0.365  1.00  0.00     0.192 HD
HETATM   10  O   UNL     1      39.321 -12.919  -1.678  1.00  0.00    -0.264 OA
BRANCH   8  11
HETATM   11  N   UNL     1      41.413 -10.787  -1.762  1.00  0.00    -0.183 NA
HETATM   12  C   UNL     1      41.552  -9.627  -1.203  1.00  0.00     0.153 C 
BRANCH  12  13
HETATM   13  C   UNL     1      41.704  -8.401  -2.030  1.00  0.00     0.016 A 
HETATM   14  C   UNL     1      40.577  -7.772  -2.587  1.00  0.00     0.080 A 
HETATM   15  C   UNL     1      40.758  -6.602  -3.334  1.00  0.00     0.037 A 
HETATM   16  C   UNL     1      42.038  -6.072  -3.529  1.00  0.00     0.003 A 
HETATM   17  C   UNL     1      43.150  -6.704  -2.981  1.00  0.00     0.001 A 
HETATM   18  C   UNL     1      42.985  -7.866  -2.232  1.00  0.00     0.016 A 
BRANCH  14  19
HETATM   19  O   UNL     1      39.360  -8.354  -2.347  1.00  0.00    -0.351 OA
BRANCH  19  20
HETATM   20  C   UNL     1      38.506  -8.605  -3.462  1.00  0.00     0.171 C 
HETATM   21  C   UNL     1      38.144 -10.078  -3.449  1.00  0.00     0.034 C 
ENDBRANCH  19  20
ENDBRANCH  14  19
ENDBRANCH  12  13
ENDBRANCH   8  11
ENDBRANCH   1   7
BRANCH   5  22
HETATM   22  C   UNL     1      41.405 -15.549   3.221  1.00  0.00     0.005 A 
HETATM   23  C   UNL     1      42.329 -16.636   3.293  1.00  0.00    -0.012 A 
HETATM   24  C   UNL     1      42.687 -17.032   4.558  1.00  0.00    -0.012 A 
HETATM   25  C   UNL     1      42.957 -17.362   2.245  1.00  0.00     0.013 A 
HETATM   26  C   UNL     1      43.557 -18.071   4.836  1.00  0.00    -0.046 A 
HETATM   27  C   UNL     1      42.238 -16.432   5.720  1.00  0.00    -0.046 A 
HETATM   28  C   UNL     1      44.154 -18.806   3.824  1.00  0.00     0.008 A 
HETATM   29  C   UNL     1      43.726 -18.227   6.307  1.00  0.00     0.044 A 
HETATM   30  C   UNL     1      43.842 -18.425   2.513  1.00  0.00     0.001 A 
HETATM   31  C   UNL     1      42.836 -17.098   6.912  1.00  0.00     0.044 A 
HETATM   32  C   UNL     1      41.368 -15.354   5.687  1.00  0.00     0.009 A 
HETATM   33  C   UNL     1      40.959 -14.925   4.414  1.00  0.00     0.015 A 
ENDBRANCH   5  22
TORSDOF 6
ENDMDL
