MODEL 1
REMARK VINA RESULT:      -9.2      0.000      0.000
REMARK  4 active torsions:
REMARK  status: ('A' for Active; 'I' for Inactive)
REMARK    1  A    between atoms: C_6  and  N_7 
REMARK       I    between atoms: N_7  and  C_8 
REMARK    2  A    between atoms: C_8  and  C_9 
REMARK    3  A    between atoms: C_10  and  C_11 
REMARK    4  A    between atoms: C_14  and  O_15 
ROOT
HETATM    1  C   UNL     1      42.287 -14.943   4.798  1.00  0.00     0.131 C 
HETATM    2  C   UNL     1      42.769 -15.465   3.418  1.00  0.00     0.177 C 
HETATM    3  N   UNL     1      41.771 -15.152   2.389  1.00  0.00    -0.088 N 
HETATM    4  C   UNL     1      40.473 -14.781   2.633  1.00  0.00     0.721 A 
HETATM    5  N   UNL     1      40.016 -14.590   3.891  1.00  0.00    -0.218 N 
HETATM    6  C   UNL     1      40.771 -15.185   4.993  1.00  0.00     0.111 C 
HETATM    7  C   UNL     1      40.245 -14.663   6.328  1.00  0.00     0.034 C 
HETATM    8  N   UNL     1      42.051 -15.076   1.071  1.00  0.00    -0.149 NA
HETATM    9  C   UNL     1      40.856 -14.740   0.577  1.00  0.00     0.275 A 
HETATM   10  N   UNL     1      39.865 -14.548   1.501  1.00  0.00    -0.055 NA
HETATM   11  H   UNL     1      38.998 -14.622   3.980  1.00  0.00     0.178 HD
ENDROOT
BRANCH   1  12
HETATM   12  C   UNL     1      42.756 -13.489   4.955  1.00  0.00     0.230 C 
HETATM   13  N   UNL     1      43.109 -13.118   6.230  1.00  0.00    -0.326 N 
HETATM   14  H   UNL     1      43.030 -13.865   6.920  1.00  0.00     0.169 HD
HETATM   15  O   UNL     1      42.696 -12.769   3.963  1.00  0.00    -0.273 OA
BRANCH  13  16
HETATM   16  C   UNL     1      43.551 -11.898   6.796  1.00  0.00     0.040 A 
HETATM   17  C   UNL     1      42.825 -10.716   7.024  1.00  0.00    -0.035 A 
HETATM   18  C   UNL     1      43.484  -9.615   7.626  1.00  0.00     0.015 A 
HETATM   19  C   UNL     1      41.383 -10.496   6.671  1.00  0.00     0.050 C 
HETATM   20  C   UNL     1      44.837  -9.654   7.981  1.00  0.00    -0.061 A 
HETATM   21  C   UNL     1      45.511  -8.471   8.608  1.00  0.00     0.048 C 
HETATM   22  C   UNL     1      45.554 -10.816   7.731  1.00  0.00     0.009 A 
HETATM   23  C   UNL     1      44.918 -11.915   7.149  1.00  0.00     0.030 A 
ENDBRANCH  13  16
ENDBRANCH   1  12
BRANCH   2  24
HETATM   24  C   UNL     1      43.144 -16.955   3.355  1.00  0.00    -0.032 A 
HETATM   25  C   UNL     1      43.931 -17.609   4.313  1.00  0.00     0.012 A 
HETATM   26  C   UNL     1      44.225 -18.973   4.196  1.00  0.00     0.037 A 
HETATM   27  C   UNL     1      43.739 -19.724   3.127  1.00  0.00     0.068 A 
HETATM   28  C   UNL     1      42.978 -19.089   2.152  1.00  0.00     0.037 A 
HETATM   29  C   UNL     1      42.692 -17.722   2.263  1.00  0.00     0.012 A 
BRANCH  27  30
HETATM   30  O   UNL     1      44.088 -21.045   3.146  1.00  0.00    -0.356 OA
HETATM   31  C   UNL     1      44.107 -21.679   4.419  1.00  0.00     0.210 C 
ENDBRANCH  27  30
ENDBRANCH   2  24
TORSDOF 4
ENDMDL
MODEL 2
REMARK VINA RESULT:      -9.0      1.148      2.028
REMARK  4 active torsions:
REMARK  status: ('A' for Active; 'I' for Inactive)
REMARK    1  A    between atoms: C_6  and  N_7 
REMARK       I    between atoms: N_7  and  C_8 
REMARK    2  A    between atoms: C_8  and  C_9 
REMARK    3  A    between atoms: C_10  and  C_11 
REMARK    4  A    between atoms: C_14  and  O_15 
ROOT
HETATM    1  C   UNL     1      42.048 -13.863   4.931  1.00  0.00     0.131 C 
HETATM    2  C   UNL     1      42.592 -14.328   3.554  1.00  0.00     0.177 C 
HETATM    3  N   UNL     1      41.644 -13.966   2.495  1.00  0.00    -0.088 N 
HETATM    4  C   UNL     1      40.337 -13.599   2.694  1.00  0.00     0.721 A 
HETATM    5  N   UNL     1      39.822 -13.459   3.936  1.00  0.00    -0.218 N 
HETATM    6  C   UNL     1      40.524 -14.104   5.046  1.00  0.00     0.111 C 
HETATM    7  C   UNL     1      39.938 -13.637   6.376  1.00  0.00     0.034 C 
HETATM    8  N   UNL     1      41.986 -13.836   1.196  1.00  0.00    -0.149 NA
HETATM    9  C   UNL     1      40.816 -13.473   0.661  1.00  0.00     0.275 A 
HETATM   10  N   UNL     1      39.783 -13.315   1.546  1.00  0.00    -0.055 NA
HETATM   11  H   UNL     1      38.802 -13.489   3.977  1.00  0.00     0.178 HD
ENDROOT
BRANCH   1  12
HETATM   12  C   UNL     1      42.514 -12.419   5.172  1.00  0.00     0.230 C 
HETATM   13  N   UNL     1      42.741 -12.084   6.485  1.00  0.00    -0.326 N 
HETATM   14  H   UNL     1      42.585 -12.846   7.145  1.00  0.00     0.169 HD
HETATM   15  O   UNL     1      42.561 -11.674   4.198  1.00  0.00    -0.273 OA
BRANCH  13  16
HETATM   16  C   UNL     1      43.137 -10.884   7.124  1.00  0.00     0.040 A 
HETATM   17  C   UNL     1      44.431 -10.442   7.447  1.00  0.00    -0.035 A 
HETATM   18  C   UNL     1      44.585  -9.181   8.078  1.00  0.00     0.015 A 
HETATM   19  C   UNL     1      45.701 -11.199   7.193  1.00  0.00     0.050 C 
HETATM   20  C   UNL     1      43.493  -8.372   8.412  1.00  0.00    -0.061 A 
HETATM   21  C   UNL     1      43.684  -7.048   9.088  1.00  0.00     0.048 C 
HETATM   22  C   UNL     1      42.216  -8.827   8.112  1.00  0.00     0.009 A 
HETATM   23  C   UNL     1      42.046 -10.060   7.480  1.00  0.00     0.030 A 
ENDBRANCH  13  16
ENDBRANCH   1  12
BRANCH   2  24
HETATM   24  C   UNL     1      42.965 -15.815   3.446  1.00  0.00    -0.032 A 
HETATM   25  C   UNL     1      42.697 -16.614   2.325  1.00  0.00     0.012 A 
HETATM   26  C   UNL     1      43.075 -17.962   2.293  1.00  0.00     0.037 A 
HETATM   27  C   UNL     1      43.733 -18.550   3.371  1.00  0.00     0.068 A 
HETATM   28  C   UNL     1      43.986 -17.783   4.503  1.00  0.00     0.037 A 
HETATM   29  C   UNL     1      43.600 -16.437   4.540  1.00  0.00     0.012 A 
BRANCH  27  30
HETATM   30  O   UNL     1      44.058 -19.867   3.199  1.00  0.00    -0.356 OA
HETATM   31  C   UNL     1      43.660 -20.464   1.971  1.00  0.00     0.210 C 
ENDBRANCH  27  30
ENDBRANCH   2  24
TORSDOF 4
ENDMDL
MODEL 3
REMARK VINA RESULT:      -8.6      4.613      8.624
REMARK  4 active torsions:
REMARK  status: ('A' for Active; 'I' for Inactive)
REMARK    1  A    between atoms: C_6  and  N_7 
REMARK       I    between atoms: N_7  and  C_8 
REMARK    2  A    between atoms: C_8  and  C_9 
REMARK    3  A    between atoms: C_10  and  C_11 
REMARK    4  A    between atoms: C_14  and  O_15 
ROOT
HETATM    1  C   UNL     1      40.499 -12.575  -0.411  1.00  0.00     0.131 C 
HETATM    2  C   UNL     1      40.421 -11.075  -0.016  1.00  0.00     0.177 C 
HETATM    3  N   UNL     1      39.032 -10.711   0.285  1.00  0.00    -0.088 N 
HETATM    4  C   UNL     1      37.928 -11.451  -0.055  1.00  0.00     0.721 A 
HETATM    5  N   UNL     1      38.041 -12.660  -0.649  1.00  0.00    -0.218 N 
HETATM    6  C   UNL     1      39.306 -12.985  -1.307  1.00  0.00     0.111 C 
HETATM    7  C   UNL     1      39.326 -14.460  -1.699  1.00  0.00     0.034 C 
HETATM    8  N   UNL     1      38.684  -9.653   1.046  1.00  0.00    -0.149 NA
HETATM    9  C   UNL     1      37.353  -9.769   1.049  1.00  0.00     0.275 A 
HETATM   10  N   UNL     1      36.851 -10.858   0.388  1.00  0.00    -0.055 NA
HETATM   11  H   UNL     1      37.196 -12.976  -1.128  1.00  0.00     0.178 HD
ENDROOT
BRANCH   1  12
HETATM   12  C   UNL     1      40.686 -13.402   0.869  1.00  0.00     0.230 C 
HETATM   13  N   UNL     1      41.889 -14.058   0.978  1.00  0.00    -0.326 N 
HETATM   14  H   UNL     1      42.522 -13.902   0.194  1.00  0.00     0.169 HD
HETATM   15  O   UNL     1      39.730 -13.476   1.635  1.00  0.00    -0.273 OA
BRANCH  13  16
HETATM   16  C   UNL     1      42.434 -14.927   1.954  1.00  0.00     0.040 A 
HETATM   17  C   UNL     1      42.739 -14.661   3.300  1.00  0.00    -0.035 A 
HETATM   18  C   UNL     1      43.268 -15.706   4.099  1.00  0.00     0.015 A 
HETATM   19  C   UNL     1      42.567 -13.340   3.989  1.00  0.00     0.050 C 
HETATM   20  C   UNL     1      43.519 -16.985   3.591  1.00  0.00    -0.061 A 
HETATM   21  C   UNL     1      44.088 -18.069   4.456  1.00  0.00     0.048 C 
HETATM   22  C   UNL     1      43.237 -17.233   2.254  1.00  0.00     0.009 A 
HETATM   23  C   UNL     1      42.705 -16.220   1.454  1.00  0.00     0.030 A 
ENDBRANCH  13  16
ENDBRANCH   1  12
BRANCH   2  24
HETATM   24  C   UNL     1      41.021 -10.082  -1.024  1.00  0.00    -0.032 A 
HETATM   25  C   UNL     1      40.596  -9.956  -2.354  1.00  0.00     0.012 A 
HETATM   26  C   UNL     1      41.184  -9.021  -3.215  1.00  0.00     0.037 A 
HETATM   27  C   UNL     1      42.206  -8.183  -2.774  1.00  0.00     0.068 A 
HETATM   28  C   UNL     1      42.661  -8.308  -1.467  1.00  0.00     0.037 A 
HETATM   29  C   UNL     1      42.080  -9.250  -0.607  1.00  0.00     0.012 A 
BRANCH  27  30
HETATM   30  O   UNL     1      42.677  -7.307  -3.712  1.00  0.00    -0.356 OA
HETATM   31  C   UNL     1      41.800  -6.997  -4.789  1.00  0.00     0.210 C 
ENDBRANCH  27  30
ENDBRANCH   2  24
TORSDOF 4
ENDMDL
MODEL 4
REMARK VINA RESULT:      -8.6      2.809      6.150
REMARK  4 active torsions:
REMARK  status: ('A' for Active; 'I' for Inactive)
REMARK    1  A    between atoms: C_6  and  N_7 
REMARK       I    between atoms: N_7  and  C_8 
REMARK    2  A    between atoms: C_8  and  C_9 
REMARK    3  A    between atoms: C_10  and  C_11 
REMARK    4  A    between atoms: C_14  and  O_15 
ROOT
HETATM    1  C   UNL     1      42.286 -14.133   2.732  1.00  0.00     0.131 C 
HETATM    2  C   UNL     1      41.589 -15.342   3.411  1.00  0.00     0.177 C 
HETATM    3  N   UNL     1      41.067 -14.944   4.723  1.00  0.00    -0.088 N 
HETATM    4  C   UNL     1      41.426 -13.810   5.407  1.00  0.00     0.721 A 
HETATM    5  N   UNL     1      42.262 -12.894   4.870  1.00  0.00    -0.218 N 
HETATM    6  C   UNL     1      43.108 -13.311   3.752  1.00  0.00     0.111 C 
HETATM    7  C   UNL     1      43.793 -12.094   3.134  1.00  0.00     0.034 C 
HETATM    8  N   UNL     1      40.072 -15.595   5.363  1.00  0.00    -0.149 NA
HETATM    9  C   UNL     1      39.946 -14.847   6.462  1.00  0.00     0.275 A 
HETATM   10  N   UNL     1      40.755 -13.744   6.526  1.00  0.00    -0.055 NA
HETATM   11  H   UNL     1      42.698 -12.269   5.550  1.00  0.00     0.178 HD
ENDROOT
BRANCH   1  12
HETATM   12  C   UNL     1      41.230 -13.348   1.940  1.00  0.00     0.230 C 
HETATM   13  N   UNL     1      41.429 -13.296   0.582  1.00  0.00    -0.326 N 
HETATM   14  H   UNL     1      42.253 -13.804   0.260  1.00  0.00     0.169 HD
HETATM   15  O   UNL     1      40.359 -12.771   2.585  1.00  0.00    -0.273 OA
BRANCH  13  16
HETATM   16  C   UNL     1      40.729 -12.668  -0.477  1.00  0.00     0.040 A 
HETATM   17  C   UNL     1      39.785 -13.220  -1.360  1.00  0.00    -0.035 A 
HETATM   18  C   UNL     1      39.197 -12.382  -2.341  1.00  0.00     0.015 A 
HETATM   19  C   UNL     1      39.335 -14.651  -1.375  1.00  0.00     0.050 C 
HETATM   20  C   UNL     1      39.539 -11.032  -2.477  1.00  0.00    -0.061 A 
HETATM   21  C   UNL     1      38.909 -10.171  -3.530  1.00  0.00     0.048 C 
HETATM   22  C   UNL     1      40.491 -10.501  -1.616  1.00  0.00     0.009 A 
HETATM   23  C   UNL     1      41.072 -11.308  -0.636  1.00  0.00     0.030 A 
ENDBRANCH  13  16
ENDBRANCH   1  12
BRANCH   2  24
HETATM   24  C   UNL     1      42.434 -16.619   3.543  1.00  0.00    -0.032 A 
HETATM   25  C   UNL     1      43.183 -16.954   4.680  1.00  0.00     0.012 A 
HETATM   26  C   UNL     1      43.923 -18.142   4.733  1.00  0.00     0.037 A 
HETATM   27  C   UNL     1      43.933 -19.030   3.660  1.00  0.00     0.068 A 
HETATM   28  C   UNL     1      43.219 -18.706   2.513  1.00  0.00     0.037 A 
HETATM   29  C   UNL     1      42.485 -17.513   2.455  1.00  0.00     0.012 A 
BRANCH  27  30
HETATM   30  O   UNL     1      44.683 -20.157   3.853  1.00  0.00    -0.356 OA
HETATM   31  C   UNL     1      44.519 -20.824   5.099  1.00  0.00     0.210 C 
ENDBRANCH  27  30
ENDBRANCH   2  24
TORSDOF 4
ENDMDL
MODEL 5
REMARK VINA RESULT:      -8.4      2.420      8.074
REMARK  4 active torsions:
REMARK  status: ('A' for Active; 'I' for Inactive)
REMARK    1  A    between atoms: C_6  and  N_7 
REMARK       I    between atoms: N_7  and  C_8 
REMARK    2  A    between atoms: C_8  and  C_9 
REMARK    3  A    between atoms: C_10  and  C_11 
REMARK    4  A    between atoms: C_14  and  O_15 
ROOT
HETATM    1  C   UNL     1      42.364 -12.474   4.565  1.00  0.00     0.131 C 
HETATM    2  C   UNL     1      41.803 -12.094   5.962  1.00  0.00     0.177 C 
HETATM    3  N   UNL     1      40.402 -11.677   5.839  1.00  0.00    -0.088 N 
HETATM    4  C   UNL     1      39.778 -11.334   4.666  1.00  0.00     0.721 A 
HETATM    5  N   UNL     1      40.407 -11.434   3.474  1.00  0.00    -0.218 N 
HETATM    6  C   UNL     1      41.868 -11.498   3.473  1.00  0.00     0.111 C 
HETATM    7  C   UNL     1      42.374 -11.848   2.076  1.00  0.00     0.034 C 
HETATM    8  N   UNL     1      39.522 -11.697   6.862  1.00  0.00    -0.149 NA
HETATM    9  C   UNL     1      38.413 -11.272   6.251  1.00  0.00     0.275 A 
HETATM   10  N   UNL     1      38.528 -11.042   4.907  1.00  0.00    -0.055 NA
HETATM   11  H   UNL     1      39.985 -10.881   2.726  1.00  0.00     0.178 HD
ENDROOT
BRANCH   1  12
HETATM   12  C   UNL     1      42.069 -13.960   4.315  1.00  0.00     0.230 C 
HETATM   13  N   UNL     1      43.173 -14.765   4.165  1.00  0.00    -0.326 N 
HETATM   14  H   UNL     1      44.063 -14.274   4.255  1.00  0.00     0.169 HD
HETATM   15  O   UNL     1      40.892 -14.285   4.185  1.00  0.00    -0.273 OA
BRANCH  13  16
HETATM   16  C   UNL     1      43.337 -16.145   3.895  1.00  0.00     0.040 A 
HETATM   17  C   UNL     1      43.773 -17.166   4.756  1.00  0.00    -0.035 A 
HETATM   18  C   UNL     1      43.842 -18.493   4.262  1.00  0.00     0.015 A 
HETATM   19  C   UNL     1      44.196 -16.983   6.184  1.00  0.00     0.050 C 
HETATM   20  C   UNL     1      43.513 -18.819   2.941  1.00  0.00    -0.061 A 
HETATM   21  C   UNL     1      43.604 -20.230   2.442  1.00  0.00     0.048 C 
HETATM   22  C   UNL     1      43.106 -17.801   2.090  1.00  0.00     0.009 A 
HETATM   23  C   UNL     1      43.021 -16.490   2.563  1.00  0.00     0.030 A 
ENDBRANCH  13  16
ENDBRANCH   1  12
BRANCH   2  24
HETATM   24  C   UNL     1      42.603 -11.039   6.744  1.00  0.00    -0.032 A 
HETATM   25  C   UNL     1      42.178  -9.719   6.945  1.00  0.00     0.012 A 
HETATM   26  C   UNL     1      42.956  -8.814   7.678  1.00  0.00     0.037 A 
HETATM   27  C   UNL     1      44.174  -9.200   8.234  1.00  0.00     0.068 A 
HETATM   28  C   UNL     1      44.627 -10.497   8.025  1.00  0.00     0.037 A 
HETATM   29  C   UNL     1      43.853 -11.401   7.284  1.00  0.00     0.012 A 
BRANCH  27  30
HETATM   30  O   UNL     1      44.820  -8.222   8.938  1.00  0.00    -0.356 OA
HETATM   31  C   UNL     1      44.074  -7.045   9.223  1.00  0.00     0.210 C 
ENDBRANCH  27  30
ENDBRANCH   2  24
TORSDOF 4
ENDMDL
MODEL 6
REMARK VINA RESULT:      -8.2      2.374      8.451
REMARK  4 active torsions:
REMARK  status: ('A' for Active; 'I' for Inactive)
REMARK    1  A    between atoms: C_6  and  N_7 
REMARK       I    between atoms: N_7  and  C_8 
REMARK    2  A    between atoms: C_8  and  C_9 
REMARK    3  A    between atoms: C_10  and  C_11 
REMARK    4  A    between atoms: C_14  and  O_15 
ROOT
HETATM    1  C   UNL     1      41.525 -12.855   4.557  1.00  0.00     0.131 C 
HETATM    2  C   UNL     1      42.470 -11.627   4.469  1.00  0.00     0.177 C 
HETATM    3  N   UNL     1      43.514 -11.726   5.495  1.00  0.00    -0.088 N 
HETATM    4  C   UNL     1      43.478 -12.562   6.582  1.00  0.00     0.721 A 
HETATM    5  N   UNL     1      42.476 -13.453   6.758  1.00  0.00    -0.218 N 
HETATM    6  C   UNL     1      41.228 -13.233   6.027  1.00  0.00     0.111 C 
HETATM    7  C   UNL     1      40.322 -14.454   6.164  1.00  0.00     0.034 C 
HETATM    8  N   UNL     1      44.699 -11.084   5.423  1.00  0.00    -0.149 NA
HETATM    9  C   UNL     1      45.288 -11.514   6.542  1.00  0.00     0.275 A 
HETATM   10  N   UNL     1      44.575 -12.421   7.278  1.00  0.00    -0.055 NA
HETATM   11  H   UNL     1      42.377 -13.794   7.716  1.00  0.00     0.178 HD
ENDROOT
BRANCH   1  12
HETATM   12  C   UNL     1      42.108 -13.977   3.685  1.00  0.00     0.230 C 
HETATM   13  N   UNL     1      42.234 -15.199   4.301  1.00  0.00    -0.326 N 
HETATM   14  H   UNL     1      41.907 -15.215   5.267  1.00  0.00     0.169 HD
HETATM   15  O   UNL     1      42.487 -13.672   2.558  1.00  0.00    -0.273 OA
BRANCH  13  16
HETATM   16  C   UNL     1      42.741 -16.450   3.875  1.00  0.00     0.040 A 
HETATM   17  C   UNL     1      43.753 -17.235   4.455  1.00  0.00    -0.035 A 
HETATM   18  C   UNL     1      44.082 -18.476   3.853  1.00  0.00     0.015 A 
HETATM   19  C   UNL     1      44.548 -16.874   5.674  1.00  0.00     0.050 C 
HETATM   20  C   UNL     1      43.453 -18.937   2.691  1.00  0.00    -0.061 A 
HETATM   21  C   UNL     1      43.829 -20.249   2.070  1.00  0.00     0.048 C 
HETATM   22  C   UNL     1      42.472 -18.144   2.111  1.00  0.00     0.009 A 
HETATM   23  C   UNL     1      42.126 -16.924   2.696  1.00  0.00     0.030 A 
ENDBRANCH  13  16
ENDBRANCH   1  12
BRANCH   2  24
HETATM   24  C   UNL     1      41.791 -10.249   4.536  1.00  0.00    -0.032 A 
HETATM   25  C   UNL     1      41.265  -9.576   3.424  1.00  0.00     0.012 A 
HETATM   26  C   UNL     1      40.651  -8.325   3.562  1.00  0.00     0.037 A 
HETATM   27  C   UNL     1      40.537  -7.714   4.809  1.00  0.00     0.068 A 
HETATM   28  C   UNL     1      41.075  -8.352   5.921  1.00  0.00     0.037 A 
HETATM   29  C   UNL     1      41.698  -9.599   5.783  1.00  0.00     0.012 A 
BRANCH  27  30
HETATM   30  O   UNL     1      39.901  -6.504   4.802  1.00  0.00    -0.356 OA
HETATM   31  C   UNL     1      39.838  -5.812   6.043  1.00  0.00     0.210 C 
ENDBRANCH  27  30
ENDBRANCH   2  24
TORSDOF 4
ENDMDL
MODEL 7
REMARK VINA RESULT:      -8.1      2.978      7.846
REMARK  4 active torsions:
REMARK  status: ('A' for Active; 'I' for Inactive)
REMARK    1  A    between atoms: C_6  and  N_7 
REMARK       I    between atoms: N_7  and  C_8 
REMARK    2  A    between atoms: C_8  and  C_9 
REMARK    3  A    between atoms: C_10  and  C_11 
REMARK    4  A    between atoms: C_14  and  O_15 
ROOT
HETATM    1  C   UNL     1      42.153 -12.544   4.522  1.00  0.00     0.131 C 
HETATM    2  C   UNL     1      43.321 -13.160   5.338  1.00  0.00     0.177 C 
HETATM    3  N   UNL     1      42.846 -14.331   6.083  1.00  0.00    -0.088 N 
HETATM    4  C   UNL     1      41.529 -14.640   6.316  1.00  0.00     0.721 A 
HETATM    5  N   UNL     1      40.525 -13.905   5.789  1.00  0.00    -0.218 N 
HETATM    6  C   UNL     1      40.835 -12.550   5.331  1.00  0.00     0.111 C 
HETATM    7  C   UNL     1      39.651 -11.977   4.558  1.00  0.00     0.034 C 
HETATM    8  N   UNL     1      43.655 -15.315   6.529  1.00  0.00    -0.149 NA
HETATM    9  C   UNL     1      42.767 -16.138   7.094  1.00  0.00     0.275 A 
HETATM   10  N   UNL     1      41.455 -15.761   6.983  1.00  0.00    -0.055 NA
HETATM   11  H   UNL     1      39.625 -14.021   6.257  1.00  0.00     0.178 HD
ENDROOT
BRANCH   1  12
HETATM   12  C   UNL     1      42.099 -13.242   3.155  1.00  0.00     0.230 C 
HETATM   13  N   UNL     1      41.045 -12.884   2.350  1.00  0.00    -0.326 N 
HETATM   14  H   UNL     1      40.430 -12.179   2.757  1.00  0.00     0.169 HD
HETATM   15  O   UNL     1      42.939 -14.110   2.934  1.00  0.00    -0.273 OA
BRANCH  13  16
HETATM   16  C   UNL     1      40.621 -13.301   1.065  1.00  0.00     0.040 A 
HETATM   17  C   UNL     1      40.117 -14.551   0.666  1.00  0.00    -0.035 A 
HETATM   18  C   UNL     1      39.737 -14.732  -0.688  1.00  0.00     0.015 A 
HETATM   19  C   UNL     1      39.948 -15.749   1.553  1.00  0.00     0.050 C 
HETATM   20  C   UNL     1      39.867 -13.720  -1.645  1.00  0.00    -0.061 A 
HETATM   21  C   UNL     1      39.466 -13.943  -3.073  1.00  0.00     0.048 C 
HETATM   22  C   UNL     1      40.388 -12.496  -1.248  1.00  0.00     0.009 A 
HETATM   23  C   UNL     1      40.757 -12.295   0.084  1.00  0.00     0.030 A 
ENDBRANCH  13  16
ENDBRANCH   1  12
BRANCH   2  24
HETATM   24  C   UNL     1      44.063 -12.199   6.281  1.00  0.00    -0.032 A 
HETATM   25  C   UNL     1      45.263 -11.549   5.958  1.00  0.00     0.012 A 
HETATM   26  C   UNL     1      45.879 -10.677   6.864  1.00  0.00     0.037 A 
HETATM   27  C   UNL     1      45.315 -10.425   8.114  1.00  0.00     0.068 A 
HETATM   28  C   UNL     1      44.140 -11.079   8.465  1.00  0.00     0.037 A 
HETATM   29  C   UNL     1      43.528 -11.958   7.562  1.00  0.00     0.012 A 
BRANCH  27  30
HETATM   30  O   UNL     1      46.012  -9.542   8.891  1.00  0.00    -0.356 OA
HETATM   31  C   UNL     1      45.448  -9.231  10.160  1.00  0.00     0.210 C 
ENDBRANCH  27  30
ENDBRANCH   2  24
TORSDOF 4
ENDMDL
MODEL 8
REMARK VINA RESULT:      -8.0      4.408      8.120
REMARK  4 active torsions:
REMARK  status: ('A' for Active; 'I' for Inactive)
REMARK    1  A    between atoms: C_6  and  N_7 
REMARK       I    between atoms: N_7  and  C_8 
REMARK    2  A    between atoms: C_8  and  C_9 
REMARK    3  A    between atoms: C_10  and  C_11 
REMARK    4  A    between atoms: C_14  and  O_15 
ROOT
HETATM    1  C   UNL     1      39.626 -12.163   1.362  1.00  0.00     0.131 C 
HETATM    2  C   UNL     1      39.949 -12.055  -0.153  1.00  0.00     0.177 C 
HETATM    3  N   UNL     1      40.726 -10.839  -0.412  1.00  0.00    -0.088 N 
HETATM    4  C   UNL     1      40.856  -9.783   0.455  1.00  0.00     0.721 A 
HETATM    5  N   UNL     1      40.321  -9.816   1.696  1.00  0.00    -0.218 N 
HETATM    6  C   UNL     1      39.257 -10.784   1.958  1.00  0.00     0.111 C 
HETATM    7  C   UNL     1      38.956 -10.836   3.454  1.00  0.00     0.034 C 
HETATM    8  N   UNL     1      41.511 -10.668  -1.497  1.00  0.00    -0.149 NA
HETATM    9  C   UNL     1      42.012  -9.452  -1.257  1.00  0.00     0.275 A 
HETATM   10  N   UNL     1      41.637  -8.879  -0.073  1.00  0.00    -0.055 NA
HETATM   11  H   UNL     1      40.206  -8.898   2.131  1.00  0.00     0.178 HD
ENDROOT
BRANCH   1  12
HETATM   12  C   UNL     1      40.783 -12.900   2.051  1.00  0.00     0.230 C 
HETATM   13  N   UNL     1      40.688 -14.271   2.060  1.00  0.00    -0.326 N 
HETATM   14  H   UNL     1      39.860 -14.635   1.589  1.00  0.00     0.169 HD
HETATM   15  O   UNL     1      41.638 -12.213   2.602  1.00  0.00    -0.273 OA
BRANCH  13  16
HETATM   16  C   UNL     1      41.501 -15.295   2.604  1.00  0.00     0.040 A 
HETATM   17  C   UNL     1      41.564 -15.761   3.928  1.00  0.00    -0.035 A 
HETATM   18  C   UNL     1      42.454 -16.821   4.236  1.00  0.00     0.015 A 
HETATM   19  C   UNL     1      40.770 -15.224   5.082  1.00  0.00     0.050 C 
HETATM   20  C   UNL     1      43.287 -17.405   3.275  1.00  0.00    -0.061 A 
HETATM   21  C   UNL     1      44.225 -18.518   3.631  1.00  0.00     0.048 C 
HETATM   22  C   UNL     1      43.236 -16.922   1.974  1.00  0.00     0.009 A 
HETATM   23  C   UNL     1      42.357 -15.886   1.650  1.00  0.00     0.030 A 
ENDBRANCH  13  16
ENDBRANCH   1  12
BRANCH   2  24
HETATM   24  C   UNL     1      38.743 -12.126  -1.105  1.00  0.00    -0.032 A 
HETATM   25  C   UNL     1      37.896 -11.044  -1.383  1.00  0.00     0.012 A 
HETATM   26  C   UNL     1      36.821 -11.179  -2.270  1.00  0.00     0.037 A 
HETATM   27  C   UNL     1      36.563 -12.391  -2.907  1.00  0.00     0.068 A 
HETATM   28  C   UNL     1      37.375 -13.483  -2.626  1.00  0.00     0.037 A 
HETATM   29  C   UNL     1      38.446 -13.352  -1.732  1.00  0.00     0.012 A 
BRANCH  27  30
HETATM   30  O   UNL     1      35.494 -12.377  -3.759  1.00  0.00    -0.356 OA
HETATM   31  C   UNL     1      34.761 -11.160  -3.839  1.00  0.00     0.210 C 
ENDBRANCH  27  30
ENDBRANCH   2  24
TORSDOF 4
ENDMDL
MODEL 9
REMARK VINA RESULT:      -8.0      3.070      7.812
REMARK  4 active torsions:
REMARK  status: ('A' for Active; 'I' for Inactive)
REMARK    1  A    between atoms: C_6  and  N_7 
REMARK       I    between atoms: N_7  and  C_8 
REMARK    2  A    between atoms: C_8  and  C_9 
REMARK    3  A    between atoms: C_10  and  C_11 
REMARK    4  A    between atoms: C_14  and  O_15 
ROOT
HETATM    1  C   UNL     1      41.740 -12.739   4.895  1.00  0.00     0.131 C 
HETATM    2  C   UNL     1      43.096 -13.160   5.522  1.00  0.00     0.177 C 
HETATM    3  N   UNL     1      42.926 -14.395   6.295  1.00  0.00    -0.088 N 
HETATM    4  C   UNL     1      41.723 -14.915   6.702  1.00  0.00     0.721 A 
HETATM    5  N   UNL     1      40.549 -14.350   6.342  1.00  0.00    -0.218 N 
HETATM    6  C   UNL     1      40.569 -12.961   5.882  1.00  0.00     0.111 C 
HETATM    7  C   UNL     1      39.210 -12.585   5.299  1.00  0.00     0.034 C 
HETATM    8  N   UNL     1      43.937 -15.236   6.595  1.00  0.00    -0.149 NA
HETATM    9  C   UNL     1      43.283 -16.194   7.258  1.00  0.00     0.275 A 
HETATM   10  N   UNL     1      41.926 -16.035   7.343  1.00  0.00    -0.055 NA
HETATM   11  H   UNL     1      39.755 -14.613   6.929  1.00  0.00     0.178 HD
ENDROOT
BRANCH   1  12
HETATM   12  C   UNL     1      41.602 -13.432   3.531  1.00  0.00     0.230 C 
HETATM   13  N   UNL     1      41.066 -12.660   2.528  1.00  0.00    -0.326 N 
HETATM   14  H   UNL     1      40.837 -11.707   2.811  1.00  0.00     0.169 HD
HETATM   15  O   UNL     1      41.898 -14.622   3.473  1.00  0.00    -0.273 OA
BRANCH  13  16
HETATM   16  C   UNL     1      40.748 -12.917   1.173  1.00  0.00     0.040 A 
HETATM   17  C   UNL     1      40.864 -12.063   0.062  1.00  0.00    -0.035 A 
HETATM   18  C   UNL     1      40.496 -12.553  -1.216  1.00  0.00     0.015 A 
HETATM   19  C   UNL     1      41.341 -10.641   0.100  1.00  0.00     0.050 C 
HETATM   20  C   UNL     1      40.001 -13.847  -1.410  1.00  0.00    -0.061 A 
HETATM   21  C   UNL     1      39.610 -14.336  -2.772  1.00  0.00     0.048 C 
HETATM   22  C   UNL     1      39.866 -14.676  -0.304  1.00  0.00     0.009 A 
HETATM   23  C   UNL     1      40.234 -14.215   0.962  1.00  0.00     0.030 A 
ENDBRANCH  13  16
ENDBRANCH   1  12
BRANCH   2  24
HETATM   24  C   UNL     1      43.802 -12.094   6.376  1.00  0.00    -0.032 A 
HETATM   25  C   UNL     1      45.188 -12.037   6.575  1.00  0.00     0.012 A 
HETATM   26  C   UNL     1      45.764 -11.030   7.359  1.00  0.00     0.037 A 
HETATM   27  C   UNL     1      44.977 -10.050   7.961  1.00  0.00     0.068 A 
HETATM   28  C   UNL     1      43.598 -10.103   7.799  1.00  0.00     0.037 A 
HETATM   29  C   UNL     1      43.020 -11.116   7.021  1.00  0.00     0.012 A 
BRANCH  27  30
HETATM   30  O   UNL     1      45.670  -9.119   8.684  1.00  0.00    -0.356 OA
HETATM   31  C   UNL     1      45.600  -9.235  10.100  1.00  0.00     0.210 C 
ENDBRANCH  27  30
ENDBRANCH   2  24
TORSDOF 4
ENDMDL
MODEL 10
REMARK VINA RESULT:      -7.8      5.226      6.614
REMARK  4 active torsions:
REMARK  status: ('A' for Active; 'I' for Inactive)
REMARK    1  A    between atoms: C_6  and  N_7 
REMARK       I    between atoms: N_7  and  C_8 
REMARK    2  A    between atoms: C_8  and  C_9 
REMARK    3  A    between atoms: C_10  and  C_11 
REMARK    4  A    between atoms: C_14  and  O_15 
ROOT
HETATM    1  C   UNL     1      39.687 -11.627   0.343  1.00  0.00     0.131 C 
HETATM    2  C   UNL     1      40.391 -12.839  -0.324  1.00  0.00     0.177 C 
HETATM    3  N   UNL     1      39.548 -13.376  -1.398  1.00  0.00    -0.088 N 
HETATM    4  C   UNL     1      38.215 -13.101  -1.571  1.00  0.00     0.721 A 
HETATM    5  N   UNL     1      37.567 -12.216  -0.782  1.00  0.00    -0.218 N 
HETATM    6  C   UNL     1      38.169 -11.877   0.507  1.00  0.00     0.111 C 
HETATM    7  C   UNL     1      37.429 -10.700   1.136  1.00  0.00     0.034 C 
HETATM    8  N   UNL     1      40.021 -14.118  -2.421  1.00  0.00    -0.149 NA
HETATM    9  C   UNL     1      38.902 -14.325  -3.123  1.00  0.00     0.275 A 
HETATM   10  N   UNL     1      37.777 -13.717  -2.636  1.00  0.00    -0.055 NA
HETATM   11  H   UNL     1      36.549 -12.311  -0.786  1.00  0.00     0.178 HD
ENDROOT
BRANCH   1  12
HETATM   12  C   UNL     1      40.073 -10.358  -0.432  1.00  0.00     0.230 C 
HETATM   13  N   UNL     1      40.959  -9.524   0.205  1.00  0.00    -0.326 N 
HETATM   14  H   UNL     1      41.268  -9.861   1.117  1.00  0.00     0.169 HD
HETATM   15  O   UNL     1      39.501 -10.156  -1.500  1.00  0.00    -0.273 OA
BRANCH  13  16
HETATM   16  C   UNL     1      41.531  -8.274  -0.137  1.00  0.00     0.040 A 
HETATM   17  C   UNL     1      41.170  -6.989   0.303  1.00  0.00    -0.035 A 
HETATM   18  C   UNL     1      41.907  -5.874  -0.169  1.00  0.00     0.015 A 
HETATM   19  C   UNL     1      40.041  -6.672   1.239  1.00  0.00     0.050 C 
HETATM   20  C   UNL     1      42.967  -6.004  -1.074  1.00  0.00    -0.061 A 
HETATM   21  C   UNL     1      43.723  -4.807  -1.564  1.00  0.00     0.048 C 
HETATM   22  C   UNL     1      43.301  -7.275  -1.522  1.00  0.00     0.009 A 
HETATM   23  C   UNL     1      42.594  -8.386  -1.060  1.00  0.00     0.030 A 
ENDBRANCH  13  16
ENDBRANCH   1  12
BRANCH   2  24
HETATM   24  C   UNL     1      40.826 -13.969   0.623  1.00  0.00    -0.032 A 
HETATM   25  C   UNL     1      40.051 -15.103   0.904  1.00  0.00     0.012 A 
HETATM   26  C   UNL     1      40.517 -16.099   1.771  1.00  0.00     0.037 A 
HETATM   27  C   UNL     1      41.767 -15.996   2.377  1.00  0.00     0.068 A 
HETATM   28  C   UNL     1      42.541 -14.867   2.134  1.00  0.00     0.037 A 
HETATM   29  C   UNL     1      42.072 -13.866   1.273  1.00  0.00     0.012 A 
BRANCH  27  30
HETATM   30  O   UNL     1      42.103 -17.046   3.186  1.00  0.00    -0.356 OA
HETATM   31  C   UNL     1      43.087 -17.943   2.687  1.00  0.00     0.210 C 
ENDBRANCH  27  30
ENDBRANCH   2  24
TORSDOF 4
ENDMDL
