MODEL 1
REMARK VINA RESULT:      -8.5      0.000      0.000
REMARK  6 active torsions:
REMARK  status: ('A' for Active; 'I' for Inactive)
REMARK    1  A    between atoms: N_2  and  C_4 
REMARK    2  A    between atoms: C_4  and  C_5 
REMARK    3  A    between atoms: C_5  and  C_6 
REMARK    4  A    between atoms: C_6  and  N_7 
REMARK    5  A    between atoms: C_17  and  C_18 
REMARK    6  A    between atoms: C_26  and  O_27 
ROOT
HETATM    1  N   UNL     1      43.856 -12.265   6.181  1.00  0.00    -0.327 N 
HETATM    2  C   UNL     1      43.097 -13.355   5.990  1.00  0.00     0.113 C 
HETATM    3  N   UNL     1      42.748 -14.193   6.950  1.00  0.00    -0.385 N 
HETATM    4  H   UNL     1      42.197 -15.024   6.764  1.00  0.00     0.157 HD
HETATM    5  H   UNL     1      43.080 -14.143   7.901  1.00  0.00     0.157 HD
HETATM    6  C   UNL     1      42.616 -13.619   4.593  1.00  0.00     0.052 C 
HETATM    7  C   UNL     1      42.999 -12.775   3.617  1.00  0.00     0.182 C 
HETATM    8  O   UNL     1      42.593 -12.911   2.299  1.00  0.00    -0.291 OA
HETATM    9  C   UNL     1      41.630 -13.830   1.971  1.00  0.00     0.087 A 
HETATM   10  C   UNL     1      41.159 -14.772   2.887  1.00  0.00    -0.011 A 
HETATM   11  C   UNL     1      41.744 -14.820   4.279  1.00  0.00     0.095 C 
HETATM   12  C   UNL     1      41.140 -13.784   0.664  1.00  0.00     0.074 A 
HETATM   13  C   UNL     1      40.153 -14.683   0.280  1.00  0.00     0.068 A 
HETATM   14  C   UNL     1      39.655 -15.619   1.178  1.00  0.00     0.037 A 
HETATM   15  C   UNL     1      40.155 -15.666   2.480  1.00  0.00     0.014 A 
HETATM   16  N   UNL     1      43.872 -11.748   3.831  1.00  0.00    -0.219 NA
HETATM   17  C   UNL     1      44.296 -11.540   5.020  1.00  0.00     0.214 C 
ENDROOT
BRANCH   1  18
HETATM   18  C   UNL     1      44.401 -11.896   7.514  1.00  0.00     0.133 C 
BRANCH  18  19
HETATM   19  C   UNL     1      45.067 -10.511   7.621  1.00  0.00     0.048 C 
BRANCH  19  20
HETATM   20  C   UNL     1      44.689  -9.724   8.877  1.00  0.00     0.235 C 
BRANCH  20  21
HETATM   21  N   UNL     1      43.402 -10.250   9.491  1.00  0.00    -0.079 N 
HETATM   22  C   UNL     1      42.209  -9.331   9.336  1.00  0.00     0.269 C 
HETATM   23  H   UNL     1      43.142 -11.139   9.037  1.00  0.00     0.278 HD
HETATM   24  C   UNL     1      43.587 -10.601  10.957  1.00  0.00     0.269 C 
ENDBRANCH  20  21
ENDBRANCH  19  20
ENDBRANCH  18  19
ENDBRANCH   1  18
BRANCH  11  25
HETATM   25  C   UNL     1      42.490 -16.134   4.526  1.00  0.00    -0.045 A 
HETATM   26  C   UNL     1      42.322 -16.857   5.722  1.00  0.00     0.010 A 
HETATM   27  C   UNL     1      42.994 -18.063   5.927  1.00  0.00     0.024 A 
HETATM   28  C   UNL     1      43.857 -18.552   4.950  1.00  0.00     0.034 A 
HETATM   29 CL   UNL     1      44.671 -20.043   5.197  1.00  0.00    -0.084 Cl
HETATM   30  C   UNL     1      44.063 -17.836   3.773  1.00  0.00     0.024 A 
HETATM   31  C   UNL     1      43.390 -16.629   3.563  1.00  0.00     0.010 A 
ENDBRANCH  11  25
BRANCH  13  32
HETATM   32  O   UNL     1      39.636 -14.685  -0.980  1.00  0.00    -0.361 OA
HETATM   33  H   UNL     1      38.963 -13.990  -1.062  1.00  0.00     0.217 HD
ENDBRANCH  13  32
TORSDOF 6
ENDMDL
MODEL 2
REMARK VINA RESULT:      -8.5      2.184      3.067
REMARK  6 active torsions:
REMARK  status: ('A' for Active; 'I' for Inactive)
REMARK    1  A    between atoms: N_2  and  C_4 
REMARK    2  A    between atoms: C_4  and  C_5 
REMARK    3  A    between atoms: C_5  and  C_6 
REMARK    4  A    between atoms: C_6  and  N_7 
REMARK    5  A    between atoms: C_17  and  C_18 
REMARK    6  A    between atoms: C_26  and  O_27 
ROOT
HETATM    1  N   UNL     1      41.738 -11.410   4.372  1.00  0.00    -0.327 N 
HETATM    2  C   UNL     1      41.263 -12.571   3.897  1.00  0.00     0.113 C 
HETATM    3  N   UNL     1      40.921 -13.598   4.656  1.00  0.00    -0.385 N 
HETATM    4  H   UNL     1      40.592 -14.473   4.261  1.00  0.00     0.157 HD
HETATM    5  H   UNL     1      41.057 -13.642   5.655  1.00  0.00     0.157 HD
HETATM    6  C   UNL     1      41.107 -12.691   2.410  1.00  0.00     0.052 C 
HETATM    7  C   UNL     1      41.483 -11.651   1.643  1.00  0.00     0.182 C 
HETATM    8  O   UNL     1      41.361 -11.646   0.263  1.00  0.00    -0.291 OA
HETATM    9  C   UNL     1      40.679 -12.656  -0.366  1.00  0.00     0.087 A 
HETATM   10  C   UNL     1      40.249 -13.798   0.311  1.00  0.00    -0.011 A 
HETATM   11  C   UNL     1      40.568 -13.962   1.779  1.00  0.00     0.095 C 
HETATM   12  C   UNL     1      40.436 -12.491  -1.732  1.00  0.00     0.074 A 
HETATM   13  C   UNL     1      39.737 -13.476  -2.419  1.00  0.00     0.068 A 
HETATM   14  C   UNL     1      39.283 -14.614  -1.763  1.00  0.00     0.037 A 
HETATM   15  C   UNL     1      39.537 -14.778  -0.401  1.00  0.00     0.014 A 
HETATM   16  N   UNL     1      42.077 -10.535   2.157  1.00  0.00    -0.219 NA
HETATM   17  C   UNL     1      42.227 -10.445   3.424  1.00  0.00     0.214 C 
ENDROOT
BRANCH   1  18
HETATM   18  C   UNL     1      41.946 -11.166   5.824  1.00  0.00     0.133 C 
BRANCH  18  19
HETATM   19  C   UNL     1      43.361 -11.439   6.368  1.00  0.00     0.048 C 
BRANCH  19  20
HETATM   20  C   UNL     1      43.685 -10.712   7.675  1.00  0.00     0.235 C 
BRANCH  20  21
HETATM   21  N   UNL     1      45.185 -10.638   7.908  1.00  0.00    -0.079 N 
HETATM   22  C   UNL     1      45.699  -9.260   8.265  1.00  0.00     0.269 C 
HETATM   23  H   UNL     1      45.442 -11.254   8.693  1.00  0.00     0.278 HD
HETATM   24  C   UNL     1      45.960 -11.179   6.719  1.00  0.00     0.269 C 
ENDBRANCH  20  21
ENDBRANCH  19  20
ENDBRANCH  18  19
ENDBRANCH   1  18
BRANCH  11  25
HETATM   25  C   UNL     1      41.506 -15.148   2.017  1.00  0.00    -0.045 A 
HETATM   26  C   UNL     1      42.848 -15.114   1.596  1.00  0.00     0.010 A 
HETATM   27  C   UNL     1      43.698 -16.196   1.834  1.00  0.00     0.024 A 
HETATM   28  C   UNL     1      43.212 -17.331   2.478  1.00  0.00     0.034 A 
HETATM   29 CL   UNL     1      44.263 -18.655   2.785  1.00  0.00    -0.084 Cl
HETATM   30  C   UNL     1      41.879 -17.398   2.873  1.00  0.00     0.024 A 
HETATM   31  C   UNL     1      41.026 -16.316   2.638  1.00  0.00     0.010 A 
ENDBRANCH  11  25
BRANCH  13  32
HETATM   32  O   UNL     1      39.470 -13.369  -3.749  1.00  0.00    -0.361 OA
HETATM   33  H   UNL     1      40.089 -13.920  -4.256  1.00  0.00     0.217 HD
ENDBRANCH  13  32
TORSDOF 6
ENDMDL
MODEL 3
REMARK VINA RESULT:      -8.2      4.317      6.910
REMARK  6 active torsions:
REMARK  status: ('A' for Active; 'I' for Inactive)
REMARK    1  A    between atoms: N_2  and  C_4 
REMARK    2  A    between atoms: C_4  and  C_5 
REMARK    3  A    between atoms: C_5  and  C_6 
REMARK    4  A    between atoms: C_6  and  N_7 
REMARK    5  A    between atoms: C_17  and  C_18 
REMARK    6  A    between atoms: C_26  and  O_27 
ROOT
HETATM    1  N   UNL     1      42.264 -15.175   3.553  1.00  0.00    -0.327 N 
HETATM    2  C   UNL     1      42.226 -14.090   2.767  1.00  0.00     0.113 C 
HETATM    3  N   UNL     1      42.930 -12.992   2.984  1.00  0.00    -0.385 N 
HETATM    4  H   UNL     1      42.855 -12.178   2.383  1.00  0.00     0.157 HD
HETATM    5  H   UNL     1      43.500 -12.830   3.800  1.00  0.00     0.157 HD
HETATM    6  C   UNL     1      41.332 -14.146   1.563  1.00  0.00     0.052 C 
HETATM    7  C   UNL     1      40.599 -15.257   1.365  1.00  0.00     0.182 C 
HETATM    8  O   UNL     1      39.760 -15.424   0.275  1.00  0.00    -0.291 OA
HETATM    9  C   UNL     1      39.779 -14.512  -0.749  1.00  0.00     0.087 A 
HETATM   10  C   UNL     1      40.486 -13.312  -0.662  1.00  0.00    -0.011 A 
HETATM   11  C   UNL     1      41.230 -12.972   0.608  1.00  0.00     0.095 C 
HETATM   12  C   UNL     1      39.048 -14.840  -1.893  1.00  0.00     0.074 A 
HETATM   13  C   UNL     1      39.042 -13.960  -2.967  1.00  0.00     0.068 A 
HETATM   14  C   UNL     1      39.752 -12.766  -2.913  1.00  0.00     0.037 A 
HETATM   15  C   UNL     1      40.473 -12.440  -1.764  1.00  0.00     0.014 A 
HETATM   16  N   UNL     1      40.573 -16.291   2.256  1.00  0.00    -0.219 NA
HETATM   17  C   UNL     1      41.321 -16.230   3.291  1.00  0.00     0.214 C 
ENDROOT
BRANCH   1  18
HETATM   18  C   UNL     1      43.103 -15.245   4.779  1.00  0.00     0.133 C 
BRANCH  18  19
HETATM   19  C   UNL     1      43.119 -16.594   5.522  1.00  0.00     0.048 C 
BRANCH  19  20
HETATM   20  C   UNL     1      44.282 -17.512   5.141  1.00  0.00     0.235 C 
BRANCH  20  21
HETATM   21  N   UNL     1      43.788 -18.762   4.432  1.00  0.00    -0.079 N 
HETATM   22  C   UNL     1      44.314 -20.060   5.007  1.00  0.00     0.269 C 
HETATM   23  H   UNL     1      42.761 -18.812   4.498  1.00  0.00     0.278 HD
HETATM   24  C   UNL     1      44.081 -18.709   2.943  1.00  0.00     0.269 C 
ENDBRANCH  20  21
ENDBRANCH  19  20
ENDBRANCH  18  19
ENDBRANCH   1  18
BRANCH  11  25
HETATM   25  C   UNL     1      40.630 -11.741   1.293  1.00  0.00    -0.045 A 
HETATM   26  C   UNL     1      39.393 -11.807   1.961  1.00  0.00     0.010 A 
HETATM   27  C   UNL     1      38.864 -10.682   2.597  1.00  0.00     0.024 A 
HETATM   28  C   UNL     1      39.556  -9.474   2.557  1.00  0.00     0.034 A 
HETATM   29 CL   UNL     1      38.913  -8.095   3.353  1.00  0.00    -0.084 Cl
HETATM   30  C   UNL     1      40.766  -9.379   1.874  1.00  0.00     0.024 A 
HETATM   31  C   UNL     1      41.299 -10.504   1.238  1.00  0.00     0.010 A 
ENDBRANCH  11  25
BRANCH  13  32
HETATM   32  O   UNL     1      38.349 -14.226  -4.108  1.00  0.00    -0.361 OA
HETATM   33  H   UNL     1      38.937 -14.633  -4.766  1.00  0.00     0.217 HD
ENDBRANCH  13  32
TORSDOF 6
ENDMDL
MODEL 4
REMARK VINA RESULT:      -8.0      3.720      5.993
REMARK  6 active torsions:
REMARK  status: ('A' for Active; 'I' for Inactive)
REMARK    1  A    between atoms: N_2  and  C_4 
REMARK    2  A    between atoms: C_4  and  C_5 
REMARK    3  A    between atoms: C_5  and  C_6 
REMARK    4  A    between atoms: C_6  and  N_7 
REMARK    5  A    between atoms: C_17  and  C_18 
REMARK    6  A    between atoms: C_26  and  O_27 
ROOT
HETATM    1  N   UNL     1      42.316 -15.129   3.514  1.00  0.00    -0.327 N 
HETATM    2  C   UNL     1      42.266 -14.050   2.718  1.00  0.00     0.113 C 
HETATM    3  N   UNL     1      42.970 -12.949   2.917  1.00  0.00    -0.385 N 
HETATM    4  H   UNL     1      42.886 -12.140   2.310  1.00  0.00     0.157 HD
HETATM    5  H   UNL     1      43.549 -12.779   3.725  1.00  0.00     0.157 HD
HETATM    6  C   UNL     1      41.358 -14.119   1.526  1.00  0.00     0.052 C 
HETATM    7  C   UNL     1      40.626 -15.233   1.346  1.00  0.00     0.182 C 
HETATM    8  O   UNL     1      39.773 -15.411   0.267  1.00  0.00    -0.291 OA
HETATM    9  C   UNL     1      39.778 -14.508  -0.764  1.00  0.00     0.087 A 
HETATM   10  C   UNL     1      40.483 -13.306  -0.697  1.00  0.00    -0.011 A 
HETATM   11  C   UNL     1      41.242 -12.953   0.561  1.00  0.00     0.095 C 
HETATM   12  C   UNL     1      39.034 -14.848  -1.896  1.00  0.00     0.074 A 
HETATM   13  C   UNL     1      39.014 -13.977  -2.979  1.00  0.00     0.068 A 
HETATM   14  C   UNL     1      39.722 -12.782  -2.943  1.00  0.00     0.037 A 
HETATM   15  C   UNL     1      40.456 -12.444  -1.806  1.00  0.00     0.014 A 
HETATM   16  N   UNL     1      40.612 -16.259   2.246  1.00  0.00    -0.219 NA
HETATM   17  C   UNL     1      41.372 -16.187   3.272  1.00  0.00     0.214 C 
ENDROOT
BRANCH   1  18
HETATM   18  C   UNL     1      43.170 -15.186   4.729  1.00  0.00     0.133 C 
BRANCH  18  19
HETATM   19  C   UNL     1      42.499 -14.785   6.057  1.00  0.00     0.048 C 
BRANCH  19  20
HETATM   20  C   UNL     1      42.592 -13.293   6.385  1.00  0.00     0.235 C 
BRANCH  20  21
HETATM   21  N   UNL     1      41.217 -12.645   6.403  1.00  0.00    -0.079 N 
HETATM   22  C   UNL     1      40.092 -13.547   5.941  1.00  0.00     0.269 C 
HETATM   23  H   UNL     1      40.983 -12.362   7.366  1.00  0.00     0.278 HD
HETATM   24  C   UNL     1      41.199 -11.356   5.602  1.00  0.00     0.269 C 
ENDBRANCH  20  21
ENDBRANCH  19  20
ENDBRANCH  18  19
ENDBRANCH   1  18
BRANCH  11  25
HETATM   25  C   UNL     1      40.647 -11.718   1.243  1.00  0.00    -0.045 A 
HETATM   26  C   UNL     1      39.426 -11.784   1.940  1.00  0.00     0.010 A 
HETATM   27  C   UNL     1      38.903 -10.654   2.571  1.00  0.00     0.024 A 
HETATM   28  C   UNL     1      39.584  -9.442   2.499  1.00  0.00     0.034 A 
HETATM   29 CL   UNL     1      38.948  -8.056   3.291  1.00  0.00    -0.084 Cl
HETATM   30  C   UNL     1      40.777  -9.347   1.788  1.00  0.00     0.024 A 
HETATM   31  C   UNL     1      41.304 -10.476   1.155  1.00  0.00     0.010 A 
ENDBRANCH  11  25
BRANCH  13  32
HETATM   32  O   UNL     1      38.308 -14.255  -4.109  1.00  0.00    -0.361 OA
HETATM   33  H   UNL     1      37.574 -13.625  -4.204  1.00  0.00     0.217 HD
ENDBRANCH  13  32
TORSDOF 6
ENDMDL
MODEL 5
REMARK VINA RESULT:      -8.0     16.171     17.549
REMARK  6 active torsions:
REMARK  status: ('A' for Active; 'I' for Inactive)
REMARK    1  A    between atoms: N_2  and  C_4 
REMARK    2  A    between atoms: C_4  and  C_5 
REMARK    3  A    between atoms: C_5  and  C_6 
REMARK    4  A    between atoms: C_6  and  N_7 
REMARK    5  A    between atoms: C_17  and  C_18 
REMARK    6  A    between atoms: C_26  and  O_27 
ROOT
HETATM    1  N   UNL     1      48.004 -29.282   1.733  1.00  0.00    -0.327 N 
HETATM    2  C   UNL     1      46.773 -29.003   1.280  1.00  0.00     0.113 C 
HETATM    3  N   UNL     1      45.869 -28.319   1.961  1.00  0.00    -0.385 N 
HETATM    4  H   UNL     1      44.937 -28.151   1.598  1.00  0.00     0.157 HD
HETATM    5  H   UNL     1      45.985 -28.010   2.914  1.00  0.00     0.157 HD
HETATM    6  C   UNL     1      46.420 -29.496  -0.093  1.00  0.00     0.052 C 
HETATM    7  C   UNL     1      47.336 -30.214  -0.767  1.00  0.00     0.182 C 
HETATM    8  O   UNL     1      47.124 -30.698  -2.049  1.00  0.00    -0.291 OA
HETATM    9  C   UNL     1      46.013 -30.306  -2.752  1.00  0.00     0.087 A 
HETATM   10  C   UNL     1      44.982 -29.573  -2.164  1.00  0.00    -0.011 A 
HETATM   11  C   UNL     1      45.055 -29.222  -0.696  1.00  0.00     0.095 C 
HETATM   12  C   UNL     1      45.959 -30.682  -4.095  1.00  0.00     0.074 A 
HETATM   13  C   UNL     1      44.864 -30.302  -4.861  1.00  0.00     0.068 A 
HETATM   14  C   UNL     1      43.832 -29.556  -4.303  1.00  0.00     0.037 A 
HETATM   15  C   UNL     1      43.887 -29.191  -2.958  1.00  0.00     0.014 A 
HETATM   16  N   UNL     1      48.532 -30.581  -0.222  1.00  0.00    -0.219 NA
HETATM   17  C   UNL     1      48.821 -30.176   0.957  1.00  0.00     0.214 C 
ENDROOT
BRANCH   1  18
HETATM   18  C   UNL     1      48.476 -28.856   3.077  1.00  0.00     0.133 C 
BRANCH  18  19
HETATM   19  C   UNL     1      48.593 -29.961   4.143  1.00  0.00     0.048 C 
BRANCH  19  20
HETATM   20  C   UNL     1      47.264 -30.362   4.786  1.00  0.00     0.235 C 
BRANCH  20  21
HETATM   21  N   UNL     1      46.831 -31.749   4.339  1.00  0.00    -0.079 N 
HETATM   22  C   UNL     1      47.909 -32.548   3.638  1.00  0.00     0.269 C 
HETATM   23  H   UNL     1      46.550 -32.303   5.161  1.00  0.00     0.278 HD
HETATM   24  C   UNL     1      45.591 -31.690   3.466  1.00  0.00     0.269 C 
ENDBRANCH  20  21
ENDBRANCH  19  20
ENDBRANCH  18  19
ENDBRANCH   1  18
BRANCH  11  25
HETATM   25  C   UNL     1      43.941 -29.909   0.099  1.00  0.00    -0.045 A 
HETATM   26  C   UNL     1      43.851 -31.312   0.167  1.00  0.00     0.010 A 
HETATM   27  C   UNL     1      42.841 -31.927   0.909  1.00  0.00     0.024 A 
HETATM   28  C   UNL     1      41.898 -31.148   1.576  1.00  0.00     0.034 A 
HETATM   29 CL   UNL     1      40.666 -31.905   2.501  1.00  0.00    -0.084 Cl
HETATM   30  C   UNL     1      41.950 -29.759   1.494  1.00  0.00     0.024 A 
HETATM   31  C   UNL     1      42.962 -29.140   0.754  1.00  0.00     0.010 A 
ENDBRANCH  11  25
BRANCH  13  32
HETATM   32  O   UNL     1      44.756 -30.638  -6.175  1.00  0.00    -0.361 OA
HETATM   33  H   UNL     1      45.607 -30.501  -6.623  1.00  0.00     0.217 HD
ENDBRANCH  13  32
TORSDOF 6
ENDMDL
MODEL 6
REMARK VINA RESULT:      -7.9      3.365      5.707
REMARK  6 active torsions:
REMARK  status: ('A' for Active; 'I' for Inactive)
REMARK    1  A    between atoms: N_2  and  C_4 
REMARK    2  A    between atoms: C_4  and  C_5 
REMARK    3  A    between atoms: C_5  and  C_6 
REMARK    4  A    between atoms: C_6  and  N_7 
REMARK    5  A    between atoms: C_17  and  C_18 
REMARK    6  A    between atoms: C_26  and  O_27 
ROOT
HETATM    1  N   UNL     1      39.216 -12.812   2.332  1.00  0.00    -0.327 N 
HETATM    2  C   UNL     1      39.840 -13.295   3.416  1.00  0.00     0.113 C 
HETATM    3  N   UNL     1      39.628 -12.866   4.648  1.00  0.00    -0.385 N 
HETATM    4  H   UNL     1      40.140 -13.235   5.442  1.00  0.00     0.157 HD
HETATM    5  H   UNL     1      39.039 -12.082   4.887  1.00  0.00     0.157 HD
HETATM    6  C   UNL     1      40.832 -14.400   3.199  1.00  0.00     0.052 C 
HETATM    7  C   UNL     1      41.061 -14.813   1.939  1.00  0.00     0.182 C 
HETATM    8  O   UNL     1      41.938 -15.841   1.628  1.00  0.00    -0.291 OA
HETATM    9  C   UNL     1      42.483 -16.601   2.631  1.00  0.00     0.087 A 
HETATM   10  C   UNL     1      42.333 -16.272   3.979  1.00  0.00    -0.011 A 
HETATM   11  C   UNL     1      41.581 -15.020   4.364  1.00  0.00     0.095 C 
HETATM   12  C   UNL     1      43.205 -17.730   2.238  1.00  0.00     0.074 A 
HETATM   13  C   UNL     1      43.769 -18.545   3.211  1.00  0.00     0.068 A 
HETATM   14  C   UNL     1      43.620 -18.249   4.560  1.00  0.00     0.037 A 
HETATM   15  C   UNL     1      42.904 -17.115   4.947  1.00  0.00     0.014 A 
HETATM   16  N   UNL     1      40.497 -14.211   0.853  1.00  0.00    -0.219 NA
HETATM   17  C   UNL     1      39.668 -13.255   1.041  1.00  0.00     0.214 C 
ENDROOT
BRANCH   1  18
HETATM   18  C   UNL     1      38.217 -11.713   2.410  1.00  0.00     0.133 C 
BRANCH  18  19
HETATM   19  C   UNL     1      38.751 -10.331   2.831  1.00  0.00     0.048 C 
BRANCH  19  20
HETATM   20  C   UNL     1      39.640  -9.653   1.786  1.00  0.00     0.235 C 
BRANCH  20  21
HETATM   21  N   UNL     1      41.082  -9.570   2.259  1.00  0.00    -0.079 N 
HETATM   22  C   UNL     1      41.994 -10.633   1.685  1.00  0.00     0.269 C 
HETATM   23  H   UNL     1      41.484  -8.663   1.979  1.00  0.00     0.278 HD
HETATM   24  C   UNL     1      41.173  -9.586   3.774  1.00  0.00     0.269 C 
ENDBRANCH  20  21
ENDBRANCH  19  20
ENDBRANCH  18  19
ENDBRANCH   1  18
BRANCH  11  25
HETATM   25  C   UNL     1      42.503 -14.002   5.043  1.00  0.00    -0.045 A 
HETATM   26  C   UNL     1      42.708 -14.017   6.436  1.00  0.00     0.010 A 
HETATM   27  C   UNL     1      43.564 -13.095   7.041  1.00  0.00     0.024 A 
HETATM   28  C   UNL     1      44.210 -12.136   6.265  1.00  0.00     0.034 A 
HETATM   29 CL   UNL     1      45.276 -11.013   7.008  1.00  0.00    -0.084 Cl
HETATM   30  C   UNL     1      43.996 -12.084   4.890  1.00  0.00     0.024 A 
HETATM   31  C   UNL     1      43.141 -13.007   4.281  1.00  0.00     0.010 A 
ENDBRANCH  11  25
BRANCH  13  32
HETATM   32  O   UNL     1      44.483 -19.658   2.888  1.00  0.00    -0.361 OA
HETATM   33  H   UNL     1      44.647 -20.189   3.685  1.00  0.00     0.217 HD
ENDBRANCH  13  32
TORSDOF 6
ENDMDL
MODEL 7
REMARK VINA RESULT:      -7.8      3.722      6.735
REMARK  6 active torsions:
REMARK  status: ('A' for Active; 'I' for Inactive)
REMARK    1  A    between atoms: N_2  and  C_4 
REMARK    2  A    between atoms: C_4  and  C_5 
REMARK    3  A    between atoms: C_5  and  C_6 
REMARK    4  A    between atoms: C_6  and  N_7 
REMARK    5  A    between atoms: C_17  and  C_18 
REMARK    6  A    between atoms: C_26  and  O_27 
ROOT
HETATM    1  N   UNL     1      39.246 -12.562   2.238  1.00  0.00    -0.327 N 
HETATM    2  C   UNL     1      39.861 -13.032   3.333  1.00  0.00     0.113 C 
HETATM    3  N   UNL     1      39.666 -12.561   4.553  1.00  0.00    -0.385 N 
HETATM    4  H   UNL     1      40.171 -12.922   5.355  1.00  0.00     0.157 HD
HETATM    5  H   UNL     1      39.100 -11.755   4.771  1.00  0.00     0.157 HD
HETATM    6  C   UNL     1      40.821 -14.169   3.145  1.00  0.00     0.052 C 
HETATM    7  C   UNL     1      41.034 -14.624   1.897  1.00  0.00     0.182 C 
HETATM    8  O   UNL     1      41.881 -15.684   1.612  1.00  0.00    -0.291 OA
HETATM    9  C   UNL     1      42.408 -16.430   2.634  1.00  0.00     0.087 A 
HETATM   10  C   UNL     1      42.273 -16.059   3.973  1.00  0.00    -0.011 A 
HETATM   11  C   UNL     1      41.558 -14.775   4.325  1.00  0.00     0.095 C 
HETATM   12  C   UNL     1      43.098 -17.589   2.271  1.00  0.00     0.074 A 
HETATM   13  C   UNL     1      43.643 -18.392   3.266  1.00  0.00     0.068 A 
HETATM   14  C   UNL     1      43.507 -18.053   4.607  1.00  0.00     0.037 A 
HETATM   15  C   UNL     1      42.825 -16.889   4.963  1.00  0.00     0.014 A 
HETATM   16  N   UNL     1      40.482 -14.038   0.795  1.00  0.00    -0.219 NA
HETATM   17  C   UNL     1      39.680 -13.054   0.958  1.00  0.00     0.214 C 
ENDROOT
BRANCH   1  18
HETATM   18  C   UNL     1      38.278 -11.434   2.287  1.00  0.00     0.133 C 
BRANCH  18  19
HETATM   19  C   UNL     1      37.284 -11.333   1.115  1.00  0.00     0.048 C 
BRANCH  19  20
HETATM   20  C   UNL     1      37.327 -10.001   0.364  1.00  0.00     0.235 C 
BRANCH  20  21
HETATM   21  N   UNL     1      37.901 -10.173  -1.033  1.00  0.00    -0.079 N 
HETATM   22  C   UNL     1      37.575 -11.499  -1.687  1.00  0.00     0.269 C 
HETATM   23  H   UNL     1      37.521  -9.443  -1.654  1.00  0.00     0.278 HD
HETATM   24  C   UNL     1      39.404  -9.954  -1.048  1.00  0.00     0.269 C 
ENDBRANCH  20  21
ENDBRANCH  19  20
ENDBRANCH  18  19
ENDBRANCH   1  18
BRANCH  11  25
HETATM   25  C   UNL     1      42.510 -13.765   4.971  1.00  0.00    -0.045 A 
HETATM   26  C   UNL     1      42.690 -13.720   6.366  1.00  0.00     0.010 A 
HETATM   27  C   UNL     1      43.574 -12.806   6.942  1.00  0.00     0.024 A 
HETATM   28  C   UNL     1      44.273 -11.914   6.134  1.00  0.00     0.034 A 
HETATM   29 CL   UNL     1      45.373 -10.800   6.842  1.00  0.00    -0.084 Cl
HETATM   30  C   UNL     1      44.085 -11.920   4.754  1.00  0.00     0.024 A 
HETATM   31  C   UNL     1      43.202 -12.835   4.174  1.00  0.00     0.010 A 
ENDBRANCH  11  25
BRANCH  13  32
HETATM   32  O   UNL     1      44.324 -19.533   2.973  1.00  0.00    -0.361 OA
HETATM   33  H   UNL     1      44.866 -19.400   2.178  1.00  0.00     0.217 HD
ENDBRANCH  13  32
TORSDOF 6
ENDMDL
MODEL 8
REMARK VINA RESULT:      -7.8      2.817      3.588
REMARK  6 active torsions:
REMARK  status: ('A' for Active; 'I' for Inactive)
REMARK    1  A    between atoms: N_2  and  C_4 
REMARK    2  A    between atoms: C_4  and  C_5 
REMARK    3  A    between atoms: C_5  and  C_6 
REMARK    4  A    between atoms: C_6  and  N_7 
REMARK    5  A    between atoms: C_17  and  C_18 
REMARK    6  A    between atoms: C_26  and  O_27 
ROOT
HETATM    1  N   UNL     1      41.757 -11.403   4.388  1.00  0.00    -0.327 N 
HETATM    2  C   UNL     1      41.279 -12.566   3.921  1.00  0.00     0.113 C 
HETATM    3  N   UNL     1      40.933 -13.587   4.686  1.00  0.00    -0.385 N 
HETATM    4  H   UNL     1      40.601 -14.463   4.296  1.00  0.00     0.157 HD
HETATM    5  H   UNL     1      41.068 -13.624   5.685  1.00  0.00     0.157 HD
HETATM    6  C   UNL     1      41.123 -12.695   2.434  1.00  0.00     0.052 C 
HETATM    7  C   UNL     1      41.503 -11.661   1.661  1.00  0.00     0.182 C 
HETATM    8  O   UNL     1      41.381 -11.665   0.280  1.00  0.00    -0.291 OA
HETATM    9  C   UNL     1      40.696 -12.676  -0.343  1.00  0.00     0.087 A 
HETATM   10  C   UNL     1      40.262 -13.812   0.342  1.00  0.00    -0.011 A 
HETATM   11  C   UNL     1      40.580 -13.967   1.811  1.00  0.00     0.095 C 
HETATM   12  C   UNL     1      40.454 -12.518  -1.709  1.00  0.00     0.074 A 
HETATM   13  C   UNL     1      39.753 -13.506  -2.390  1.00  0.00     0.068 A 
HETATM   14  C   UNL     1      39.294 -14.638  -1.727  1.00  0.00     0.037 A 
HETATM   15  C   UNL     1      39.547 -14.794  -0.364  1.00  0.00     0.014 A 
HETATM   16  N   UNL     1      42.100 -10.543   2.167  1.00  0.00    -0.219 NA
HETATM   17  C   UNL     1      42.250 -10.446   3.434  1.00  0.00     0.214 C 
ENDROOT
BRANCH   1  18
HETATM   18  C   UNL     1      41.965 -11.151   5.838  1.00  0.00     0.133 C 
BRANCH  18  19
HETATM   19  C   UNL     1      41.134 -10.014   6.461  1.00  0.00     0.048 C 
BRANCH  19  20
HETATM   20  C   UNL     1      39.653 -10.031   6.077  1.00  0.00     0.235 C 
BRANCH  20  21
HETATM   21  N   UNL     1      39.126  -8.625   5.847  1.00  0.00    -0.079 N 
HETATM   22  C   UNL     1      37.904  -8.549   4.956  1.00  0.00     0.269 C 
HETATM   23  H   UNL     1      38.851  -8.208   6.749  1.00  0.00     0.278 HD
HETATM   24  C   UNL     1      40.207  -7.706   5.307  1.00  0.00     0.269 C 
ENDBRANCH  20  21
ENDBRANCH  19  20
ENDBRANCH  18  19
ENDBRANCH   1  18
BRANCH  11  25
HETATM   25  C   UNL     1      41.514 -15.156   2.057  1.00  0.00    -0.045 A 
HETATM   26  C   UNL     1      41.067 -16.310   2.727  1.00  0.00     0.010 A 
HETATM   27  C   UNL     1      41.924 -17.393   2.930  1.00  0.00     0.024 A 
HETATM   28  C   UNL     1      43.240 -17.330   2.482  1.00  0.00     0.034 A 
HETATM   29 CL   UNL     1      44.289 -18.670   2.717  1.00  0.00    -0.084 Cl
HETATM   30  C   UNL     1      43.712 -16.185   1.845  1.00  0.00     0.024 A 
HETATM   31  C   UNL     1      42.856 -15.099   1.638  1.00  0.00     0.010 A 
ENDBRANCH  11  25
BRANCH  13  32
HETATM   32  O   UNL     1      39.486 -13.407  -3.721  1.00  0.00    -0.361 OA
HETATM   33  H   UNL     1      38.625 -12.978  -3.856  1.00  0.00     0.217 HD
ENDBRANCH  13  32
TORSDOF 6
ENDMDL
MODEL 9
REMARK VINA RESULT:      -7.6      2.601      3.404
REMARK  6 active torsions:
REMARK  status: ('A' for Active; 'I' for Inactive)
REMARK    1  A    between atoms: N_2  and  C_4 
REMARK    2  A    between atoms: C_4  and  C_5 
REMARK    3  A    between atoms: C_5  and  C_6 
REMARK    4  A    between atoms: C_6  and  N_7 
REMARK    5  A    between atoms: C_17  and  C_18 
REMARK    6  A    between atoms: C_26  and  O_27 
ROOT
HETATM    1  N   UNL     1      39.987 -10.959   4.948  1.00  0.00    -0.327 N 
HETATM    2  C   UNL     1      39.858 -12.147   4.340  1.00  0.00     0.113 C 
HETATM    3  N   UNL     1      39.456 -13.251   4.945  1.00  0.00    -0.385 N 
HETATM    4  H   UNL     1      39.397 -14.140   4.460  1.00  0.00     0.157 HD
HETATM    5  H   UNL     1      39.284 -13.330   5.936  1.00  0.00     0.157 HD
HETATM    6  C   UNL     1      40.185 -12.206   2.876  1.00  0.00     0.052 C 
HETATM    7  C   UNL     1      40.619 -11.084   2.274  1.00  0.00     0.182 C 
HETATM    8  O   UNL     1      40.926 -11.021   0.924  1.00  0.00    -0.291 OA
HETATM    9  C   UNL     1      40.628 -12.079   0.105  1.00  0.00     0.087 A 
HETATM   10  C   UNL     1      40.185 -13.305   0.605  1.00  0.00    -0.011 A 
HETATM   11  C   UNL     1      40.059 -13.503   2.098  1.00  0.00     0.095 C 
HETATM   12  C   UNL     1      40.792 -11.875  -1.266  1.00  0.00     0.074 A 
HETATM   13  C   UNL     1      40.492 -12.908  -2.145  1.00  0.00     0.068 A 
HETATM   14  C   UNL     1      40.033 -14.132  -1.673  1.00  0.00     0.037 A 
HETATM   15  C   UNL     1      39.879 -14.333  -0.302  1.00  0.00     0.014 A 
HETATM   16  N   UNL     1      40.855  -9.926   2.957  1.00  0.00    -0.219 NA
HETATM   17  C   UNL     1      40.595  -9.886   4.208  1.00  0.00     0.214 C 
ENDROOT
BRANCH   1  18
HETATM   18  C   UNL     1      39.702 -10.768   6.395  1.00  0.00     0.133 C 
BRANCH  18  19
HETATM   19  C   UNL     1      40.734  -9.951   7.195  1.00  0.00     0.048 C 
BRANCH  19  20
HETATM   20  C   UNL     1      40.169  -9.266   8.441  1.00  0.00     0.235 C 
BRANCH  20  21
HETATM   21  N   UNL     1      40.857  -9.760   9.702  1.00  0.00    -0.079 N 
HETATM   22  C   UNL     1      40.123  -9.437  10.987  1.00  0.00     0.269 C 
HETATM   23  H   UNL     1      40.941 -10.787   9.669  1.00  0.00     0.278 HD
HETATM   24  C   UNL     1      42.286  -9.255   9.791  1.00  0.00     0.269 C 
ENDBRANCH  20  21
ENDBRANCH  19  20
ENDBRANCH  18  19
ENDBRANCH   1  18
BRANCH  11  25
HETATM   25  C   UNL     1      41.044 -14.560   2.605  1.00  0.00    -0.045 A 
HETATM   26  C   UNL     1      42.431 -14.321   2.615  1.00  0.00     0.010 A 
HETATM   27  C   UNL     1      43.318 -15.286   3.095  1.00  0.00     0.024 A 
HETATM   28  C   UNL     1      42.831 -16.508   3.555  1.00  0.00     0.034 A 
HETATM   29 CL   UNL     1      43.921 -17.688   4.162  1.00  0.00    -0.084 Cl
HETATM   30  C   UNL     1      41.465 -16.776   3.524  1.00  0.00     0.024 A 
HETATM   31  C   UNL     1      40.575 -15.811   3.044  1.00  0.00     0.010 A 
ENDBRANCH  11  25
BRANCH  13  32
HETATM   32  O   UNL     1      40.633 -12.768  -3.492  1.00  0.00    -0.361 OA
HETATM   33  H   UNL     1      41.484 -13.140  -3.777  1.00  0.00     0.217 HD
ENDBRANCH  13  32
TORSDOF 6
ENDMDL
MODEL 10
REMARK VINA RESULT:      -7.3      4.355      7.862
REMARK  6 active torsions:
REMARK  status: ('A' for Active; 'I' for Inactive)
REMARK    1  A    between atoms: N_2  and  C_4 
REMARK    2  A    between atoms: C_4  and  C_5 
REMARK    3  A    between atoms: C_5  and  C_6 
REMARK    4  A    between atoms: C_6  and  N_7 
REMARK    5  A    between atoms: C_17  and  C_18 
REMARK    6  A    between atoms: C_26  and  O_27 
ROOT
HETATM    1  N   UNL     1      41.528 -15.484   3.308  1.00  0.00    -0.327 N 
HETATM    2  C   UNL     1      40.508 -14.620   3.195  1.00  0.00     0.113 C 
HETATM    3  N   UNL     1      39.425 -14.841   2.470  1.00  0.00    -0.385 N 
HETATM    4  H   UNL     1      38.685 -14.152   2.385  1.00  0.00     0.157 HD
HETATM    5  H   UNL     1      39.293 -15.641   1.869  1.00  0.00     0.157 HD
HETATM    6  C   UNL     1      40.615 -13.330   3.954  1.00  0.00     0.052 C 
HETATM    7  C   UNL     1      41.733 -13.102   4.668  1.00  0.00     0.182 C 
HETATM    8  O   UNL     1      41.927 -11.957   5.424  1.00  0.00    -0.291 OA
HETATM    9  C   UNL     1      40.891 -11.078   5.610  1.00  0.00     0.087 A 
HETATM   10  C   UNL     1      39.684 -11.193   4.918  1.00  0.00    -0.011 A 
HETATM   11  C   UNL     1      39.508 -12.294   3.899  1.00  0.00     0.095 C 
HETATM   12  C   UNL     1      41.101 -10.048   6.530  1.00  0.00     0.074 A 
HETATM   13  C   UNL     1      40.082  -9.135   6.769  1.00  0.00     0.068 A 
HETATM   14  C   UNL     1      38.865  -9.239   6.106  1.00  0.00     0.037 A 
HETATM   15  C   UNL     1      38.663 -10.264   5.181  1.00  0.00     0.014 A 
HETATM   16  N   UNL     1      42.801 -13.953   4.657  1.00  0.00    -0.219 NA
HETATM   17  C   UNL     1      42.713 -15.041   3.991  1.00  0.00     0.214 C 
ENDROOT
BRANCH   1  18
HETATM   18  C   UNL     1      41.547 -16.793   2.601  1.00  0.00     0.133 C 
BRANCH  18  19
HETATM   19  C   UNL     1      42.936 -17.374   2.275  1.00  0.00     0.048 C 
BRANCH  19  20
HETATM   20  C   UNL     1      42.985 -18.903   2.229  1.00  0.00     0.235 C 
BRANCH  20  21
HETATM   21  N   UNL     1      44.062 -19.448   3.151  1.00  0.00    -0.079 N 
HETATM   22  C   UNL     1      43.848 -20.882   3.589  1.00  0.00     0.269 C 
HETATM   23  H   UNL     1      44.973 -19.427   2.668  1.00  0.00     0.278 HD
HETATM   24  C   UNL     1      44.248 -18.566   4.373  1.00  0.00     0.269 C 
ENDBRANCH  20  21
ENDBRANCH  19  20
ENDBRANCH  18  19
ENDBRANCH   1  18
BRANCH  11  25
HETATM   25  C   UNL     1      39.342 -11.726   2.486  1.00  0.00    -0.045 A 
HETATM   26  C   UNL     1      40.436 -11.195   1.779  1.00  0.00     0.010 A 
HETATM   27  C   UNL     1      40.275 -10.695   0.485  1.00  0.00     0.024 A 
HETATM   28  C   UNL     1      39.016 -10.704  -0.109  1.00  0.00     0.034 A 
HETATM   29 CL   UNL     1      38.821 -10.104  -1.707  1.00  0.00    -0.084 Cl
HETATM   30  C   UNL     1      37.914 -11.195   0.586  1.00  0.00     0.024 A 
HETATM   31  C   UNL     1      38.072 -11.697   1.881  1.00  0.00     0.010 A 
ENDBRANCH  11  25
BRANCH  13  32
HETATM   32  O   UNL     1      40.229  -8.112   7.655  1.00  0.00    -0.361 OA
HETATM   33  H   UNL     1      40.025  -7.267   7.221  1.00  0.00     0.217 HD
ENDBRANCH  13  32
TORSDOF 6
ENDMDL
