MODEL 1
REMARK VINA RESULT:     -10.6      0.000      0.000
REMARK  4 active torsions:
REMARK  status: ('A' for Active; 'I' for Inactive)
REMARK    1  A    between atoms: N_5  and  C_6 
REMARK    2  A    between atoms: C_6  and  C_7 
REMARK    3  A    between atoms: C_7  and  C_8 
REMARK    4  A    between atoms: C_8  and  N_9 
ROOT
HETATM    1  C   UNL     1      39.539 -15.104   2.042  1.00  0.00     0.236 C 
ENDROOT
BRANCH   1   2
HETATM    2  C   UNL     1      40.918 -15.667   2.394  1.00  0.00     0.048 C 
BRANCH   2   3
HETATM    3  C   UNL     1      41.057 -16.273   3.795  1.00  0.00     0.131 C 
BRANCH   3   4
HETATM    4  N   UNL     1      42.462 -16.237   4.266  1.00  0.00    -0.346 N 
HETATM    5  C   UNL     1      42.885 -15.047   4.914  1.00  0.00     0.041 A 
HETATM    6  C   UNL     1      43.695 -15.002   6.069  1.00  0.00    -0.031 A 
HETATM    7  C   UNL     1      42.553 -13.803   4.320  1.00  0.00     0.030 A 
HETATM    8  C   UNL     1      44.108 -13.748   6.585  1.00  0.00     0.009 A 
HETATM    9  C   UNL     1      44.222 -16.200   6.826  1.00  0.00     0.045 C 
HETATM   10  C   UNL     1      43.735 -12.548   5.991  1.00  0.00     0.001 A 
HETATM   11  C   UNL     1      42.957 -12.576   4.849  1.00  0.00     0.002 A 
HETATM   12  C   UNL     1      43.342 -17.439   6.810  1.00  0.00     0.045 C 
HETATM   13  C   UNL     1      43.458 -18.149   5.490  1.00  0.00    -0.031 A 
HETATM   14  C   UNL     1      43.070 -17.517   4.300  1.00  0.00     0.042 A 
HETATM   15  C   UNL     1      43.988 -19.454   5.457  1.00  0.00     0.011 A 
HETATM   16  C   UNL     1      43.265 -18.208   3.088  1.00  0.00     0.054 A 
HETATM   17  C   UNL     1      43.783 -19.503   3.068  1.00  0.00     0.036 A 
HETATM   18 CL   UNL     1      43.906 -20.343   1.571  1.00  0.00    -0.084 Cl
HETATM   19  C   UNL     1      44.141 -20.134   4.250  1.00  0.00     0.024 A 
ENDBRANCH   3   4
ENDBRANCH   2   3
ENDBRANCH   1   2
BRANCH   1  20
HETATM   20  N   UNL     1      39.485 -14.024   0.939  1.00  0.00    -0.071 N 
HETATM   21  H   UNL     1      38.530 -14.173   0.555  1.00  0.00     0.279 HD
HETATM   22  C   UNL     1      40.399 -14.256  -0.246  1.00  0.00     0.238 C 
HETATM   23  C   UNL     1      40.874 -12.939  -0.863  1.00  0.00     0.077 C 
HETATM   24  C   UNL     1      39.752 -11.913  -0.944  1.00  0.00     0.212 C 
HETATM   25  N   UNL     1      40.179 -10.633  -1.662  1.00  0.00    -0.032 N 
HETATM   26  C   UNL     1      38.667 -12.434  -1.902  1.00  0.00     0.256 C 
HETATM   27  C   UNL     1      39.134 -11.589   0.419  1.00  0.00     0.077 C 
HETATM   28  H   UNL     1      39.469  -9.921  -1.433  1.00  0.00     0.283 HD
HETATM   29  C   UNL     1      39.930 -10.903  -3.115  1.00  0.00     0.290 C 
HETATM   30  C   UNL     1      41.515 -10.001  -1.422  1.00  0.00     0.239 C 
HETATM   31  C   UNL     1      39.869  -9.580  -3.856  1.00  0.00     0.055 C 
HETATM   32  N   UNL     1      38.737 -11.669  -3.052  1.00  0.00    -0.331 N 
HETATM   33  C   UNL     1      41.175  -8.803  -3.642  1.00  0.00     0.005 C 
HETATM   34  C   UNL     1      41.538  -8.663  -2.158  1.00  0.00     0.028 C 
HETATM   35  H   UNL     1      38.215 -11.960  -3.877  1.00  0.00     0.164 HD
HETATM   36  O   UNL     1      37.915 -13.360  -1.666  1.00  0.00    -0.271 OA
HETATM   37  C   UNL     1      39.457 -12.625   1.495  1.00  0.00     0.238 C 
ENDBRANCH   1  20
TORSDOF 4
ENDMDL
MODEL 2
REMARK VINA RESULT:     -10.2      3.254      9.734
REMARK  4 active torsions:
REMARK  status: ('A' for Active; 'I' for Inactive)
REMARK    1  A    between atoms: N_5  and  C_6 
REMARK    2  A    between atoms: C_6  and  C_7 
REMARK    3  A    between atoms: C_7  and  C_8 
REMARK    4  A    between atoms: C_8  and  N_9 
ROOT
HETATM    1  C   UNL     1      41.103 -12.419   2.624  1.00  0.00     0.236 C 
ENDROOT
BRANCH   1   2
HETATM    2  C   UNL     1      40.311 -12.375   1.315  1.00  0.00     0.048 C 
BRANCH   2   3
HETATM    3  C   UNL     1      41.141 -12.418   0.027  1.00  0.00     0.131 C 
BRANCH   3   4
HETATM    4  N   UNL     1      40.397 -11.844  -1.118  1.00  0.00    -0.346 N 
HETATM    5  C   UNL     1      39.483 -12.705  -1.779  1.00  0.00     0.041 A 
HETATM    6  C   UNL     1      38.198 -12.328  -2.225  1.00  0.00    -0.031 A 
HETATM    7  C   UNL     1      39.909 -14.018  -2.103  1.00  0.00     0.030 A 
HETATM    8  C   UNL     1      37.402 -13.263  -2.935  1.00  0.00     0.009 A 
HETATM    9  C   UNL     1      37.566 -10.966  -2.052  1.00  0.00     0.045 C 
HETATM   10  C   UNL     1      37.844 -14.552  -3.206  1.00  0.00     0.001 A 
HETATM   11  C   UNL     1      39.107 -14.931  -2.792  1.00  0.00     0.002 A 
HETATM   12  C   UNL     1      37.972 -10.197  -0.805  1.00  0.00     0.045 C 
HETATM   13  C   UNL     1      39.343  -9.604  -0.975  1.00  0.00    -0.031 A 
HETATM   14  C   UNL     1      40.461 -10.429  -1.169  1.00  0.00     0.042 A 
HETATM   15  C   UNL     1      39.492  -8.204  -0.964  1.00  0.00     0.011 A 
HETATM   16  C   UNL     1      41.708  -9.813  -1.390  1.00  0.00     0.054 A 
HETATM   17  C   UNL     1      41.846  -8.425  -1.368  1.00  0.00     0.036 A 
HETATM   18 CL   UNL     1      43.408  -7.726  -1.541  1.00  0.00    -0.084 Cl
HETATM   19  C   UNL     1      40.742  -7.615  -1.151  1.00  0.00     0.024 A 
ENDBRANCH   3   4
ENDBRANCH   2   3
ENDBRANCH   1   2
BRANCH   1  20
HETATM   20  N   UNL     1      41.631 -13.798   3.078  1.00  0.00    -0.071 N 
HETATM   21  H   UNL     1      41.693 -13.663   4.107  1.00  0.00     0.279 HD
HETATM   22  C   UNL     1      43.052 -14.119   2.663  1.00  0.00     0.238 C 
HETATM   23  C   UNL     1      43.254 -15.620   2.446  1.00  0.00     0.077 C 
HETATM   24  C   UNL     1      42.557 -16.447   3.518  1.00  0.00     0.212 C 
HETATM   25  N   UNL     1      42.843 -17.943   3.382  1.00  0.00    -0.032 N 
HETATM   26  C   UNL     1      43.207 -16.151   4.879  1.00  0.00     0.256 C 
HETATM   27  C   UNL     1      41.050 -16.190   3.591  1.00  0.00     0.077 C 
HETATM   28  H   UNL     1      42.138 -18.427   3.957  1.00  0.00     0.283 HD
HETATM   29  C   UNL     1      44.113 -18.165   4.148  1.00  0.00     0.290 C 
HETATM   30  C   UNL     1      42.855 -18.627   2.051  1.00  0.00     0.239 C 
HETATM   31  C   UNL     1      44.236 -19.641   4.474  1.00  0.00     0.055 C 
HETATM   32  N   UNL     1      43.938 -17.270   5.235  1.00  0.00    -0.331 N 
HETATM   33  C   UNL     1      44.206 -20.465   3.180  1.00  0.00     0.005 C 
HETATM   34  C   UNL     1      42.998 -20.127   2.297  1.00  0.00     0.028 C 
HETATM   35  H   UNL     1      44.579 -17.217   6.025  1.00  0.00     0.164 HD
HETATM   36  O   UNL     1      43.094 -15.107   5.494  1.00  0.00    -0.271 OA
HETATM   37  C   UNL     1      40.619 -14.898   2.897  1.00  0.00     0.238 C 
ENDBRANCH   1  20
TORSDOF 4
ENDMDL
MODEL 3
REMARK VINA RESULT:     -10.2      5.309      8.998
REMARK  4 active torsions:
REMARK  status: ('A' for Active; 'I' for Inactive)
REMARK    1  A    between atoms: N_5  and  C_6 
REMARK    2  A    between atoms: C_6  and  C_7 
REMARK    3  A    between atoms: C_7  and  C_8 
REMARK    4  A    between atoms: C_8  and  N_9 
ROOT
HETATM    1  C   UNL     1      45.080 -11.977   6.481  1.00  0.00     0.236 C 
ENDROOT
BRANCH   1   2
HETATM    2  C   UNL     1      43.957 -12.562   5.621  1.00  0.00     0.048 C 
BRANCH   2   3
HETATM    3  C   UNL     1      43.503 -13.980   5.986  1.00  0.00     0.131 C 
BRANCH   3   4
HETATM    4  N   UNL     1      42.425 -14.454   5.085  1.00  0.00    -0.346 N 
HETATM    5  C   UNL     1      41.329 -13.573   4.888  1.00  0.00     0.041 A 
HETATM    6  C   UNL     1      40.699 -13.336   3.647  1.00  0.00    -0.031 A 
HETATM    7  C   UNL     1      40.755 -12.947   6.024  1.00  0.00     0.030 A 
HETATM    8  C   UNL     1      39.566 -12.485   3.590  1.00  0.00     0.009 A 
HETATM    9  C   UNL     1      41.096 -13.947   2.323  1.00  0.00     0.045 C 
HETATM   10  C   UNL     1      39.053 -11.864   4.723  1.00  0.00     0.001 A 
HETATM   11  C   UNL     1      39.648 -12.100   5.947  1.00  0.00     0.002 A 
HETATM   12  C   UNL     1      42.574 -14.257   2.148  1.00  0.00     0.045 C 
HETATM   13  C   UNL     1      42.943 -15.505   2.900  1.00  0.00    -0.031 A 
HETATM   14  C   UNL     1      42.809 -15.566   4.295  1.00  0.00     0.042 A 
HETATM   15  C   UNL     1      43.402 -16.628   2.185  1.00  0.00     0.011 A 
HETATM   16  C   UNL     1      43.107 -16.784   4.937  1.00  0.00     0.054 A 
HETATM   17  C   UNL     1      43.569 -17.887   4.219  1.00  0.00     0.036 A 
HETATM   18 CL   UNL     1      44.016 -19.319   5.061  1.00  0.00    -0.084 Cl
HETATM   19  C   UNL     1      43.723 -17.813   2.843  1.00  0.00     0.024 A 
ENDBRANCH   3   4
ENDBRANCH   2   3
ENDBRANCH   1   2
BRANCH   1  20
HETATM   20  N   UNL     1      44.661 -11.051   7.645  1.00  0.00    -0.071 N 
HETATM   21  H   UNL     1      44.899 -11.640   8.469  1.00  0.00     0.279 HD
HETATM   22  C   UNL     1      43.173 -10.811   7.782  1.00  0.00     0.238 C 
HETATM   23  C   UNL     1      42.872  -9.425   8.357  1.00  0.00     0.077 C 
HETATM   24  C   UNL     1      43.819  -9.065   9.494  1.00  0.00     0.212 C 
HETATM   25  N   UNL     1      43.462  -7.735  10.156  1.00  0.00    -0.032 N 
HETATM   26  C   UNL     1      43.593 -10.039  10.662  1.00  0.00     0.256 C 
HETATM   27  C   UNL     1      45.292  -9.083   9.077  1.00  0.00     0.077 C 
HETATM   28  H   UNL     1      44.287  -7.453  10.706  1.00  0.00     0.283 HD
HETATM   29  C   UNL     1      42.456  -8.085  11.211  1.00  0.00     0.290 C 
HETATM   30  C   UNL     1      43.051  -6.539   9.354  1.00  0.00     0.239 C 
HETATM   31  C   UNL     1      42.387  -6.952  12.217  1.00  0.00     0.055 C 
HETATM   32  N   UNL     1      42.960  -9.331  11.667  1.00  0.00    -0.331 N 
HETATM   33  C   UNL     1      42.022  -5.644  11.503  1.00  0.00     0.005 C 
HETATM   34  C   UNL     1      42.939  -5.352  10.308  1.00  0.00     0.028 C 
HETATM   35  H   UNL     1      42.572  -9.834  12.463  1.00  0.00     0.164 HD
HETATM   36  O   UNL     1      43.907 -11.215  10.661  1.00  0.00    -0.271 OA
HETATM   37  C   UNL     1      45.547  -9.840   7.773  1.00  0.00     0.238 C 
ENDBRANCH   1  20
TORSDOF 4
ENDMDL
MODEL 4
REMARK VINA RESULT:     -10.1      4.113      6.317
REMARK  4 active torsions:
REMARK  status: ('A' for Active; 'I' for Inactive)
REMARK    1  A    between atoms: N_5  and  C_6 
REMARK    2  A    between atoms: C_6  and  C_7 
REMARK    3  A    between atoms: C_7  and  C_8 
REMARK    4  A    between atoms: C_8  and  N_9 
ROOT
HETATM    1  C   UNL     1      40.997  -9.364   3.443  1.00  0.00     0.236 C 
ENDROOT
BRANCH   1   2
HETATM    2  C   UNL     1      42.104  -9.642   4.463  1.00  0.00     0.048 C 
BRANCH   2   3
HETATM    3  C   UNL     1      41.690  -9.577   5.937  1.00  0.00     0.131 C 
BRANCH   3   4
HETATM    4  N   UNL     1      42.185 -10.751   6.694  1.00  0.00    -0.346 N 
HETATM    5  C   UNL     1      41.850 -12.029   6.175  1.00  0.00     0.041 A 
HETATM    6  C   UNL     1      42.730 -13.131   6.114  1.00  0.00    -0.031 A 
HETATM    7  C   UNL     1      40.512 -12.260   5.766  1.00  0.00     0.030 A 
HETATM    8  C   UNL     1      42.257 -14.378   5.635  1.00  0.00     0.009 A 
HETATM    9  C   UNL     1      44.176 -13.133   6.558  1.00  0.00     0.045 C 
HETATM   10  C   UNL     1      40.944 -14.556   5.213  1.00  0.00     0.001 A 
HETATM   11  C   UNL     1      40.066 -13.492   5.284  1.00  0.00     0.002 A 
HETATM   12  C   UNL     1      44.920 -11.815   6.413  1.00  0.00     0.045 C 
HETATM   13  C   UNL     1      44.524 -10.864   7.508  1.00  0.00    -0.031 A 
HETATM   14  C   UNL     1      43.199 -10.423   7.629  1.00  0.00     0.042 A 
HETATM   15  C   UNL     1      45.498 -10.439   8.432  1.00  0.00     0.011 A 
HETATM   16  C   UNL     1      42.876  -9.586   8.715  1.00  0.00     0.054 A 
HETATM   17  C   UNL     1      43.850  -9.164   9.619  1.00  0.00     0.036 A 
HETATM   18 CL   UNL     1      43.425  -8.060  10.868  1.00  0.00    -0.084 Cl
HETATM   19  C   UNL     1      45.164  -9.583   9.480  1.00  0.00     0.024 A 
ENDBRANCH   3   4
ENDBRANCH   2   3
ENDBRANCH   1   2
BRANCH   1  20
HETATM   20  N   UNL     1      40.629 -10.513   2.479  1.00  0.00    -0.071 N 
HETATM   21  H   UNL     1      41.069 -11.327   2.955  1.00  0.00     0.279 HD
HETATM   22  C   UNL     1      41.305 -10.469   1.125  1.00  0.00     0.238 C 
HETATM   23  C   UNL     1      40.424 -11.077   0.031  1.00  0.00     0.077 C 
HETATM   24  C   UNL     1      39.726 -12.345   0.504  1.00  0.00     0.212 C 
HETATM   25  N   UNL     1      38.934 -13.028  -0.611  1.00  0.00    -0.032 N 
HETATM   26  C   UNL     1      40.787 -13.417   0.804  1.00  0.00     0.256 C 
HETATM   27  C   UNL     1      38.845 -12.123   1.736  1.00  0.00     0.077 C 
HETATM   28  H   UNL     1      38.299 -13.696  -0.148  1.00  0.00     0.283 HD
HETATM   29  C   UNL     1      39.922 -13.922  -1.296  1.00  0.00     0.290 C 
HETATM   30  C   UNL     1      38.104 -12.248  -1.582  1.00  0.00     0.239 C 
HETATM   31  C   UNL     1      39.166 -14.973  -2.088  1.00  0.00     0.055 C 
HETATM   32  N   UNL     1      40.698 -14.370  -0.195  1.00  0.00    -0.331 N 
HETATM   33  C   UNL     1      38.229 -14.292  -3.094  1.00  0.00     0.005 C 
HETATM   34  C   UNL     1      37.322 -13.244  -2.435  1.00  0.00     0.028 C 
HETATM   35  H   UNL     1      41.424 -15.080  -0.274  1.00  0.00     0.164 HD
HETATM   36  O   UNL     1      41.558 -13.392   1.744  1.00  0.00    -0.271 OA
HETATM   37  C   UNL     1      39.155 -10.823   2.479  1.00  0.00     0.238 C 
ENDBRANCH   1  20
TORSDOF 4
ENDMDL
MODEL 5
REMARK VINA RESULT:      -9.9      5.090      8.417
REMARK  4 active torsions:
REMARK  status: ('A' for Active; 'I' for Inactive)
REMARK    1  A    between atoms: N_5  and  C_6 
REMARK    2  A    between atoms: C_6  and  C_7 
REMARK    3  A    between atoms: C_7  and  C_8 
REMARK    4  A    between atoms: C_8  and  N_9 
ROOT
HETATM    1  C   UNL     1      40.301  -9.067   5.218  1.00  0.00     0.236 C 
ENDROOT
BRANCH   1   2
HETATM    2  C   UNL     1      41.300  -8.826   6.352  1.00  0.00     0.048 C 
BRANCH   2   3
HETATM    3  C   UNL     1      41.059  -9.622   7.639  1.00  0.00     0.131 C 
BRANCH   3   4
HETATM    4  N   UNL     1      42.286  -9.701   8.468  1.00  0.00    -0.346 N 
HETATM    5  C   UNL     1      43.445 -10.227   7.840  1.00  0.00     0.041 A 
HETATM    6  C   UNL     1      44.749  -9.710   7.991  1.00  0.00    -0.031 A 
HETATM    7  C   UNL     1      43.315 -11.414   7.074  1.00  0.00     0.030 A 
HETATM    8  C   UNL     1      45.838 -10.366   7.365  1.00  0.00     0.009 A 
HETATM    9  C   UNL     1      45.130  -8.499   8.813  1.00  0.00     0.045 C 
HETATM   10  C   UNL     1      45.666 -11.510   6.595  1.00  0.00     0.001 A 
HETATM   11  C   UNL     1      44.397 -12.040   6.453  1.00  0.00     0.002 A 
HETATM   12  C   UNL     1      44.080  -7.405   8.915  1.00  0.00     0.045 C 
HETATM   13  C   UNL     1      43.003  -7.799   9.887  1.00  0.00    -0.031 A 
HETATM   14  C   UNL     1      42.205  -8.928   9.654  1.00  0.00     0.042 A 
HETATM   15  C   UNL     1      42.818  -7.033  11.055  1.00  0.00     0.011 A 
HETATM   16  C   UNL     1      41.258  -9.285  10.634  1.00  0.00     0.054 A 
HETATM   17  C   UNL     1      41.078  -8.514  11.782  1.00  0.00     0.036 A 
HETATM   18 CL   UNL     1      39.839  -8.934  12.898  1.00  0.00    -0.084 Cl
HETATM   19  C   UNL     1      41.852  -7.383  11.996  1.00  0.00     0.024 A 
ENDBRANCH   3   4
ENDBRANCH   2   3
ENDBRANCH   1   2
BRANCH   1  20
HETATM   20  N   UNL     1      40.384 -10.426   4.489  1.00  0.00    -0.071 N 
HETATM   21  H   UNL     1      39.637 -10.319   3.773  1.00  0.00     0.279 HD
HETATM   22  C   UNL     1      39.945 -11.628   5.300  1.00  0.00     0.238 C 
HETATM   23  C   UNL     1      40.705 -12.894   4.896  1.00  0.00     0.077 C 
HETATM   24  C   UNL     1      40.866 -13.000   3.385  1.00  0.00     0.212 C 
HETATM   25  N   UNL     1      41.520 -14.313   2.956  1.00  0.00    -0.032 N 
HETATM   26  C   UNL     1      39.476 -13.146   2.743  1.00  0.00     0.256 C 
HETATM   27  C   UNL     1      41.601 -11.805   2.774  1.00  0.00     0.077 C 
HETATM   28  H   UNL     1      41.827 -14.180   1.981  1.00  0.00     0.283 HD
HETATM   29  C   UNL     1      40.387 -15.285   2.824  1.00  0.00     0.290 C 
HETATM   30  C   UNL     1      42.684 -14.895   3.697  1.00  0.00     0.239 C 
HETATM   31  C   UNL     1      40.841 -16.455   1.971  1.00  0.00     0.055 C 
HETATM   32  N   UNL     1      39.369 -14.450   2.294  1.00  0.00    -0.331 N 
HETATM   33  C   UNL     1      42.076 -17.111   2.603  1.00  0.00     0.005 C 
HETATM   34  C   UNL     1      43.189 -16.098   2.905  1.00  0.00     0.028 C 
HETATM   35  H   UNL     1      38.463 -14.799   1.987  1.00  0.00     0.164 HD
HETATM   36  O   UNL     1      38.643 -12.263   2.675  1.00  0.00    -0.271 OA
HETATM   37  C   UNL     1      41.653 -10.586   3.695  1.00  0.00     0.238 C 
ENDBRANCH   1  20
TORSDOF 4
ENDMDL
MODEL 6
REMARK VINA RESULT:      -9.9      5.797      9.728
REMARK  4 active torsions:
REMARK  status: ('A' for Active; 'I' for Inactive)
REMARK    1  A    between atoms: N_5  and  C_6 
REMARK    2  A    between atoms: C_6  and  C_7 
REMARK    3  A    between atoms: C_7  and  C_8 
REMARK    4  A    between atoms: C_8  and  N_9 
ROOT
HETATM    1  C   UNL     1      44.758 -11.245   6.211  1.00  0.00     0.236 C 
ENDROOT
BRANCH   1   2
HETATM    2  C   UNL     1      43.929 -12.408   5.662  1.00  0.00     0.048 C 
BRANCH   2   3
HETATM    3  C   UNL     1      43.503 -12.294   4.194  1.00  0.00     0.131 C 
BRANCH   3   4
HETATM    4  N   UNL     1      42.267 -13.066   3.925  1.00  0.00    -0.346 N 
HETATM    5  C   UNL     1      42.435 -14.359   3.363  1.00  0.00     0.041 A 
HETATM    6  C   UNL     1      41.706 -15.505   3.745  1.00  0.00    -0.031 A 
HETATM    7  C   UNL     1      43.332 -14.508   2.275  1.00  0.00     0.030 A 
HETATM    8  C   UNL     1      41.917 -16.728   3.060  1.00  0.00     0.009 A 
HETATM    9  C   UNL     1      40.653 -15.562   4.828  1.00  0.00     0.045 C 
HETATM   10  C   UNL     1      42.830 -16.842   2.018  1.00  0.00     0.001 A 
HETATM   11  C   UNL     1      43.538 -15.725   1.620  1.00  0.00     0.002 A 
HETATM   12  C   UNL     1      40.845 -14.608   5.996  1.00  0.00     0.045 C 
HETATM   13  C   UNL     1      40.449 -13.211   5.604  1.00  0.00    -0.031 A 
HETATM   14  C   UNL     1      41.127 -12.536   4.579  1.00  0.00     0.042 A 
HETATM   15  C   UNL     1      39.368 -12.594   6.263  1.00  0.00     0.011 A 
HETATM   16  C   UNL     1      40.667 -11.256   4.212  1.00  0.00     0.054 A 
HETATM   17  C   UNL     1      39.601 -10.651   4.877  1.00  0.00     0.036 A 
HETATM   18 CL   UNL     1      39.144  -9.046   4.459  1.00  0.00    -0.084 Cl
HETATM   19  C   UNL     1      38.951 -11.312   5.907  1.00  0.00     0.024 A 
ENDBRANCH   3   4
ENDBRANCH   2   3
ENDBRANCH   1   2
BRANCH   1  20
HETATM   20  N   UNL     1      44.079 -10.334   7.257  1.00  0.00    -0.071 N 
HETATM   21  H   UNL     1      44.330  -9.390   6.899  1.00  0.00     0.279 HD
HETATM   22  C   UNL     1      44.683 -10.372   8.645  1.00  0.00     0.238 C 
HETATM   23  C   UNL     1      43.633 -10.119   9.729  1.00  0.00     0.077 C 
HETATM   24  C   UNL     1      42.671  -9.005   9.338  1.00  0.00     0.212 C 
HETATM   25  N   UNL     1      41.687  -8.661  10.456  1.00  0.00    -0.032 N 
HETATM   26  C   UNL     1      43.453  -7.686   9.224  1.00  0.00     0.256 C 
HETATM   27  C   UNL     1      41.927  -9.286   8.030  1.00  0.00     0.077 C 
HETATM   28  H   UNL     1      40.931  -8.113  10.019  1.00  0.00     0.283 HD
HETATM   29  C   UNL     1      42.398  -7.644  11.297  1.00  0.00     0.290 C 
HETATM   30  C   UNL     1      41.028  -9.721  11.282  1.00  0.00     0.239 C 
HETATM   31  C   UNL     1      41.375  -6.899  12.134  1.00  0.00     0.055 C 
HETATM   32  N   UNL     1      43.091  -6.902  10.304  1.00  0.00    -0.331 N 
HETATM   33  C   UNL     1      40.586  -7.893  12.997  1.00  0.00     0.005 C 
HETATM   34  C   UNL     1      39.990  -9.042  12.172  1.00  0.00     0.028 C 
HETATM   35  H   UNL     1      43.620  -6.056  10.507  1.00  0.00     0.164 HD
HETATM   36  O   UNL     1      44.250  -7.421   8.344  1.00  0.00    -0.271 OA
HETATM   37  C   UNL     1      42.576 -10.382   7.184  1.00  0.00     0.238 C 
ENDBRANCH   1  20
TORSDOF 4
ENDMDL
MODEL 7
REMARK VINA RESULT:      -9.7      5.759      9.558
REMARK  4 active torsions:
REMARK  status: ('A' for Active; 'I' for Inactive)
REMARK    1  A    between atoms: N_5  and  C_6 
REMARK    2  A    between atoms: C_6  and  C_7 
REMARK    3  A    between atoms: C_7  and  C_8 
REMARK    4  A    between atoms: C_8  and  N_9 
ROOT
HETATM    1  C   UNL     1      40.904 -10.973   5.530  1.00  0.00     0.236 C 
ENDROOT
BRANCH   1   2
HETATM    2  C   UNL     1      41.658 -10.007   6.447  1.00  0.00     0.048 C 
BRANCH   2   3
HETATM    3  C   UNL     1      41.192  -9.967   7.906  1.00  0.00     0.131 C 
BRANCH   3   4
HETATM    4  N   UNL     1      42.267  -9.488   8.807  1.00  0.00    -0.346 N 
HETATM    5  C   UNL     1      43.602  -9.724   8.385  1.00  0.00     0.041 A 
HETATM    6  C   UNL     1      44.659  -8.797   8.499  1.00  0.00    -0.031 A 
HETATM    7  C   UNL     1      43.935 -11.012   7.893  1.00  0.00     0.030 A 
HETATM    8  C   UNL     1      45.967  -9.175   8.103  1.00  0.00     0.009 A 
HETATM    9  C   UNL     1      44.550  -7.395   9.056  1.00  0.00     0.045 C 
HETATM   10  C   UNL     1      46.247 -10.439   7.595  1.00  0.00     0.001 A 
HETATM   11  C   UNL     1      45.226 -11.364   7.495  1.00  0.00     0.002 A 
HETATM   12  C   UNL     1      43.216  -6.698   8.848  1.00  0.00     0.045 C 
HETATM   13  C   UNL     1      42.191  -7.224   9.813  1.00  0.00    -0.031 A 
HETATM   14  C   UNL     1      41.807  -8.573   9.785  1.00  0.00     0.042 A 
HETATM   15  C   UNL     1      41.636  -6.351  10.769  1.00  0.00     0.011 A 
HETATM   16  C   UNL     1      40.892  -9.021  10.759  1.00  0.00     0.054 A 
HETATM   17  C   UNL     1      40.342  -8.146  11.695  1.00  0.00     0.036 A 
HETATM   18 CL   UNL     1      39.153  -8.721  12.796  1.00  0.00    -0.084 Cl
HETATM   19  C   UNL     1      40.706  -6.807  11.702  1.00  0.00     0.024 A 
ENDBRANCH   3   4
ENDBRANCH   2   3
ENDBRANCH   1   2
BRANCH   1  20
HETATM   20  N   UNL     1      41.451 -12.414   5.429  1.00  0.00    -0.071 N 
HETATM   21  H   UNL     1      41.586 -12.652   6.433  1.00  0.00     0.279 HD
HETATM   22  C   UNL     1      42.837 -12.544   4.832  1.00  0.00     0.238 C 
HETATM   23  C   UNL     1      43.011 -13.868   4.085  1.00  0.00     0.077 C 
HETATM   24  C   UNL     1      42.385 -15.033   4.840  1.00  0.00     0.212 C 
HETATM   25  N   UNL     1      42.649 -16.379   4.165  1.00  0.00    -0.032 N 
HETATM   26  C   UNL     1      43.130 -15.225   6.171  1.00  0.00     0.256 C 
HETATM   27  C   UNL     1      40.888 -14.843   5.102  1.00  0.00     0.077 C 
HETATM   28  H   UNL     1      41.981 -17.047   4.579  1.00  0.00     0.283 HD
HETATM   29  C   UNL     1      43.966 -16.835   4.715  1.00  0.00     0.290 C 
HETATM   30  C   UNL     1      42.563 -16.548   2.680  1.00  0.00     0.239 C 
HETATM   31  C   UNL     1      44.100 -18.329   4.489  1.00  0.00     0.055 C 
HETATM   32  N   UNL     1      43.875 -16.385   6.058  1.00  0.00    -0.331 N 
HETATM   33  C   UNL     1      43.974 -18.643   2.992  1.00  0.00     0.005 C 
HETATM   34  C   UNL     1      42.710 -18.036   2.370  1.00  0.00     0.028 C 
HETATM   35  H   UNL     1      44.570 -16.603   6.769  1.00  0.00     0.164 HD
HETATM   36  O   UNL     1      43.069 -14.468   7.121  1.00  0.00    -0.271 OA
HETATM   37  C   UNL     1      40.420 -13.397   4.940  1.00  0.00     0.238 C 
ENDBRANCH   1  20
TORSDOF 4
ENDMDL
MODEL 8
REMARK VINA RESULT:      -9.5      5.493      8.835
REMARK  4 active torsions:
REMARK  status: ('A' for Active; 'I' for Inactive)
REMARK    1  A    between atoms: N_5  and  C_6 
REMARK    2  A    between atoms: C_6  and  C_7 
REMARK    3  A    between atoms: C_7  and  C_8 
REMARK    4  A    between atoms: C_8  and  N_9 
ROOT
HETATM    1  C   UNL     1      39.251  -9.901   5.342  1.00  0.00     0.236 C 
ENDROOT
BRANCH   1   2
HETATM    2  C   UNL     1      39.739 -11.300   4.960  1.00  0.00     0.048 C 
BRANCH   2   3
HETATM    3  C   UNL     1      40.653 -11.381   3.733  1.00  0.00     0.131 C 
BRANCH   3   4
HETATM    4  N   UNL     1      41.552 -12.558   3.801  1.00  0.00    -0.346 N 
HETATM    5  C   UNL     1      42.538 -12.547   4.822  1.00  0.00     0.041 A 
HETATM    6  C   UNL     1      42.892 -13.661   5.612  1.00  0.00    -0.031 A 
HETATM    7  C   UNL     1      43.294 -11.363   5.015  1.00  0.00     0.030 A 
HETATM    8  C   UNL     1      43.943 -13.543   6.556  1.00  0.00     0.009 A 
HETATM    9  C   UNL     1      42.270 -15.037   5.530  1.00  0.00     0.045 C 
HETATM   10  C   UNL     1      44.640 -12.354   6.738  1.00  0.00     0.001 A 
HETATM   11  C   UNL     1      44.317 -11.259   5.959  1.00  0.00     0.002 A 
HETATM   12  C   UNL     1      40.806 -15.083   5.125  1.00  0.00     0.045 C 
HETATM   13  C   UNL     1      40.662 -14.866   3.644  1.00  0.00    -0.031 A 
HETATM   14  C   UNL     1      41.076 -13.664   3.053  1.00  0.00     0.042 A 
HETATM   15  C   UNL     1      40.128 -15.898   2.848  1.00  0.00     0.011 A 
HETATM   16  C   UNL     1      40.978 -13.546   1.653  1.00  0.00     0.054 A 
HETATM   17  C   UNL     1      40.440 -14.571   0.875  1.00  0.00     0.036 A 
HETATM   18 CL   UNL     1      40.247 -14.337  -0.818  1.00  0.00    -0.084 Cl
HETATM   19  C   UNL     1      40.008 -15.748   1.468  1.00  0.00     0.024 A 
ENDBRANCH   3   4
ENDBRANCH   2   3
ENDBRANCH   1   2
BRANCH   1  20
HETATM   20  N   UNL     1      39.753  -9.327   6.686  1.00  0.00    -0.071 N 
HETATM   21  H   UNL     1      39.210  -8.442   6.745  1.00  0.00     0.279 HD
HETATM   22  C   UNL     1      41.198  -8.873   6.701  1.00  0.00     0.238 C 
HETATM   23  C   UNL     1      41.832  -9.043   8.084  1.00  0.00     0.077 C 
HETATM   24  C   UNL     1      40.881  -8.628   9.199  1.00  0.00     0.212 C 
HETATM   25  N   UNL     1      41.537  -8.683  10.578  1.00  0.00    -0.032 N 
HETATM   26  C   UNL     1      40.592  -7.123   9.075  1.00  0.00     0.256 C 
HETATM   27  C   UNL     1      39.568  -9.415   9.192  1.00  0.00     0.077 C 
HETATM   28  H   UNL     1      40.769  -8.654  11.266  1.00  0.00     0.283 HD
HETATM   29  C   UNL     1      42.193  -7.346  10.748  1.00  0.00     0.290 C 
HETATM   30  C   UNL     1      42.433  -9.811  10.983  1.00  0.00     0.239 C 
HETATM   31  C   UNL     1      42.461  -7.115  12.223  1.00  0.00     0.055 C 
HETATM   32  N   UNL     1      41.248  -6.494  10.117  1.00  0.00    -0.331 N 
HETATM   33  C   UNL     1      43.336  -8.248  12.777  1.00  0.00     0.005 C 
HETATM   34  C   UNL     1      42.766  -9.637  12.463  1.00  0.00     0.028 C 
HETATM   35  H   UNL     1      41.322  -5.479  10.121  1.00  0.00     0.164 HD
HETATM   36  O   UNL     1      39.920  -6.611   8.199  1.00  0.00    -0.271 OA
HETATM   37  C   UNL     1      39.296 -10.135   7.872  1.00  0.00     0.238 C 
ENDBRANCH   1  20
TORSDOF 4
ENDMDL
MODEL 9
REMARK VINA RESULT:      -9.5      6.229      9.989
REMARK  4 active torsions:
REMARK  status: ('A' for Active; 'I' for Inactive)
REMARK    1  A    between atoms: N_5  and  C_6 
REMARK    2  A    between atoms: C_6  and  C_7 
REMARK    3  A    between atoms: C_7  and  C_8 
REMARK    4  A    between atoms: C_8  and  N_9 
ROOT
HETATM    1  C   UNL     1      41.188  -9.130   6.852  1.00  0.00     0.236 C 
ENDROOT
BRANCH   1   2
HETATM    2  C   UNL     1      41.477  -8.718   8.297  1.00  0.00     0.048 C 
BRANCH   2   3
HETATM    3  C   UNL     1      41.953  -7.276   8.501  1.00  0.00     0.131 C 
BRANCH   3   4
HETATM    4  N   UNL     1      42.804  -7.149   9.708  1.00  0.00    -0.346 N 
HETATM    5  C   UNL     1      42.344  -6.267  10.721  1.00  0.00     0.041 A 
HETATM    6  C   UNL     1      42.398  -6.532  12.106  1.00  0.00    -0.031 A 
HETATM    7  C   UNL     1      41.877  -4.985  10.336  1.00  0.00     0.030 A 
HETATM    8  C   UNL     1      41.969  -5.541  13.025  1.00  0.00     0.009 A 
HETATM    9  C   UNL     1      42.920  -7.800  12.744  1.00  0.00     0.045 C 
HETATM   10  C   UNL     1      41.487  -4.307  12.605  1.00  0.00     0.001 A 
HETATM   11  C   UNL     1      41.445  -4.025  11.253  1.00  0.00     0.002 A 
HETATM   12  C   UNL     1      42.738  -9.076  11.938  1.00  0.00     0.045 C 
HETATM   13  C   UNL     1      43.751  -9.147  10.830  1.00  0.00    -0.031 A 
HETATM   14  C   UNL     1      43.772  -8.179   9.816  1.00  0.00     0.042 A 
HETATM   15  C   UNL     1      44.700 -10.188  10.834  1.00  0.00     0.011 A 
HETATM   16  C   UNL     1      44.787  -8.261   8.842  1.00  0.00     0.054 A 
HETATM   17  C   UNL     1      45.717  -9.301   8.851  1.00  0.00     0.036 A 
HETATM   18 CL   UNL     1      46.872  -9.414   7.582  1.00  0.00    -0.084 Cl
HETATM   19  C   UNL     1      45.675 -10.271   9.841  1.00  0.00     0.024 A 
ENDBRANCH   3   4
ENDBRANCH   2   3
ENDBRANCH   1   2
BRANCH   1  20
HETATM   20  N   UNL     1      41.751 -10.492   6.386  1.00  0.00    -0.071 N 
HETATM   21  H   UNL     1      42.191 -10.231   5.481  1.00  0.00     0.279 HD
HETATM   22  C   UNL     1      40.714 -11.528   6.005  1.00  0.00     0.238 C 
HETATM   23  C   UNL     1      41.202 -12.950   6.289  1.00  0.00     0.077 C 
HETATM   24  C   UNL     1      42.662 -13.138   5.897  1.00  0.00     0.212 C 
HETATM   25  N   UNL     1      43.133 -14.582   6.067  1.00  0.00    -0.032 N 
HETATM   26  C   UNL     1      42.796 -12.967   4.374  1.00  0.00     0.256 C 
HETATM   27  C   UNL     1      43.607 -12.172   6.616  1.00  0.00     0.077 C 
HETATM   28  H   UNL     1      44.163 -14.556   6.042  1.00  0.00     0.283 HD
HETATM   29  C   UNL     1      42.781 -15.258   4.776  1.00  0.00     0.290 C 
HETATM   30  C   UNL     1      42.753 -15.402   7.260  1.00  0.00     0.239 C 
HETATM   31  C   UNL     1      43.602 -16.528   4.649  1.00  0.00     0.055 C 
HETATM   32  N   UNL     1      43.039 -14.221   3.843  1.00  0.00    -0.331 N 
HETATM   33  C   UNL     1      43.339 -17.441   5.854  1.00  0.00     0.005 C 
HETATM   34  C   UNL     1      43.529 -16.715   7.192  1.00  0.00     0.028 C 
HETATM   35  H   UNL     1      42.994 -14.352   2.834  1.00  0.00     0.164 HD
HETATM   36  O   UNL     1      42.685 -11.913   3.778  1.00  0.00    -0.271 OA
HETATM   37  C   UNL     1      42.892 -10.974   7.241  1.00  0.00     0.238 C 
ENDBRANCH   1  20
TORSDOF 4
ENDMDL
MODEL 10
REMARK VINA RESULT:      -9.3     15.844     18.991
REMARK  4 active torsions:
REMARK  status: ('A' for Active; 'I' for Inactive)
REMARK    1  A    between atoms: N_5  and  C_6 
REMARK    2  A    between atoms: C_6  and  C_7 
REMARK    3  A    between atoms: C_7  and  C_8 
REMARK    4  A    between atoms: C_8  and  N_9 
ROOT
HETATM    1  C   UNL     1      47.657 -28.114  -0.826  1.00  0.00     0.236 C 
ENDROOT
BRANCH   1   2
HETATM    2  C   UNL     1      46.638 -28.847  -1.701  1.00  0.00     0.048 C 
BRANCH   2   3
HETATM    3  C   UNL     1      45.167 -28.671  -1.309  1.00  0.00     0.131 C 
BRANCH   3   4
HETATM    4  N   UNL     1      44.397 -29.921  -1.511  1.00  0.00    -0.346 N 
HETATM    5  C   UNL     1      44.340 -30.427  -2.836  1.00  0.00     0.041 A 
HETATM    6  C   UNL     1      44.457 -31.789  -3.185  1.00  0.00    -0.031 A 
HETATM    7  C   UNL     1      44.056 -29.521  -3.890  1.00  0.00     0.030 A 
HETATM    8  C   UNL     1      44.315 -32.178  -4.541  1.00  0.00     0.009 A 
HETATM    9  C   UNL     1      44.691 -32.931  -2.222  1.00  0.00     0.045 C 
HETATM   10  C   UNL     1      44.069 -31.255  -5.551  1.00  0.00     0.001 A 
HETATM   11  C   UNL     1      43.934 -29.920  -5.223  1.00  0.00     0.002 A 
HETATM   12  C   UNL     1      45.504 -32.601  -0.981  1.00  0.00     0.045 C 
HETATM   13  C   UNL     1      44.662 -31.855   0.017  1.00  0.00    -0.031 A 
HETATM   14  C   UNL     1      44.117 -30.602  -0.300  1.00  0.00     0.042 A 
HETATM   15  C   UNL     1      44.402 -32.442   1.270  1.00  0.00     0.011 A 
HETATM   16  C   UNL     1      43.282 -29.984   0.650  1.00  0.00     0.054 A 
HETATM   17  C   UNL     1      43.038 -30.570   1.892  1.00  0.00     0.036 A 
HETATM   18 CL   UNL     1      42.094 -29.727   3.057  1.00  0.00    -0.084 Cl
HETATM   19  C   UNL     1      43.600 -31.798   2.210  1.00  0.00     0.024 A 
ENDBRANCH   3   4
ENDBRANCH   2   3
ENDBRANCH   1   2
BRANCH   1  20
HETATM   20  N   UNL     1      48.102 -28.822   0.473  1.00  0.00    -0.071 N 
HETATM   21  H   UNL     1      49.117 -28.594   0.492  1.00  0.00     0.279 HD
HETATM   22  C   UNL     1      48.065 -30.335   0.436  1.00  0.00     0.238 C 
HETATM   23  C   UNL     1      47.766 -30.930   1.813  1.00  0.00     0.077 C 
HETATM   24  C   UNL     1      48.519 -30.204   2.920  1.00  0.00     0.212 C 
HETATM   25  N   UNL     1      48.322 -30.856   4.288  1.00  0.00    -0.032 N 
HETATM   26  C   UNL     1      50.029 -30.410   2.716  1.00  0.00     0.256 C 
HETATM   27  C   UNL     1      48.200 -28.708   2.983  1.00  0.00     0.077 C 
HETATM   28  H   UNL     1      48.631 -30.164   4.987  1.00  0.00     0.283 HD
HETATM   29  C   UNL     1      49.382 -31.913   4.369  1.00  0.00     0.290 C 
HETATM   30  C   UNL     1      46.986 -31.357   4.740  1.00  0.00     0.239 C 
HETATM   31  C   UNL     1      49.584 -32.294   5.824  1.00  0.00     0.055 C 
HETATM   32  N   UNL     1      50.462 -31.271   3.708  1.00  0.00    -0.331 N 
HETATM   33  C   UNL     1      48.258 -32.778   6.425  1.00  0.00     0.005 C 
HETATM   34  C   UNL     1      47.114 -31.780   6.201  1.00  0.00     0.028 C 
HETATM   35  H   UNL     1      51.398 -31.667   3.652  1.00  0.00     0.164 HD
HETATM   36  O   UNL     1      50.688 -29.908   1.825  1.00  0.00    -0.271 OA
HETATM   37  C   UNL     1      47.543 -28.172   1.711  1.00  0.00     0.238 C 
ENDBRANCH   1  20
TORSDOF 4
ENDMDL
