MODEL 1
REMARK VINA RESULT:      -9.0      0.000      0.000
REMARK  7 active torsions:
REMARK  status: ('A' for Active; 'I' for Inactive)
REMARK    1  A    between atoms: O_2  and  C_3 
REMARK    2  A    between atoms: C_5  and  N_6 
REMARK    3  A    between atoms: C_7  and  O_8 
REMARK    4  A    between atoms: C_7  and  C_9 
REMARK       I    between atoms: C_9  and  N_10 
REMARK    5  A    between atoms: N_10  and  C_11 
REMARK    6  A    between atoms: C_11  and  C_12 
REMARK    7  A    between atoms: C_12  and  C_13 
ROOT
HETATM    1  N   UNL     1      40.958 -12.047   4.679  1.00  0.00    -0.254 N 
HETATM    2  C   UNL     1      40.572 -13.453   4.870  1.00  0.00     0.256 C 
HETATM    3  C   UNL     1      41.489 -14.198   5.821  1.00  0.00     0.034 A 
HETATM    4  C   UNL     1      42.794 -13.743   5.967  1.00  0.00     0.048 A 
HETATM    5  N   UNL     1      43.161 -12.570   5.322  1.00  0.00    -0.308 N 
HETATM    6  C   UNL     1      42.297 -11.686   4.742  1.00  0.00     0.330 C 
HETATM    7  O   UNL     1      42.776 -10.633   4.320  1.00  0.00    -0.246 OA
HETATM    8  C   UNL     1      41.115 -15.384   6.474  1.00  0.00     0.015 A 
HETATM    9  C   UNL     1      42.037 -16.082   7.257  1.00  0.00     0.001 A 
HETATM   10  C   UNL     1      43.343 -15.613   7.382  1.00  0.00     0.002 A 
HETATM   11  C   UNL     1      43.727 -14.441   6.732  1.00  0.00     0.030 A 
HETATM   12  H   UNL     1      44.106 -12.217   5.420  1.00  0.00     0.170 HD
ENDROOT
BRANCH   2  13
HETATM   13  O   UNL     1      39.278 -13.494   5.483  1.00  0.00    -0.359 OA
HETATM   14  H   UNL     1      38.702 -13.947   4.840  1.00  0.00     0.213 HD
ENDBRANCH   2  13
BRANCH   2  15
HETATM   15  C   UNL     1      40.552 -14.221   3.483  1.00  0.00     0.279 C 
HETATM   16  N   UNL     1      41.734 -14.799   3.059  1.00  0.00    -0.356 N 
HETATM   17  H   UNL     1      42.475 -14.917   3.744  1.00  0.00     0.162 HD
HETATM   18  O   UNL     1      39.511 -14.298   2.822  1.00  0.00    -0.268 OA
BRANCH  16  19
HETATM   19  C   UNL     1      41.755 -15.640   1.878  1.00  0.00     0.127 C 
BRANCH  19  20
HETATM   20  C   UNL     1      43.115 -16.303   1.639  1.00  0.00     0.058 C 
BRANCH  20  21
HETATM   21  C   UNL     1      43.407 -17.451   2.580  1.00  0.00    -0.057 A 
HETATM   22  C   UNL     1      43.366 -18.779   2.129  1.00  0.00     0.009 A 
HETATM   23  C   UNL     1      43.648 -19.835   2.999  1.00  0.00     0.024 A 
HETATM   24  C   UNL     1      43.983 -19.570   4.323  1.00  0.00     0.034 A 
HETATM   25 CL   UNL     1      44.335 -20.868   5.394  1.00  0.00    -0.084 Cl
HETATM   26  C   UNL     1      44.041 -18.257   4.784  1.00  0.00     0.024 A 
HETATM   27  C   UNL     1      43.755 -17.200   3.915  1.00  0.00     0.009 A 
ENDBRANCH  20  21
ENDBRANCH  19  20
ENDBRANCH  16  19
ENDBRANCH   2  15
BRANCH   1  28
HETATM   28  C   UNL     1      39.986 -11.062   4.277  1.00  0.00     0.045 A 
HETATM   29  C   UNL     1      39.285 -10.265   5.199  1.00  0.00     0.066 A 
HETATM   30  C   UNL     1      38.367  -9.299   4.770  1.00  0.00     0.070 A 
HETATM   31  C   UNL     1      38.168  -9.095   3.405  1.00  0.00     0.037 A 
HETATM   32  C   UNL     1      38.848  -9.874   2.475  1.00  0.00     0.005 A 
HETATM   33  C   UNL     1      39.740 -10.856   2.911  1.00  0.00     0.030 A 
BRANCH  30  34
HETATM   34  O   UNL     1      37.617  -8.491   5.583  1.00  0.00    -0.356 OA
HETATM   35  C   UNL     1      36.870  -7.460   4.947  1.00  0.00     0.210 C 
ENDBRANCH  30  34
ENDBRANCH   1  28
TORSDOF 7
ENDMDL
MODEL 2
REMARK VINA RESULT:      -8.7      2.831      4.422
REMARK  7 active torsions:
REMARK  status: ('A' for Active; 'I' for Inactive)
REMARK    1  A    between atoms: O_2  and  C_3 
REMARK    2  A    between atoms: C_5  and  N_6 
REMARK    3  A    between atoms: C_7  and  O_8 
REMARK    4  A    between atoms: C_7  and  C_9 
REMARK       I    between atoms: C_9  and  N_10 
REMARK    5  A    between atoms: N_10  and  C_11 
REMARK    6  A    between atoms: C_11  and  C_12 
REMARK    7  A    between atoms: C_12  and  C_13 
ROOT
HETATM    1  N   UNL     1      40.059 -12.363   1.220  1.00  0.00    -0.254 N 
HETATM    2  C   UNL     1      39.879 -13.008   2.529  1.00  0.00     0.256 C 
HETATM    3  C   UNL     1      39.986 -12.037   3.690  1.00  0.00     0.034 A 
HETATM    4  C   UNL     1      40.730 -10.878   3.511  1.00  0.00     0.048 A 
HETATM    5  N   UNL     1      41.248 -10.612   2.250  1.00  0.00    -0.308 N 
HETATM    6  C   UNL     1      40.900 -11.265   1.102  1.00  0.00     0.330 C 
HETATM    7  O   UNL     1      41.361 -10.825   0.049  1.00  0.00    -0.246 OA
HETATM    8  C   UNL     1      39.460 -12.307   4.964  1.00  0.00     0.015 A 
HETATM    9  C   UNL     1      39.679 -11.422   6.022  1.00  0.00     0.001 A 
HETATM   10  C   UNL     1      40.437 -10.270   5.822  1.00  0.00     0.002 A 
HETATM   11  C   UNL     1      40.970  -9.997   4.564  1.00  0.00     0.030 A 
HETATM   12  H   UNL     1      41.789  -9.770   2.096  1.00  0.00     0.170 HD
ENDROOT
BRANCH   2  13
HETATM   13  O   UNL     1      38.551 -13.538   2.600  1.00  0.00    -0.359 OA
HETATM   14  H   UNL     1      37.990 -12.792   2.884  1.00  0.00     0.213 HD
ENDBRANCH   2  13
BRANCH   2  15
HETATM   15  C   UNL     1      40.947 -14.161   2.736  1.00  0.00     0.279 C 
HETATM   16  N   UNL     1      42.183 -13.997   2.138  1.00  0.00    -0.356 N 
HETATM   17  H   UNL     1      42.432 -13.068   1.812  1.00  0.00     0.162 HD
HETATM   18  O   UNL     1      40.674 -15.157   3.414  1.00  0.00    -0.268 OA
BRANCH  16  19
HETATM   19  C   UNL     1      43.255 -14.936   2.406  1.00  0.00     0.127 C 
BRANCH  19  20
HETATM   20  C   UNL     1      43.034 -16.301   1.749  1.00  0.00     0.058 C 
BRANCH  20  21
HETATM   21  C   UNL     1      43.371 -17.472   2.647  1.00  0.00    -0.057 A 
HETATM   22  C   UNL     1      43.351 -18.786   2.154  1.00  0.00     0.009 A 
HETATM   23  C   UNL     1      43.673 -19.861   2.984  1.00  0.00     0.024 A 
HETATM   24  C   UNL     1      44.028 -19.630   4.310  1.00  0.00     0.034 A 
HETATM   25 CL   UNL     1      44.431 -20.954   5.332  1.00  0.00    -0.084 Cl
HETATM   26  C   UNL     1      44.067 -18.332   4.812  1.00  0.00     0.024 A 
HETATM   27  C   UNL     1      43.739 -17.255   3.983  1.00  0.00     0.009 A 
ENDBRANCH  20  21
ENDBRANCH  19  20
ENDBRANCH  16  19
ENDBRANCH   2  15
BRANCH   1  28
HETATM   28  C   UNL     1      39.495 -12.943   0.027  1.00  0.00     0.045 A 
HETATM   29  C   UNL     1      38.472 -12.322  -0.711  1.00  0.00     0.066 A 
HETATM   30  C   UNL     1      37.967 -12.903  -1.880  1.00  0.00     0.070 A 
HETATM   31  C   UNL     1      38.510 -14.100  -2.345  1.00  0.00     0.037 A 
HETATM   32  C   UNL     1      39.520 -14.734  -1.630  1.00  0.00     0.005 A 
HETATM   33  C   UNL     1      39.999 -14.164  -0.448  1.00  0.00     0.030 A 
BRANCH  30  34
HETATM   34  O   UNL     1      36.958 -12.395  -2.655  1.00  0.00    -0.356 OA
HETATM   35  C   UNL     1      36.699 -11.001  -2.535  1.00  0.00     0.210 C 
ENDBRANCH  30  34
ENDBRANCH   1  28
TORSDOF 7
ENDMDL
MODEL 3
REMARK VINA RESULT:      -8.5      3.572      6.070
REMARK  7 active torsions:
REMARK  status: ('A' for Active; 'I' for Inactive)
REMARK    1  A    between atoms: O_2  and  C_3 
REMARK    2  A    between atoms: C_5  and  N_6 
REMARK    3  A    between atoms: C_7  and  O_8 
REMARK    4  A    between atoms: C_7  and  C_9 
REMARK       I    between atoms: C_9  and  N_10 
REMARK    5  A    between atoms: N_10  and  C_11 
REMARK    6  A    between atoms: C_11  and  C_12 
REMARK    7  A    between atoms: C_12  and  C_13 
ROOT
HETATM    1  N   UNL     1      42.999 -12.591   4.840  1.00  0.00    -0.254 N 
HETATM    2  C   UNL     1      42.029 -13.697   4.849  1.00  0.00     0.256 C 
HETATM    3  C   UNL     1      42.383 -14.806   3.876  1.00  0.00     0.034 A 
HETATM    4  C   UNL     1      43.161 -14.487   2.770  1.00  0.00     0.048 A 
HETATM    5  N   UNL     1      43.665 -13.198   2.665  1.00  0.00    -0.308 N 
HETATM    6  C   UNL     1      43.665 -12.268   3.666  1.00  0.00     0.330 C 
HETATM    7  O   UNL     1      44.262 -11.214   3.448  1.00  0.00    -0.246 OA
HETATM    8  C   UNL     1      41.874 -16.111   3.984  1.00  0.00     0.015 A 
HETATM    9  C   UNL     1      42.152 -17.063   3.002  1.00  0.00     0.001 A 
HETATM   10  C   UNL     1      42.926 -16.719   1.896  1.00  0.00     0.002 A 
HETATM   11  C   UNL     1      43.430 -15.425   1.775  1.00  0.00     0.030 A 
HETATM   12  H   UNL     1      44.238 -12.945   1.870  1.00  0.00     0.170 HD
ENDROOT
BRANCH   2  13
HETATM   13  O   UNL     1      42.043 -14.309   6.142  1.00  0.00    -0.359 OA
HETATM   14  H   UNL     1      41.310 -14.952   6.132  1.00  0.00     0.213 HD
ENDBRANCH   2  13
BRANCH   2  15
HETATM   15  C   UNL     1      40.576 -13.167   4.502  1.00  0.00     0.279 C 
HETATM   16  N   UNL     1      40.404 -12.529   3.288  1.00  0.00    -0.356 N 
HETATM   17  H   UNL     1      41.130 -12.641   2.587  1.00  0.00     0.162 HD
HETATM   18  O   UNL     1      39.641 -13.334   5.293  1.00  0.00    -0.268 OA
BRANCH  16  19
HETATM   19  C   UNL     1      39.077 -12.152   2.841  1.00  0.00     0.127 C 
BRANCH  19  20
HETATM   20  C   UNL     1      39.085 -11.403   1.506  1.00  0.00     0.058 C 
BRANCH  20  21
HETATM   21  C   UNL     1      38.937 -12.304   0.299  1.00  0.00    -0.057 A 
HETATM   22  C   UNL     1      38.030 -11.992  -0.725  1.00  0.00     0.009 A 
HETATM   23  C   UNL     1      37.906 -12.822  -1.841  1.00  0.00     0.024 A 
HETATM   24  C   UNL     1      38.697 -13.963  -1.947  1.00  0.00     0.034 A 
HETATM   25 CL   UNL     1      38.549 -14.983  -3.324  1.00  0.00    -0.084 Cl
HETATM   26  C   UNL     1      39.612 -14.280  -0.946  1.00  0.00     0.024 A 
HETATM   27  C   UNL     1      39.733 -13.453   0.174  1.00  0.00     0.009 A 
ENDBRANCH  20  21
ENDBRANCH  19  20
ENDBRANCH  16  19
ENDBRANCH   2  15
BRANCH   1  28
HETATM   28  C   UNL     1      43.158 -11.741   5.992  1.00  0.00     0.045 A 
HETATM   29  C   UNL     1      44.240 -11.859   6.882  1.00  0.00     0.066 A 
HETATM   30  C   UNL     1      44.376 -10.996   7.976  1.00  0.00     0.070 A 
HETATM   31  C   UNL     1      43.445  -9.976   8.170  1.00  0.00     0.037 A 
HETATM   32  C   UNL     1      42.365  -9.842   7.304  1.00  0.00     0.005 A 
HETATM   33  C   UNL     1      42.219 -10.725   6.232  1.00  0.00     0.030 A 
BRANCH  30  34
HETATM   34  O   UNL     1      45.374 -11.043   8.913  1.00  0.00    -0.356 OA
HETATM   35  C   UNL     1      45.216 -10.213  10.058  1.00  0.00     0.210 C 
ENDBRANCH  30  34
ENDBRANCH   1  28
TORSDOF 7
ENDMDL
MODEL 4
REMARK VINA RESULT:      -8.5      2.179      4.179
REMARK  7 active torsions:
REMARK  status: ('A' for Active; 'I' for Inactive)
REMARK    1  A    between atoms: O_2  and  C_3 
REMARK    2  A    between atoms: C_5  and  N_6 
REMARK    3  A    between atoms: C_7  and  O_8 
REMARK    4  A    between atoms: C_7  and  C_9 
REMARK       I    between atoms: C_9  and  N_10 
REMARK    5  A    between atoms: N_10  and  C_11 
REMARK    6  A    between atoms: C_11  and  C_12 
REMARK    7  A    between atoms: C_12  and  C_13 
ROOT
HETATM    1  N   UNL     1      41.242 -12.145   5.201  1.00  0.00    -0.254 N 
HETATM    2  C   UNL     1      42.353 -12.820   4.514  1.00  0.00     0.256 C 
HETATM    3  C   UNL     1      41.888 -13.809   3.462  1.00  0.00     0.034 A 
HETATM    4  C   UNL     1      40.627 -14.375   3.603  1.00  0.00     0.048 A 
HETATM    5  N   UNL     1      39.814 -13.930   4.636  1.00  0.00    -0.308 N 
HETATM    6  C   UNL     1      40.042 -12.816   5.393  1.00  0.00     0.330 C 
HETATM    7  O   UNL     1      39.159 -12.492   6.187  1.00  0.00    -0.246 OA
HETATM    8  C   UNL     1      42.711 -14.258   2.415  1.00  0.00     0.015 A 
HETATM    9  C   UNL     1      42.264 -15.247   1.537  1.00  0.00     0.001 A 
HETATM   10  C   UNL     1      41.000 -15.808   1.704  1.00  0.00     0.002 A 
HETATM   11  C   UNL     1      40.178 -15.376   2.743  1.00  0.00     0.030 A 
HETATM   12  H   UNL     1      38.889 -14.325   4.755  1.00  0.00     0.170 HD
ENDROOT
BRANCH   2  13
HETATM   13  O   UNL     1      43.114 -11.840   3.801  1.00  0.00    -0.359 OA
HETATM   14  H   UNL     1      43.598 -12.336   3.115  1.00  0.00     0.213 HD
ENDBRANCH   2  13
BRANCH   2  15
HETATM   15  C   UNL     1      43.272 -13.586   5.554  1.00  0.00     0.279 C 
HETATM   16  N   UNL     1      43.004 -14.924   5.776  1.00  0.00    -0.356 N 
HETATM   17  H   UNL     1      42.412 -15.405   5.105  1.00  0.00     0.162 HD
HETATM   18  O   UNL     1      44.194 -12.997   6.131  1.00  0.00    -0.268 OA
BRANCH  16  19
HETATM   19  C   UNL     1      43.892 -15.721   6.599  1.00  0.00     0.127 C 
BRANCH  19  20
HETATM   20  C   UNL     1      43.409 -17.163   6.779  1.00  0.00     0.058 C 
BRANCH  20  21
HETATM   21  C   UNL     1      43.554 -18.015   5.537  1.00  0.00    -0.057 A 
HETATM   22  C   UNL     1      43.438 -17.447   4.259  1.00  0.00     0.009 A 
HETATM   23  C   UNL     1      43.584 -18.236   3.115  1.00  0.00     0.024 A 
HETATM   24  C   UNL     1      43.856 -19.595   3.241  1.00  0.00     0.034 A 
HETATM   25 CL   UNL     1      44.041 -20.565   1.834  1.00  0.00    -0.084 Cl
HETATM   26  C   UNL     1      43.988 -20.171   4.502  1.00  0.00     0.024 A 
HETATM   27  C   UNL     1      43.837 -19.384   5.647  1.00  0.00     0.009 A 
ENDBRANCH  20  21
ENDBRANCH  19  20
ENDBRANCH  16  19
ENDBRANCH   2  15
BRANCH   1  28
HETATM   28  C   UNL     1      41.428 -10.855   5.814  1.00  0.00     0.045 A 
HETATM   29  C   UNL     1      42.080 -10.684   7.047  1.00  0.00     0.066 A 
HETATM   30  C   UNL     1      42.266  -9.411   7.599  1.00  0.00     0.070 A 
HETATM   31  C   UNL     1      41.832  -8.286   6.898  1.00  0.00     0.037 A 
HETATM   32  C   UNL     1      41.181  -8.431   5.677  1.00  0.00     0.005 A 
HETATM   33  C   UNL     1      40.973  -9.706   5.148  1.00  0.00     0.030 A 
BRANCH  30  34
HETATM   34  O   UNL     1      42.863  -9.139   8.801  1.00  0.00    -0.356 OA
HETATM   35  C   UNL     1      43.875 -10.042   9.231  1.00  0.00     0.210 C 
ENDBRANCH  30  34
ENDBRANCH   1  28
TORSDOF 7
ENDMDL
MODEL 5
REMARK VINA RESULT:      -8.5      4.464      8.037
REMARK  7 active torsions:
REMARK  status: ('A' for Active; 'I' for Inactive)
REMARK    1  A    between atoms: O_2  and  C_3 
REMARK    2  A    between atoms: C_5  and  N_6 
REMARK    3  A    between atoms: C_7  and  O_8 
REMARK    4  A    between atoms: C_7  and  C_9 
REMARK       I    between atoms: C_9  and  N_10 
REMARK    5  A    between atoms: N_10  and  C_11 
REMARK    6  A    between atoms: C_11  and  C_12 
REMARK    7  A    between atoms: C_12  and  C_13 
ROOT
HETATM    1  N   UNL     1      42.104 -12.197   4.614  1.00  0.00    -0.254 N 
HETATM    2  C   UNL     1      42.042 -11.814   6.032  1.00  0.00     0.256 C 
HETATM    3  C   UNL     1      41.590 -10.381   6.243  1.00  0.00     0.034 A 
HETATM    4  C   UNL     1      41.805  -9.467   5.219  1.00  0.00     0.048 A 
HETATM    5  N   UNL     1      42.323  -9.930   4.017  1.00  0.00    -0.308 N 
HETATM    6  C   UNL     1      42.425 -11.243   3.657  1.00  0.00     0.330 C 
HETATM    7  O   UNL     1      42.792 -11.479   2.506  1.00  0.00    -0.246 OA
HETATM    8  C   UNL     1      41.064  -9.915   7.459  1.00  0.00     0.015 A 
HETATM    9  C   UNL     1      40.762  -8.562   7.627  1.00  0.00     0.001 A 
HETATM   10  C   UNL     1      40.995  -7.661   6.591  1.00  0.00     0.002 A 
HETATM   11  C   UNL     1      41.523  -8.112   5.382  1.00  0.00     0.030 A 
HETATM   12  H   UNL     1      42.483  -9.282   3.255  1.00  0.00     0.170 HD
ENDROOT
BRANCH   2  13
HETATM   13  O   UNL     1      41.053 -12.621   6.682  1.00  0.00    -0.359 OA
HETATM   14  H   UNL     1      40.195 -12.242   6.416  1.00  0.00     0.213 HD
ENDBRANCH   2  13
BRANCH   2  15
HETATM   15  C   UNL     1      43.455 -12.004   6.725  1.00  0.00     0.279 C 
HETATM   16  N   UNL     1      44.416 -11.041   6.484  1.00  0.00    -0.356 N 
HETATM   17  H   UNL     1      44.111 -10.156   6.089  1.00  0.00     0.162 HD
HETATM   18  O   UNL     1      43.670 -12.977   7.457  1.00  0.00    -0.268 OA
BRANCH  16  19
HETATM   19  C   UNL     1      45.677 -11.070   7.199  1.00  0.00     0.127 C 
BRANCH  19  20
HETATM   20  C   UNL     1      46.073  -9.706   7.771  1.00  0.00     0.058 C 
BRANCH  20  21
HETATM   21  C   UNL     1      45.132  -9.198   8.842  1.00  0.00    -0.057 A 
HETATM   22  C   UNL     1      45.029  -9.853  10.079  1.00  0.00     0.009 A 
HETATM   23  C   UNL     1      44.167  -9.373  11.067  1.00  0.00     0.024 A 
HETATM   24  C   UNL     1      43.411  -8.229  10.831  1.00  0.00     0.034 A 
HETATM   25 CL   UNL     1      42.354  -7.634  12.050  1.00  0.00    -0.084 Cl
HETATM   26  C   UNL     1      43.511  -7.559   9.614  1.00  0.00     0.024 A 
HETATM   27  C   UNL     1      44.370  -8.041   8.622  1.00  0.00     0.009 A 
ENDBRANCH  20  21
ENDBRANCH  19  20
ENDBRANCH  16  19
ENDBRANCH   2  15
BRANCH   1  28
HETATM   28  C   UNL     1      41.986 -13.576   4.215  1.00  0.00     0.045 A 
HETATM   29  C   UNL     1      43.033 -14.503   4.361  1.00  0.00     0.066 A 
HETATM   30  C   UNL     1      42.874 -15.842   3.987  1.00  0.00     0.070 A 
HETATM   31  C   UNL     1      41.644 -16.279   3.496  1.00  0.00     0.037 A 
HETATM   32  C   UNL     1      40.594 -15.379   3.340  1.00  0.00     0.005 A 
HETATM   33  C   UNL     1      40.770 -14.038   3.687  1.00  0.00     0.030 A 
BRANCH  30  34
HETATM   34  O   UNL     1      43.835 -16.815   4.064  1.00  0.00    -0.356 OA
HETATM   35  C   UNL     1      43.926 -17.528   5.292  1.00  0.00     0.210 C 
ENDBRANCH  30  34
ENDBRANCH   1  28
TORSDOF 7
ENDMDL
MODEL 6
REMARK VINA RESULT:      -8.3      4.016      8.115
REMARK  7 active torsions:
REMARK  status: ('A' for Active; 'I' for Inactive)
REMARK    1  A    between atoms: O_2  and  C_3 
REMARK    2  A    between atoms: C_5  and  N_6 
REMARK    3  A    between atoms: C_7  and  O_8 
REMARK    4  A    between atoms: C_7  and  C_9 
REMARK       I    between atoms: C_9  and  N_10 
REMARK    5  A    between atoms: N_10  and  C_11 
REMARK    6  A    between atoms: C_11  and  C_12 
REMARK    7  A    between atoms: C_12  and  C_13 
ROOT
HETATM    1  N   UNL     1      42.408 -14.896   3.476  1.00  0.00    -0.254 N 
HETATM    2  C   UNL     1      41.611 -14.427   4.620  1.00  0.00     0.256 C 
HETATM    3  C   UNL     1      40.837 -13.156   4.324  1.00  0.00     0.034 A 
HETATM    4  C   UNL     1      41.321 -12.307   3.336  1.00  0.00     0.048 A 
HETATM    5  N   UNL     1      42.423 -12.712   2.597  1.00  0.00    -0.308 N 
HETATM    6  C   UNL     1      42.943 -13.975   2.585  1.00  0.00     0.330 C 
HETATM    7  O   UNL     1      43.847 -14.199   1.780  1.00  0.00    -0.246 OA
HETATM    8  C   UNL     1      39.720 -12.748   5.072  1.00  0.00     0.015 A 
HETATM    9  C   UNL     1      39.111 -11.517   4.820  1.00  0.00     0.001 A 
HETATM   10  C   UNL     1      39.618 -10.677   3.831  1.00  0.00     0.002 A 
HETATM   11  C   UNL     1      40.731 -11.069   3.088  1.00  0.00     0.030 A 
HETATM   12  H   UNL     1      42.790 -12.110   1.869  1.00  0.00     0.170 HD
ENDROOT
BRANCH   2  13
HETATM   13  O   UNL     1      40.618 -15.413   4.921  1.00  0.00    -0.359 OA
HETATM   14  H   UNL     1      40.048 -15.456   4.131  1.00  0.00     0.213 HD
ENDBRANCH   2  13
BRANCH   2  15
HETATM   15  C   UNL     1      42.538 -14.171   5.879  1.00  0.00     0.279 C 
HETATM   16  N   UNL     1      43.386 -13.080   5.834  1.00  0.00    -0.356 N 
HETATM   17  H   UNL     1      43.209 -12.372   5.128  1.00  0.00     0.162 HD
HETATM   18  O   UNL     1      42.487 -14.921   6.860  1.00  0.00    -0.268 OA
BRANCH  16  19
HETATM   19  C   UNL     1      44.152 -12.699   7.005  1.00  0.00     0.127 C 
BRANCH  19  20
HETATM   20  C   UNL     1      44.582 -11.230   6.989  1.00  0.00     0.058 C 
BRANCH  20  21
HETATM   21  C   UNL     1      44.353 -10.513   8.301  1.00  0.00    -0.057 A 
HETATM   22  C   UNL     1      45.406 -10.319   9.208  1.00  0.00     0.009 A 
HETATM   23  C   UNL     1      45.191  -9.647  10.414  1.00  0.00     0.024 A 
HETATM   24  C   UNL     1      43.925  -9.154  10.716  1.00  0.00     0.034 A 
HETATM   25 CL   UNL     1      43.661  -8.322  12.197  1.00  0.00    -0.084 Cl
HETATM   26  C   UNL     1      42.872  -9.327   9.821  1.00  0.00     0.024 A 
HETATM   27  C   UNL     1      43.084 -10.003   8.617  1.00  0.00     0.009 A 
ENDBRANCH  20  21
ENDBRANCH  19  20
ENDBRANCH  16  19
ENDBRANCH   2  15
BRANCH   1  28
HETATM   28  C   UNL     1      42.771 -16.284   3.349  1.00  0.00     0.045 A 
HETATM   29  C   UNL     1      43.536 -16.963   4.313  1.00  0.00     0.066 A 
HETATM   30  C   UNL     1      43.847 -18.320   4.168  1.00  0.00     0.070 A 
HETATM   31  C   UNL     1      43.358 -19.025   3.069  1.00  0.00     0.037 A 
HETATM   32  C   UNL     1      42.602 -18.374   2.100  1.00  0.00     0.005 A 
HETATM   33  C   UNL     1      42.321 -17.013   2.236  1.00  0.00     0.030 A 
BRANCH  30  34
HETATM   34  O   UNL     1      44.603 -19.065   5.033  1.00  0.00    -0.356 OA
HETATM   35  C   UNL     1      44.356 -20.466   5.056  1.00  0.00     0.210 C 
ENDBRANCH  30  34
ENDBRANCH   1  28
TORSDOF 7
ENDMDL
MODEL 7
REMARK VINA RESULT:      -8.2      2.305      4.313
REMARK  7 active torsions:
REMARK  status: ('A' for Active; 'I' for Inactive)
REMARK    1  A    between atoms: O_2  and  C_3 
REMARK    2  A    between atoms: C_5  and  N_6 
REMARK    3  A    between atoms: C_7  and  O_8 
REMARK    4  A    between atoms: C_7  and  C_9 
REMARK       I    between atoms: C_9  and  N_10 
REMARK    5  A    between atoms: N_10  and  C_11 
REMARK    6  A    between atoms: C_11  and  C_12 
REMARK    7  A    between atoms: C_12  and  C_13 
ROOT
HETATM    1  N   UNL     1      40.899 -12.266   3.095  1.00  0.00    -0.254 N 
HETATM    2  C   UNL     1      40.198 -12.632   4.335  1.00  0.00     0.256 C 
HETATM    3  C   UNL     1      40.204 -11.523   5.371  1.00  0.00     0.034 A 
HETATM    4  C   UNL     1      41.231 -10.588   5.327  1.00  0.00     0.048 A 
HETATM    5  N   UNL     1      42.137 -10.649   4.277  1.00  0.00    -0.308 N 
HETATM    6  C   UNL     1      41.983 -11.400   3.146  1.00  0.00     0.330 C 
HETATM    7  O   UNL     1      42.820 -11.246   2.257  1.00  0.00    -0.246 OA
HETATM    8  C   UNL     1      39.285 -11.461   6.432  1.00  0.00     0.015 A 
HETATM    9  C   UNL     1      39.403 -10.475   7.414  1.00  0.00     0.001 A 
HETATM   10  C   UNL     1      40.447  -9.554   7.355  1.00  0.00     0.002 A 
HETATM   11  C   UNL     1      41.369  -9.611   6.311  1.00  0.00     0.030 A 
HETATM   12  H   UNL     1      42.891  -9.974   4.222  1.00  0.00     0.170 HD
ENDROOT
BRANCH   2  13
HETATM   13  O   UNL     1      38.817 -12.857   4.031  1.00  0.00    -0.359 OA
HETATM   14  H   UNL     1      38.415 -11.970   3.982  1.00  0.00     0.213 HD
ENDBRANCH   2  13
BRANCH   2  15
HETATM   15  C   UNL     1      40.843 -13.927   4.981  1.00  0.00     0.279 C 
HETATM   16  N   UNL     1      42.031 -13.771   5.670  1.00  0.00    -0.356 N 
HETATM   17  H   UNL     1      42.303 -12.830   5.936  1.00  0.00     0.162 HD
HETATM   18  O   UNL     1      40.289 -15.027   4.870  1.00  0.00    -0.268 OA
BRANCH  16  19
HETATM   19  C   UNL     1      42.600 -14.881   6.409  1.00  0.00     0.127 C 
BRANCH  19  20
HETATM   20  C   UNL     1      43.932 -15.368   5.831  1.00  0.00     0.058 C 
BRANCH  20  21
HETATM   21  C   UNL     1      43.790 -16.517   4.857  1.00  0.00    -0.057 A 
HETATM   22  C   UNL     1      43.298 -16.304   3.560  1.00  0.00     0.009 A 
HETATM   23  C   UNL     1      43.180 -17.366   2.661  1.00  0.00     0.024 A 
HETATM   24  C   UNL     1      43.564 -18.646   3.048  1.00  0.00     0.034 A 
HETATM   25 CL   UNL     1      43.424 -19.954   1.940  1.00  0.00    -0.084 Cl
HETATM   26  C   UNL     1      44.068 -18.873   4.327  1.00  0.00     0.024 A 
HETATM   27  C   UNL     1      44.181 -17.811   5.229  1.00  0.00     0.009 A 
ENDBRANCH  20  21
ENDBRANCH  19  20
ENDBRANCH  16  19
ENDBRANCH   2  15
BRANCH   1  28
HETATM   28  C   UNL     1      40.576 -12.909   1.847  1.00  0.00     0.045 A 
HETATM   29  C   UNL     1      39.803 -12.289   0.849  1.00  0.00     0.066 A 
HETATM   30  C   UNL     1      39.531 -12.936  -0.362  1.00  0.00     0.070 A 
HETATM   31  C   UNL     1      40.066 -14.201  -0.604  1.00  0.00     0.037 A 
HETATM   32  C   UNL     1      40.830 -14.834   0.370  1.00  0.00     0.005 A 
HETATM   33  C   UNL     1      41.072 -14.196   1.588  1.00  0.00     0.030 A 
BRANCH  30  34
HETATM   34  O   UNL     1      38.771 -12.432  -1.385  1.00  0.00    -0.356 OA
HETATM   35  C   UNL     1      38.783 -13.159  -2.608  1.00  0.00     0.210 C 
ENDBRANCH  30  34
ENDBRANCH   1  28
TORSDOF 7
ENDMDL
MODEL 8
REMARK VINA RESULT:      -8.0      4.016      6.669
REMARK  7 active torsions:
REMARK  status: ('A' for Active; 'I' for Inactive)
REMARK    1  A    between atoms: O_2  and  C_3 
REMARK    2  A    between atoms: C_5  and  N_6 
REMARK    3  A    between atoms: C_7  and  O_8 
REMARK    4  A    between atoms: C_7  and  C_9 
REMARK       I    between atoms: C_9  and  N_10 
REMARK    5  A    between atoms: N_10  and  C_11 
REMARK    6  A    between atoms: C_11  and  C_12 
REMARK    7  A    between atoms: C_12  and  C_13 
ROOT
HETATM    1  N   UNL     1      41.034 -12.101   4.906  1.00  0.00    -0.254 N 
HETATM    2  C   UNL     1      42.347 -12.454   4.343  1.00  0.00     0.256 C 
HETATM    3  C   UNL     1      42.308 -13.700   3.479  1.00  0.00     0.034 A 
HETATM    4  C   UNL     1      41.309 -14.636   3.720  1.00  0.00     0.048 A 
HETATM    5  N   UNL     1      40.335 -14.336   4.663  1.00  0.00    -0.308 N 
HETATM    6  C   UNL     1      40.125 -13.105   5.215  1.00  0.00     0.330 C 
HETATM    7  O   UNL     1      39.141 -12.980   5.943  1.00  0.00    -0.246 OA
HETATM    8  C   UNL     1      43.293 -14.002   2.524  1.00  0.00     0.015 A 
HETATM    9  C   UNL     1      43.261 -15.214   1.833  1.00  0.00     0.001 A 
HETATM   10  C   UNL     1      42.257 -16.142   2.097  1.00  0.00     0.002 A 
HETATM   11  C   UNL     1      41.278 -15.857   3.048  1.00  0.00     0.030 A 
HETATM   12  H   UNL     1      39.595 -15.002   4.851  1.00  0.00     0.170 HD
ENDROOT
BRANCH   2  13
HETATM   13  O   UNL     1      42.767 -11.401   3.468  1.00  0.00    -0.359 OA
HETATM   14  H   UNL     1      43.738 -11.365   3.555  1.00  0.00     0.213 HD
ENDBRANCH   2  13
BRANCH   2  15
HETATM   15  C   UNL     1      43.410 -12.673   5.497  1.00  0.00     0.279 C 
HETATM   16  N   UNL     1      44.329 -11.664   5.716  1.00  0.00    -0.356 N 
HETATM   17  H   UNL     1      44.137 -10.753   5.310  1.00  0.00     0.162 HD
HETATM   18  O   UNL     1      43.399 -13.708   6.173  1.00  0.00    -0.268 OA
BRANCH  16  19
HETATM   19  C   UNL     1      45.233 -11.731   6.848  1.00  0.00     0.127 C 
BRANCH  19  20
HETATM   20  C   UNL     1      45.792 -10.363   7.250  1.00  0.00     0.058 C 
BRANCH  20  21
HETATM   21  C   UNL     1      45.126  -9.768   8.472  1.00  0.00    -0.057 A 
HETATM   22  C   UNL     1      44.333  -8.615   8.370  1.00  0.00     0.009 A 
HETATM   23  C   UNL     1      43.712  -8.077   9.499  1.00  0.00     0.024 A 
HETATM   24  C   UNL     1      43.870  -8.694  10.736  1.00  0.00     0.034 A 
HETATM   25 CL   UNL     1      43.101  -8.036  12.126  1.00  0.00    -0.084 Cl
HETATM   26  C   UNL     1      44.642  -9.847  10.853  1.00  0.00     0.024 A 
HETATM   27  C   UNL     1      45.268 -10.384   9.725  1.00  0.00     0.009 A 
ENDBRANCH  20  21
ENDBRANCH  19  20
ENDBRANCH  16  19
ENDBRANCH   2  15
BRANCH   1  28
HETATM   28  C   UNL     1      40.734 -10.744   5.284  1.00  0.00     0.045 A 
HETATM   29  C   UNL     1      39.968  -9.882   4.481  1.00  0.00     0.066 A 
HETATM   30  C   UNL     1      39.673  -8.577   4.894  1.00  0.00     0.070 A 
HETATM   31  C   UNL     1      40.113  -8.133   6.140  1.00  0.00     0.037 A 
HETATM   32  C   UNL     1      40.875  -8.967   6.951  1.00  0.00     0.005 A 
HETATM   33  C   UNL     1      41.191 -10.257   6.519  1.00  0.00     0.030 A 
BRANCH  30  34
HETATM   34  O   UNL     1      38.960  -7.653   4.178  1.00  0.00    -0.356 OA
HETATM   35  C   UNL     1      38.610  -6.451   4.854  1.00  0.00     0.210 C 
ENDBRANCH  30  34
ENDBRANCH   1  28
TORSDOF 7
ENDMDL
MODEL 9
REMARK VINA RESULT:      -8.0      4.086      7.919
REMARK  7 active torsions:
REMARK  status: ('A' for Active; 'I' for Inactive)
REMARK    1  A    between atoms: O_2  and  C_3 
REMARK    2  A    between atoms: C_5  and  N_6 
REMARK    3  A    between atoms: C_7  and  O_8 
REMARK    4  A    between atoms: C_7  and  C_9 
REMARK       I    between atoms: C_9  and  N_10 
REMARK    5  A    between atoms: N_10  and  C_11 
REMARK    6  A    between atoms: C_11  and  C_12 
REMARK    7  A    between atoms: C_12  and  C_13 
ROOT
HETATM    1  N   UNL     1      41.588 -15.213   4.615  1.00  0.00    -0.254 N 
HETATM    2  C   UNL     1      41.667 -13.970   3.832  1.00  0.00     0.256 C 
HETATM    3  C   UNL     1      41.166 -12.756   4.591  1.00  0.00     0.034 A 
HETATM    4  C   UNL     1      40.244 -12.953   5.612  1.00  0.00     0.048 A 
HETATM    5  N   UNL     1      39.908 -14.255   5.958  1.00  0.00    -0.308 N 
HETATM    6  C   UNL     1      40.574 -15.375   5.549  1.00  0.00     0.330 C 
HETATM    7  O   UNL     1      40.222 -16.445   6.046  1.00  0.00    -0.246 OA
HETATM    8  C   UNL     1      41.509 -11.439   4.241  1.00  0.00     0.015 A 
HETATM    9  C   UNL     1      40.935 -10.357   4.911  1.00  0.00     0.001 A 
HETATM   10  C   UNL     1      40.005 -10.577   5.925  1.00  0.00     0.002 A 
HETATM   11  C   UNL     1      39.653 -11.879   6.275  1.00  0.00     0.030 A 
HETATM   12  H   UNL     1      39.242 -14.421   6.702  1.00  0.00     0.170 HD
ENDROOT
BRANCH   2  13
HETATM   13  O   UNL     1      43.042 -13.696   3.545  1.00  0.00    -0.359 OA
HETATM   14  H   UNL     1      43.533 -14.478   3.859  1.00  0.00     0.213 HD
ENDBRANCH   2  13
BRANCH   2  15
HETATM   15  C   UNL     1      40.836 -14.103   2.489  1.00  0.00     0.279 C 
HETATM   16  N   UNL     1      41.430 -13.651   1.326  1.00  0.00    -0.356 N 
HETATM   17  H   UNL     1      42.432 -13.487   1.339  1.00  0.00     0.162 HD
HETATM   18  O   UNL     1      39.704 -14.601   2.496  1.00  0.00    -0.268 OA
BRANCH  16  19
HETATM   19  C   UNL     1      40.792 -13.875   0.043  1.00  0.00     0.127 C 
BRANCH  19  20
HETATM   20  C   UNL     1      40.630 -12.592  -0.778  1.00  0.00     0.058 C 
BRANCH  20  21
HETATM   21  C   UNL     1      39.298 -12.488  -1.489  1.00  0.00    -0.057 A 
HETATM   22  C   UNL     1      38.731 -11.236  -1.773  1.00  0.00     0.009 A 
HETATM   23  C   UNL     1      37.507 -11.146  -2.440  1.00  0.00     0.024 A 
HETATM   24  C   UNL     1      36.848 -12.305  -2.838  1.00  0.00     0.034 A 
HETATM   25 CL   UNL     1      35.343 -12.194  -3.663  1.00  0.00    -0.084 Cl
HETATM   26  C   UNL     1      37.403 -13.555  -2.576  1.00  0.00     0.024 A 
HETATM   27  C   UNL     1      38.626 -13.647  -1.904  1.00  0.00     0.009 A 
ENDBRANCH  20  21
ENDBRANCH  19  20
ENDBRANCH  16  19
ENDBRANCH   2  15
BRANCH   1  28
HETATM   28  C   UNL     1      42.455 -16.326   4.323  1.00  0.00     0.045 A 
HETATM   29  C   UNL     1      42.301 -17.131   3.182  1.00  0.00     0.066 A 
HETATM   30  C   UNL     1      43.179 -18.189   2.917  1.00  0.00     0.070 A 
HETATM   31  C   UNL     1      44.250 -18.427   3.777  1.00  0.00     0.037 A 
HETATM   32  C   UNL     1      44.421 -17.645   4.914  1.00  0.00     0.005 A 
HETATM   33  C   UNL     1      43.523 -16.611   5.188  1.00  0.00     0.030 A 
BRANCH  30  34
HETATM   34  O   UNL     1      43.102 -19.046   1.851  1.00  0.00    -0.356 OA
HETATM   35  C   UNL     1      43.516 -20.388   2.078  1.00  0.00     0.210 C 
ENDBRANCH  30  34
ENDBRANCH   1  28
TORSDOF 7
ENDMDL
MODEL 10
REMARK VINA RESULT:      -8.0      3.512      7.730
REMARK  7 active torsions:
REMARK  status: ('A' for Active; 'I' for Inactive)
REMARK    1  A    between atoms: O_2  and  C_3 
REMARK    2  A    between atoms: C_5  and  N_6 
REMARK    3  A    between atoms: C_7  and  O_8 
REMARK    4  A    between atoms: C_7  and  C_9 
REMARK       I    between atoms: C_9  and  N_10 
REMARK    5  A    between atoms: N_10  and  C_11 
REMARK    6  A    between atoms: C_11  and  C_12 
REMARK    7  A    between atoms: C_12  and  C_13 
ROOT
HETATM    1  N   UNL     1      41.485 -15.260   4.295  1.00  0.00    -0.254 N 
HETATM    2  C   UNL     1      41.410 -14.176   3.303  1.00  0.00     0.256 C 
HETATM    3  C   UNL     1      40.885 -12.876   3.883  1.00  0.00     0.034 A 
HETATM    4  C   UNL     1      40.065 -12.939   5.002  1.00  0.00     0.048 A 
HETATM    5  N   UNL     1      39.854 -14.174   5.599  1.00  0.00    -0.308 N 
HETATM    6  C   UNL     1      40.564 -15.310   5.332  1.00  0.00     0.330 C 
HETATM    7  O   UNL     1      40.332 -16.291   6.038  1.00  0.00    -0.246 OA
HETATM    8  C   UNL     1      41.102 -11.626   3.279  1.00  0.00     0.015 A 
HETATM    9  C   UNL     1      40.507 -10.475   3.801  1.00  0.00     0.001 A 
HETATM   10  C   UNL     1      39.680 -10.563   4.918  1.00  0.00     0.002 A 
HETATM   11  C   UNL     1      39.452 -11.799   5.521  1.00  0.00     0.030 A 
HETATM   12  H   UNL     1      39.263 -14.242   6.419  1.00  0.00     0.170 HD
ENDROOT
BRANCH   2  13
HETATM   13  O   UNL     1      42.734 -13.880   2.847  1.00  0.00    -0.359 OA
HETATM   14  H   UNL     1      43.304 -14.563   3.247  1.00  0.00     0.213 HD
ENDBRANCH   2  13
BRANCH   2  15
HETATM   15  C   UNL     1      40.485 -14.595   2.086  1.00  0.00     0.279 C 
HETATM   16  N   UNL     1      40.880 -14.200   0.822  1.00  0.00    -0.356 N 
HETATM   17  H   UNL     1      41.838 -13.885   0.702  1.00  0.00     0.162 HD
HETATM   18  O   UNL     1      39.458 -15.256   2.276  1.00  0.00    -0.268 OA
BRANCH  16  19
HETATM   19  C   UNL     1      40.166 -14.672  -0.349  1.00  0.00     0.127 C 
BRANCH  19  20
HETATM   20  C   UNL     1      39.300 -13.589  -0.999  1.00  0.00     0.058 C 
BRANCH  20  21
HETATM   21  C   UNL     1      39.700 -12.180  -0.621  1.00  0.00    -0.057 A 
HETATM   22  C   UNL     1      40.925 -11.642  -1.045  1.00  0.00     0.009 A 
HETATM   23  C   UNL     1      41.284 -10.336  -0.703  1.00  0.00     0.024 A 
HETATM   24  C   UNL     1      40.417  -9.556   0.056  1.00  0.00     0.034 A 
HETATM   25 CL   UNL     1      40.856  -7.946   0.474  1.00  0.00    -0.084 Cl
HETATM   26  C   UNL     1      39.192 -10.069   0.473  1.00  0.00     0.024 A 
HETATM   27  C   UNL     1      38.833 -11.377   0.136  1.00  0.00     0.009 A 
ENDBRANCH  20  21
ENDBRANCH  19  20
ENDBRANCH  16  19
ENDBRANCH   2  15
BRANCH   1  28
HETATM   28  C   UNL     1      42.404 -16.356   4.122  1.00  0.00     0.045 A 
HETATM   29  C   UNL     1      42.336 -17.242   3.033  1.00  0.00     0.066 A 
HETATM   30  C   UNL     1      43.263 -18.281   2.884  1.00  0.00     0.070 A 
HETATM   31  C   UNL     1      44.298 -18.418   3.809  1.00  0.00     0.037 A 
HETATM   32  C   UNL     1      44.383 -17.555   4.896  1.00  0.00     0.005 A 
HETATM   33  C   UNL     1      43.437 -16.541   5.055  1.00  0.00     0.030 A 
BRANCH  30  34
HETATM   34  O   UNL     1      43.270 -19.210   1.878  1.00  0.00    -0.356 OA
HETATM   35  C   UNL     1      43.620 -20.541   2.239  1.00  0.00     0.210 C 
ENDBRANCH  30  34
ENDBRANCH   1  28
TORSDOF 7
ENDMDL
