MODEL 1
REMARK VINA RESULT:     -10.1      0.000      0.000
REMARK  10 active torsions:
REMARK  status: ('A' for Active; 'I' for Inactive)
REMARK    1  A    between atoms: C_2  and  C_3 
REMARK    2  A    between atoms: N_4  and  N_5 
REMARK       I    between atoms: N_5  and  C_6 
REMARK    3  A    between atoms: C_6  and  C_7 
REMARK    4  A    between atoms: N_10  and  C_11 
REMARK    5  A    between atoms: C_15  and  N_16 
REMARK    6  A    between atoms: C_17  and  C_18 
REMARK    7  A    between atoms: C_18  and  N_19 
REMARK    8  A    between atoms: C_29  and  O_30 
REMARK    9  A    between atoms: O_30  and  C_31 
REMARK   10  A    between atoms: C_31  and  C_32 
ROOT
HETATM    1  N   UNL     1      41.188  -9.514   5.941  1.00  0.00    -0.242 N 
HETATM    2  C   UNL     1      40.410  -8.723   6.768  1.00  0.00     0.294 C 
HETATM    3  O   UNL     1      40.132  -7.569   6.435  1.00  0.00    -0.264 OA
HETATM    4  H   UNL     1      41.483  -9.111   5.057  1.00  0.00     0.192 HD
ENDROOT
BRANCH   2   5
HETATM    5  C   UNL     1      39.883  -9.276   8.022  1.00  0.00     0.176 A 
HETATM    6  N   UNL     1      38.745 -10.021   8.139  1.00  0.00    -0.124 NA
HETATM    7  N   UNL     1      38.565 -10.328   9.410  1.00  0.00    -0.058 NA
HETATM    8  N   UNL     1      39.590  -9.826  10.137  1.00  0.00    -0.191 N 
HETATM    9  C   UNL     1      40.451  -9.136   9.286  1.00  0.00     0.102 A 
BRANCH   8  10
HETATM   10  C   UNL     1      39.709 -10.061  11.528  1.00  0.00     0.229 A 
HETATM   11  N   UNL     1      40.489  -9.278  12.279  1.00  0.00    -0.081 NA
HETATM   12  O   UNL     1      40.359  -9.816  13.564  1.00  0.00    -0.103 OA
HETATM   13  N   UNL     1      39.534 -10.931  13.558  1.00  0.00    -0.083 NA
HETATM   14  C   UNL     1      39.131 -11.085  12.299  1.00  0.00     0.201 A 
BRANCH  14  15
HETATM   15  N   UNL     1      38.316 -12.060  11.872  1.00  0.00    -0.379 N 
HETATM   16  H   UNL     1      37.849 -11.993  10.972  1.00  0.00     0.158 HD
HETATM   17  H   UNL     1      38.151 -12.928  12.379  1.00  0.00     0.158 HD
ENDBRANCH  14  15
ENDBRANCH   8  10
BRANCH   9  18
HETATM   18  C   UNL     1      41.639  -8.363   9.721  1.00  0.00     0.296 C 
BRANCH  18  19
HETATM   19  N   UNL     1      42.961  -9.061   9.508  1.00  0.00    -0.066 N 
HETATM   20  H   UNL     1      42.729 -10.049   9.317  1.00  0.00     0.280 HD
HETATM   21  C   UNL     1      43.754  -8.518   8.342  1.00  0.00     0.235 C 
HETATM   22  C   UNL     1      44.982  -9.392   8.123  1.00  0.00     0.028 C 
HETATM   23  C   UNL     1      45.838  -9.495   9.381  1.00  0.00     0.003 C 
HETATM   24  C   UNL     1      45.009  -9.946  10.579  1.00  0.00     0.028 C 
HETATM   25  C   UNL     1      43.783  -9.069  10.778  1.00  0.00     0.235 C 
ENDBRANCH  18  19
ENDBRANCH   9  18
ENDBRANCH   2   5
BRANCH   1  26
HETATM   26  N   UNL     1      41.610 -10.755   6.285  1.00  0.00    -0.184 NA
HETATM   27  C   UNL     1      41.003 -11.752   5.726  1.00  0.00     0.150 C 
BRANCH  27  28
HETATM   28  C   UNL     1      41.419 -13.140   6.009  1.00  0.00    -0.017 A 
HETATM   29  C   UNL     1      42.707 -13.391   6.480  1.00  0.00     0.016 A 
HETATM   30  C   UNL     1      43.104 -14.710   6.721  1.00  0.00     0.037 A 
HETATM   31  C   UNL     1      42.220 -15.776   6.512  1.00  0.00     0.069 A 
HETATM   32  C   UNL     1      40.924 -15.512   6.069  1.00  0.00     0.037 A 
HETATM   33  C   UNL     1      40.528 -14.197   5.805  1.00  0.00     0.016 A 
BRANCH  31  34
HETATM   34  O   UNL     1      42.747 -17.012   6.767  1.00  0.00    -0.347 OA
BRANCH  34  35
HETATM   35  C   UNL     1      44.050 -17.286   6.258  1.00  0.00     0.216 C 
BRANCH  35  36
HETATM   36  C   UNL     1      43.906 -18.129   5.013  1.00  0.00    -0.012 A 
HETATM   37  C   UNL     1      43.625 -17.564   3.756  1.00  0.00     0.044 A 
HETATM   38 CL   UNL     1      43.418 -15.861   3.547  1.00  0.00    -0.084 Cl
HETATM   39  C   UNL     1      43.496 -18.372   2.623  1.00  0.00     0.048 A 
HETATM   40  C   UNL     1      43.661 -19.750   2.735  1.00  0.00     0.035 A 
HETATM   41 CL   UNL     1      43.498 -20.745   1.342  1.00  0.00    -0.084 Cl
HETATM   42  C   UNL     1      43.958 -20.327   3.967  1.00  0.00     0.024 A 
HETATM   43  C   UNL     1      44.086 -19.521   5.100  1.00  0.00     0.013 A 
ENDBRANCH  35  36
ENDBRANCH  34  35
ENDBRANCH  31  34
ENDBRANCH  27  28
ENDBRANCH   1  26
TORSDOF 10
ENDMDL
MODEL 2
REMARK VINA RESULT:      -9.6      1.317      1.638
REMARK  10 active torsions:
REMARK  status: ('A' for Active; 'I' for Inactive)
REMARK    1  A    between atoms: C_2  and  C_3 
REMARK    2  A    between atoms: N_4  and  N_5 
REMARK       I    between atoms: N_5  and  C_6 
REMARK    3  A    between atoms: C_6  and  C_7 
REMARK    4  A    between atoms: N_10  and  C_11 
REMARK    5  A    between atoms: C_15  and  N_16 
REMARK    6  A    between atoms: C_17  and  C_18 
REMARK    7  A    between atoms: C_18  and  N_19 
REMARK    8  A    between atoms: C_29  and  O_30 
REMARK    9  A    between atoms: O_30  and  C_31 
REMARK   10  A    between atoms: C_31  and  C_32 
ROOT
HETATM    1  N   UNL     1      41.413  -7.502   6.596  1.00  0.00    -0.242 N 
HETATM    2  C   UNL     1      40.619  -6.883   7.545  1.00  0.00     0.294 C 
HETATM    3  O   UNL     1      40.390  -5.674   7.463  1.00  0.00    -0.264 OA
HETATM    4  H   UNL     1      41.762  -6.927   5.836  1.00  0.00     0.192 HD
ENDROOT
BRANCH   2   5
HETATM    5  C   UNL     1      40.017  -7.676   8.623  1.00  0.00     0.176 A 
HETATM    6  N   UNL     1      38.753  -8.192   8.613  1.00  0.00    -0.124 NA
HETATM    7  N   UNL     1      38.541  -8.827   9.750  1.00  0.00    -0.058 NA
HETATM    8  N   UNL     1      39.663  -8.771  10.504  1.00  0.00    -0.191 N 
HETATM    9  C   UNL     1      40.629  -8.033   9.823  1.00  0.00     0.102 A 
BRANCH   8  10
HETATM   10  C   UNL     1      39.761  -9.431  11.753  1.00  0.00     0.229 A 
HETATM   11  N   UNL     1      40.423  -8.862  12.766  1.00  0.00    -0.081 NA
HETATM   12  O   UNL     1      40.310  -9.798  13.800  1.00  0.00    -0.103 OA
HETATM   13  N   UNL     1      39.616 -10.923  13.384  1.00  0.00    -0.083 NA
HETATM   14  C   UNL     1      39.275 -10.699  12.117  1.00  0.00     0.201 A 
BRANCH  14  15
HETATM   15  N   UNL     1      38.588 -11.556  11.348  1.00  0.00    -0.379 N 
HETATM   16  H   UNL     1      38.800 -12.550  11.358  1.00  0.00     0.158 HD
HETATM   17  H   UNL     1      37.802 -11.289  10.759  1.00  0.00     0.158 HD
ENDBRANCH  14  15
ENDBRANCH   8  10
BRANCH   9  18
HETATM   18  C   UNL     1      41.959  -7.667  10.364  1.00  0.00     0.296 C 
BRANCH  18  19
HETATM   19  N   UNL     1      43.109  -8.484   9.824  1.00  0.00    -0.066 N 
HETATM   20  H   UNL     1      42.683  -9.197   9.211  1.00  0.00     0.280 HD
HETATM   21  C   UNL     1      44.097  -7.678   9.012  1.00  0.00     0.235 C 
HETATM   22  C   UNL     1      45.117  -8.623   8.388  1.00  0.00     0.028 C 
HETATM   23  C   UNL     1      45.820  -9.473   9.440  1.00  0.00     0.003 C 
HETATM   24  C   UNL     1      44.816 -10.205  10.323  1.00  0.00     0.028 C 
HETATM   25  C   UNL     1      43.799  -9.250  10.930  1.00  0.00     0.235 C 
ENDBRANCH  18  19
ENDBRANCH   9  18
ENDBRANCH   2   5
BRANCH   1  26
HETATM   26  N   UNL     1      41.783  -8.804   6.675  1.00  0.00    -0.184 NA
HETATM   27  C   UNL     1      41.732  -9.491   5.580  1.00  0.00     0.150 C 
BRANCH  27  28
HETATM   28  C   UNL     1      42.153 -10.907   5.559  1.00  0.00    -0.017 A 
HETATM   29  C   UNL     1      43.346 -11.280   6.175  1.00  0.00     0.016 A 
HETATM   30  C   UNL     1      43.753 -12.617   6.129  1.00  0.00     0.037 A 
HETATM   31  C   UNL     1      42.969 -13.584   5.489  1.00  0.00     0.069 A 
HETATM   32  C   UNL     1      41.763 -13.206   4.900  1.00  0.00     0.037 A 
HETATM   33  C   UNL     1      41.361 -11.867   4.924  1.00  0.00     0.016 A 
BRANCH  31  34
HETATM   34  O   UNL     1      43.497 -14.846   5.502  1.00  0.00    -0.347 OA
BRANCH  34  35
HETATM   35  C   UNL     1      42.589 -15.933   5.667  1.00  0.00     0.216 C 
BRANCH  35  36
HETATM   36  C   UNL     1      42.945 -17.005   4.664  1.00  0.00    -0.012 A 
HETATM   37  C   UNL     1      42.312 -17.098   3.412  1.00  0.00     0.044 A 
HETATM   38 CL   UNL     1      41.073 -15.991   2.933  1.00  0.00    -0.084 Cl
HETATM   39  C   UNL     1      42.663 -18.103   2.507  1.00  0.00     0.048 A 
HETATM   40  C   UNL     1      43.659 -19.015   2.841  1.00  0.00     0.035 A 
HETATM   41 CL   UNL     1      44.088 -20.256   1.730  1.00  0.00    -0.084 Cl
HETATM   42  C   UNL     1      44.311 -18.930   4.068  1.00  0.00     0.024 A 
HETATM   43  C   UNL     1      43.961 -17.927   4.974  1.00  0.00     0.013 A 
ENDBRANCH  35  36
ENDBRANCH  34  35
ENDBRANCH  31  34
ENDBRANCH  27  28
ENDBRANCH   1  26
TORSDOF 10
ENDMDL
MODEL 3
REMARK VINA RESULT:      -8.9      2.797      4.340
REMARK  10 active torsions:
REMARK  status: ('A' for Active; 'I' for Inactive)
REMARK    1  A    between atoms: C_2  and  C_3 
REMARK    2  A    between atoms: N_4  and  N_5 
REMARK       I    between atoms: N_5  and  C_6 
REMARK    3  A    between atoms: C_6  and  C_7 
REMARK    4  A    between atoms: N_10  and  C_11 
REMARK    5  A    between atoms: C_15  and  N_16 
REMARK    6  A    between atoms: C_17  and  C_18 
REMARK    7  A    between atoms: C_18  and  N_19 
REMARK    8  A    between atoms: C_29  and  O_30 
REMARK    9  A    between atoms: O_30  and  C_31 
REMARK   10  A    between atoms: C_31  and  C_32 
ROOT
HETATM    1  N   UNL     1      45.844 -10.187   8.303  1.00  0.00    -0.242 N 
HETATM    2  C   UNL     1      45.306  -9.443   9.337  1.00  0.00     0.294 C 
HETATM    3  O   UNL     1      45.921  -9.329  10.400  1.00  0.00    -0.264 OA
HETATM    4  H   UNL     1      46.759 -10.599   8.454  1.00  0.00     0.192 HD
ENDROOT
BRANCH   2   5
HETATM    5  C   UNL     1      44.023  -8.754   9.151  1.00  0.00     0.176 A 
HETATM    6  N   UNL     1      43.795  -7.733   8.273  1.00  0.00    -0.124 NA
HETATM    7  N   UNL     1      42.540  -7.343   8.390  1.00  0.00    -0.058 NA
HETATM    8  N   UNL     1      41.918  -8.116   9.310  1.00  0.00    -0.191 N 
HETATM    9  C   UNL     1      42.837  -9.026   9.829  1.00  0.00     0.102 A 
BRANCH   8  10
HETATM   10  C   UNL     1      40.538  -7.980   9.595  1.00  0.00     0.229 A 
HETATM   11  N   UNL     1      40.095  -6.930  10.294  1.00  0.00    -0.081 NA
HETATM   12  O   UNL     1      38.716  -7.147  10.377  1.00  0.00    -0.103 OA
HETATM   13  N   UNL     1      38.358  -8.336   9.759  1.00  0.00    -0.083 NA
HETATM   14  C   UNL     1      39.484  -8.853   9.275  1.00  0.00     0.201 A 
BRANCH  14  15
HETATM   15  N   UNL     1      39.565 -10.011   8.603  1.00  0.00    -0.379 N 
HETATM   16  H   UNL     1      40.043 -10.814   9.004  1.00  0.00     0.158 HD
HETATM   17  H   UNL     1      39.127 -10.178   7.699  1.00  0.00     0.158 HD
ENDBRANCH  14  15
ENDBRANCH   8  10
BRANCH   9  18
HETATM   18  C   UNL     1      42.562  -9.978  10.931  1.00  0.00     0.296 C 
BRANCH  18  19
HETATM   19  N   UNL     1      42.548  -9.363  12.310  1.00  0.00    -0.066 N 
HETATM   20  H   UNL     1      43.097 -10.001  12.907  1.00  0.00     0.280 HD
HETATM   21  C   UNL     1      43.176  -7.989  12.369  1.00  0.00     0.235 C 
HETATM   22  C   UNL     1      43.252  -7.538  13.822  1.00  0.00     0.028 C 
HETATM   23  C   UNL     1      41.884  -7.556  14.494  1.00  0.00     0.003 C 
HETATM   24  C   UNL     1      41.211  -8.916  14.343  1.00  0.00     0.028 C 
HETATM   25  C   UNL     1      41.151  -9.357  12.889  1.00  0.00     0.235 C 
ENDBRANCH  18  19
ENDBRANCH   9  18
ENDBRANCH   2   5
BRANCH   1  26
HETATM   26  N   UNL     1      45.182 -10.433   7.145  1.00  0.00    -0.184 NA
HETATM   27  C   UNL     1      44.449 -11.499   7.109  1.00  0.00     0.150 C 
BRANCH  27  28
HETATM   28  C   UNL     1      43.661 -11.830   5.905  1.00  0.00    -0.017 A 
HETATM   29  C   UNL     1      42.326 -12.210   6.039  1.00  0.00     0.016 A 
HETATM   30  C   UNL     1      41.592 -12.548   4.898  1.00  0.00     0.037 A 
HETATM   31  C   UNL     1      42.175 -12.493   3.626  1.00  0.00     0.069 A 
HETATM   32  C   UNL     1      43.502 -12.083   3.500  1.00  0.00     0.037 A 
HETATM   33  C   UNL     1      44.248 -11.764   4.639  1.00  0.00     0.016 A 
BRANCH  31  34
HETATM   34  O   UNL     1      41.349 -12.869   2.603  1.00  0.00    -0.347 OA
BRANCH  34  35
HETATM   35  C   UNL     1      40.579 -14.055   2.787  1.00  0.00     0.216 C 
BRANCH  35  36
HETATM   36  C   UNL     1      41.521 -15.235   2.819  1.00  0.00    -0.012 A 
HETATM   37  C   UNL     1      41.567 -16.125   3.906  1.00  0.00     0.044 A 
HETATM   38 CL   UNL     1      40.552 -15.929   5.290  1.00  0.00    -0.084 Cl
HETATM   39  C   UNL     1      42.452 -17.208   3.905  1.00  0.00     0.048 A 
HETATM   40  C   UNL     1      43.287 -17.415   2.811  1.00  0.00     0.035 A 
HETATM   41 CL   UNL     1      44.379 -18.744   2.811  1.00  0.00    -0.084 Cl
HETATM   42  C   UNL     1      43.243 -16.556   1.716  1.00  0.00     0.024 A 
HETATM   43  C   UNL     1      42.360 -15.474   1.717  1.00  0.00     0.013 A 
ENDBRANCH  35  36
ENDBRANCH  34  35
ENDBRANCH  31  34
ENDBRANCH  27  28
ENDBRANCH   1  26
TORSDOF 10
ENDMDL
MODEL 4
REMARK VINA RESULT:      -8.5      3.708      5.252
REMARK  10 active torsions:
REMARK  status: ('A' for Active; 'I' for Inactive)
REMARK    1  A    between atoms: C_2  and  C_3 
REMARK    2  A    between atoms: N_4  and  N_5 
REMARK       I    between atoms: N_5  and  C_6 
REMARK    3  A    between atoms: C_6  and  C_7 
REMARK    4  A    between atoms: N_10  and  C_11 
REMARK    5  A    between atoms: C_15  and  N_16 
REMARK    6  A    between atoms: C_17  and  C_18 
REMARK    7  A    between atoms: C_18  and  N_19 
REMARK    8  A    between atoms: C_29  and  O_30 
REMARK    9  A    between atoms: O_30  and  C_31 
REMARK   10  A    between atoms: C_31  and  C_32 
ROOT
HETATM    1  N   UNL     1      45.529 -10.822   8.599  1.00  0.00    -0.242 N 
HETATM    2  C   UNL     1      45.196  -9.624   9.205  1.00  0.00     0.294 C 
HETATM    3  O   UNL     1      46.014  -9.050   9.927  1.00  0.00    -0.264 OA
HETATM    4  H   UNL     1      46.467 -11.176   8.755  1.00  0.00     0.192 HD
ENDROOT
BRANCH   2   5
HETATM    5  C   UNL     1      43.883  -9.018   8.952  1.00  0.00     0.176 A 
HETATM    6  N   UNL     1      43.576  -8.211   7.894  1.00  0.00    -0.124 NA
HETATM    7  N   UNL     1      42.317  -7.832   7.998  1.00  0.00    -0.058 NA
HETATM    8  N   UNL     1      41.770  -8.406   9.095  1.00  0.00    -0.191 N 
HETATM    9  C   UNL     1      42.744  -9.165   9.740  1.00  0.00     0.102 A 
BRANCH   8  10
HETATM   10  C   UNL     1      40.402  -8.242   9.424  1.00  0.00     0.229 A 
HETATM   11  N   UNL     1      40.010  -7.206  10.173  1.00  0.00    -0.081 NA
HETATM   12  O   UNL     1      38.627  -7.387  10.287  1.00  0.00    -0.103 OA
HETATM   13  N   UNL     1      38.218  -8.542   9.638  1.00  0.00    -0.083 NA
HETATM   14  C   UNL     1      39.315  -9.073   9.103  1.00  0.00     0.201 A 
BRANCH  14  15
HETATM   15  N   UNL     1      39.344 -10.207   8.389  1.00  0.00    -0.379 N 
HETATM   16  H   UNL     1      39.659 -10.207   7.422  1.00  0.00     0.158 HD
HETATM   17  H   UNL     1      39.109 -11.124   8.765  1.00  0.00     0.158 HD
ENDBRANCH  14  15
ENDBRANCH   8  10
BRANCH   9  18
HETATM   18  C   UNL     1      42.558  -9.868  11.032  1.00  0.00     0.296 C 
BRANCH  18  19
HETATM   19  N   UNL     1      42.198  -8.971  12.194  1.00  0.00    -0.066 N 
HETATM   20  H   UNL     1      41.567  -8.252  11.808  1.00  0.00     0.280 HD
HETATM   21  C   UNL     1      41.483  -9.689  13.315  1.00  0.00     0.235 C 
HETATM   22  C   UNL     1      41.031  -8.668  14.351  1.00  0.00     0.028 C 
HETATM   23  C   UNL     1      42.196  -7.835  14.874  1.00  0.00     0.003 C 
HETATM   24  C   UNL     1      42.976  -7.196  13.732  1.00  0.00     0.028 C 
HETATM   25  C   UNL     1      43.413  -8.226  12.701  1.00  0.00     0.235 C 
ENDBRANCH  18  19
ENDBRANCH   9  18
ENDBRANCH   2   5
BRANCH   1  26
HETATM   26  N   UNL     1      44.650 -11.554   7.871  1.00  0.00    -0.184 NA
HETATM   27  C   UNL     1      44.878 -11.642   6.600  1.00  0.00     0.150 C 
BRANCH  27  28
HETATM   28  C   UNL     1      43.998 -12.448   5.732  1.00  0.00    -0.017 A 
HETATM   29  C   UNL     1      43.590 -11.938   4.500  1.00  0.00     0.016 A 
HETATM   30  C   UNL     1      42.734 -12.695   3.693  1.00  0.00     0.037 A 
HETATM   31  C   UNL     1      42.298 -13.962   4.100  1.00  0.00     0.069 A 
HETATM   32  C   UNL     1      42.735 -14.475   5.321  1.00  0.00     0.037 A 
HETATM   33  C   UNL     1      43.573 -13.715   6.142  1.00  0.00     0.016 A 
BRANCH  31  34
HETATM   34  O   UNL     1      41.449 -14.580   3.224  1.00  0.00    -0.347 OA
BRANCH  34  35
HETATM   35  C   UNL     1      40.141 -14.032   3.082  1.00  0.00     0.216 C 
BRANCH  35  36
HETATM   36  C   UNL     1      39.881 -13.796   1.614  1.00  0.00    -0.012 A 
HETATM   37  C   UNL     1      39.497 -12.539   1.114  1.00  0.00     0.044 A 
HETATM   38 CL   UNL     1      39.290 -11.171   2.150  1.00  0.00    -0.084 Cl
HETATM   39  C   UNL     1      39.262 -12.354  -0.251  1.00  0.00     0.048 A 
HETATM   40  C   UNL     1      39.423 -13.421  -1.129  1.00  0.00     0.035 A 
HETATM   41 CL   UNL     1      39.129 -13.195  -2.809  1.00  0.00    -0.084 Cl
HETATM   42  C   UNL     1      39.820 -14.669  -0.658  1.00  0.00     0.024 A 
HETATM   43  C   UNL     1      40.054 -14.856   0.706  1.00  0.00     0.013 A 
ENDBRANCH  35  36
ENDBRANCH  34  35
ENDBRANCH  31  34
ENDBRANCH  27  28
ENDBRANCH   1  26
TORSDOF 10
ENDMDL
MODEL 5
REMARK VINA RESULT:      -8.5      6.389      9.648
REMARK  10 active torsions:
REMARK  status: ('A' for Active; 'I' for Inactive)
REMARK    1  A    between atoms: C_2  and  C_3 
REMARK    2  A    between atoms: N_4  and  N_5 
REMARK       I    between atoms: N_5  and  C_6 
REMARK    3  A    between atoms: C_6  and  C_7 
REMARK    4  A    between atoms: N_10  and  C_11 
REMARK    5  A    between atoms: C_15  and  N_16 
REMARK    6  A    between atoms: C_17  and  C_18 
REMARK    7  A    between atoms: C_18  and  N_19 
REMARK    8  A    between atoms: C_29  and  O_30 
REMARK    9  A    between atoms: O_30  and  C_31 
REMARK   10  A    between atoms: C_31  and  C_32 
ROOT
HETATM    1  N   UNL     1      40.872  -8.928   1.217  1.00  0.00    -0.242 N 
HETATM    2  C   UNL     1      40.446  -8.965  -0.099  1.00  0.00     0.294 C 
HETATM    3  O   UNL     1      40.009  -7.944  -0.635  1.00  0.00    -0.264 OA
HETATM    4  H   UNL     1      40.831  -8.032   1.693  1.00  0.00     0.192 HD
ENDROOT
BRANCH   2   5
HETATM    5  C   UNL     1      40.557 -10.212  -0.866  1.00  0.00     0.176 A 
HETATM    6  N   UNL     1      41.661 -10.618  -1.558  1.00  0.00    -0.124 NA
HETATM    7  N   UNL     1      41.398 -11.770  -2.144  1.00  0.00    -0.058 NA
HETATM    8  N   UNL     1      40.141 -12.155  -1.823  1.00  0.00    -0.191 N 
HETATM    9  C   UNL     1      39.564 -11.178  -1.013  1.00  0.00     0.102 A 
BRANCH   8  10
HETATM   10  C   UNL     1      39.604 -13.394  -2.247  1.00  0.00     0.229 A 
HETATM   11  N   UNL     1      39.200 -13.555  -3.511  1.00  0.00    -0.081 NA
HETATM   12  O   UNL     1      38.734 -14.874  -3.543  1.00  0.00    -0.103 OA
HETATM   13  N   UNL     1      38.832 -15.470  -2.295  1.00  0.00    -0.083 NA
HETATM   14  C   UNL     1      39.370 -14.556  -1.491  1.00  0.00     0.201 A 
BRANCH  14  15
HETATM   15  N   UNL     1      39.629 -14.742  -0.189  1.00  0.00    -0.379 N 
HETATM   16  H   UNL     1      39.080 -14.272   0.525  1.00  0.00     0.158 HD
HETATM   17  H   UNL     1      40.336 -15.384   0.165  1.00  0.00     0.158 HD
ENDBRANCH  14  15
ENDBRANCH   8  10
BRANCH   9  18
HETATM   18  C   UNL     1      38.162 -11.189  -0.535  1.00  0.00     0.296 C 
BRANCH  18  19
HETATM   19  N   UNL     1      37.196 -10.395  -1.383  1.00  0.00    -0.066 N 
HETATM   20  H   UNL     1      37.744  -9.611  -1.770  1.00  0.00     0.280 HD
HETATM   21  C   UNL     1      36.606 -11.183  -2.530  1.00  0.00     0.235 C 
HETATM   22  C   UNL     1      35.781 -10.248  -3.404  1.00  0.00     0.028 C 
HETATM   23  C   UNL     1      34.699  -9.530  -2.605  1.00  0.00     0.003 C 
HETATM   24  C   UNL     1      35.287  -8.821  -1.390  1.00  0.00     0.028 C 
HETATM   25  C   UNL     1      36.116  -9.765  -0.533  1.00  0.00     0.235 C 
ENDBRANCH  18  19
ENDBRANCH   9  18
ENDBRANCH   2   5
BRANCH   1  26
HETATM   26  N   UNL     1      41.274 -10.029   1.897  1.00  0.00    -0.184 NA
HETATM   27  C   UNL     1      40.396 -10.590   2.666  1.00  0.00     0.150 C 
BRANCH  27  28
HETATM   28  C   UNL     1      40.729 -11.817   3.417  1.00  0.00    -0.017 A 
HETATM   29  C   UNL     1      41.580 -11.741   4.518  1.00  0.00     0.016 A 
HETATM   30  C   UNL     1      41.913 -12.910   5.210  1.00  0.00     0.037 A 
HETATM   31  C   UNL     1      41.389 -14.149   4.821  1.00  0.00     0.069 A 
HETATM   32  C   UNL     1      40.515 -14.210   3.735  1.00  0.00     0.037 A 
HETATM   33  C   UNL     1      40.195 -13.048   3.026  1.00  0.00     0.016 A 
BRANCH  31  34
HETATM   34  O   UNL     1      41.814 -15.209   5.572  1.00  0.00    -0.347 OA
BRANCH  34  35
HETATM   35  C   UNL     1      43.200 -15.537   5.515  1.00  0.00     0.216 C 
BRANCH  35  36
HETATM   36  C   UNL     1      43.367 -16.749   4.629  1.00  0.00    -0.012 A 
HETATM   37  C   UNL     1      43.554 -18.040   5.155  1.00  0.00     0.044 A 
HETATM   38 CL   UNL     1      43.613 -18.331   6.857  1.00  0.00    -0.084 Cl
HETATM   39  C   UNL     1      43.706 -19.141   4.308  1.00  0.00     0.048 A 
HETATM   40  C   UNL     1      43.658 -18.962   2.928  1.00  0.00     0.035 A 
HETATM   41 CL   UNL     1      43.850 -20.316   1.885  1.00  0.00    -0.084 Cl
HETATM   42  C   UNL     1      43.455 -17.696   2.388  1.00  0.00     0.024 A 
HETATM   43  C   UNL     1      43.304 -16.594   3.233  1.00  0.00     0.013 A 
ENDBRANCH  35  36
ENDBRANCH  34  35
ENDBRANCH  31  34
ENDBRANCH  27  28
ENDBRANCH   1  26
TORSDOF 10
ENDMDL
MODEL 6
REMARK VINA RESULT:      -8.3      4.571      9.821
REMARK  10 active torsions:
REMARK  status: ('A' for Active; 'I' for Inactive)
REMARK    1  A    between atoms: C_2  and  C_3 
REMARK    2  A    between atoms: N_4  and  N_5 
REMARK       I    between atoms: N_5  and  C_6 
REMARK    3  A    between atoms: C_6  and  C_7 
REMARK    4  A    between atoms: N_10  and  C_11 
REMARK    5  A    between atoms: C_15  and  N_16 
REMARK    6  A    between atoms: C_17  and  C_18 
REMARK    7  A    between atoms: C_18  and  N_19 
REMARK    8  A    between atoms: C_29  and  O_30 
REMARK    9  A    between atoms: O_30  and  C_31 
REMARK   10  A    between atoms: C_31  and  C_32 
ROOT
HETATM    1  N   UNL     1      39.401  -9.729   4.416  1.00  0.00    -0.242 N 
HETATM    2  C   UNL     1      39.109 -11.017   4.003  1.00  0.00     0.294 C 
HETATM    3  O   UNL     1      38.510 -11.203   2.941  1.00  0.00    -0.264 OA
HETATM    4  H   UNL     1      39.127  -8.971   3.800  1.00  0.00     0.192 HD
ENDROOT
BRANCH   2   5
HETATM    5  C   UNL     1      39.552 -12.160   4.810  1.00  0.00     0.176 A 
HETATM    6  N   UNL     1      39.067 -12.492   6.043  1.00  0.00    -0.124 NA
HETATM    7  N   UNL     1      39.707 -13.559   6.480  1.00  0.00    -0.058 NA
HETATM    8  N   UNL     1      40.589 -13.965   5.537  1.00  0.00    -0.191 N 
HETATM    9  C   UNL     1      40.528 -13.089   4.455  1.00  0.00     0.102 A 
BRANCH   8  10
HETATM   10  C   UNL     1      41.370 -15.136   5.694  1.00  0.00     0.229 A 
HETATM   11  N   UNL     1      41.160 -16.196   4.907  1.00  0.00    -0.081 NA
HETATM   12  O   UNL     1      42.094 -17.134   5.360  1.00  0.00    -0.103 OA
HETATM   13  N   UNL     1      42.822 -16.638   6.431  1.00  0.00    -0.083 NA
HETATM   14  C   UNL     1      42.375 -15.402   6.640  1.00  0.00     0.201 A 
BRANCH  14  15
HETATM   15  N   UNL     1      42.827 -14.579   7.597  1.00  0.00    -0.379 N 
HETATM   16  H   UNL     1      42.292 -14.423   8.447  1.00  0.00     0.158 HD
HETATM   17  H   UNL     1      43.728 -14.106   7.564  1.00  0.00     0.158 HD
ENDBRANCH  14  15
ENDBRANCH   8  10
BRANCH   9  18
HETATM   18  C   UNL     1      41.411 -13.142   3.266  1.00  0.00     0.296 C 
BRANCH  18  19
HETATM   19  N   UNL     1      40.698 -13.401   1.960  1.00  0.00    -0.066 N 
HETATM   20  H   UNL     1      39.693 -13.276   2.159  1.00  0.00     0.280 HD
HETATM   21  C   UNL     1      41.093 -12.450   0.854  1.00  0.00     0.235 C 
HETATM   22  C   UNL     1      40.204 -12.699  -0.358  1.00  0.00     0.028 C 
HETATM   23  C   UNL     1      40.268 -14.150  -0.821  1.00  0.00     0.003 C 
HETATM   24  C   UNL     1      39.970 -15.110   0.325  1.00  0.00     0.028 C 
HETATM   25  C   UNL     1      40.858 -14.843   1.531  1.00  0.00     0.235 C 
ENDBRANCH  18  19
ENDBRANCH   9  18
ENDBRANCH   2   5
BRANCH   1  26
HETATM   26  N   UNL     1      39.971  -9.447   5.613  1.00  0.00    -0.184 NA
HETATM   27  C   UNL     1      41.239  -9.189   5.607  1.00  0.00     0.150 C 
BRANCH  27  28
HETATM   28  C   UNL     1      41.940  -8.832   6.857  1.00  0.00    -0.017 A 
HETATM   29  C   UNL     1      42.557  -9.830   7.609  1.00  0.00     0.016 A 
HETATM   30  C   UNL     1      43.197  -9.491   8.806  1.00  0.00     0.037 A 
HETATM   31  C   UNL     1      43.239  -8.162   9.246  1.00  0.00     0.069 A 
HETATM   32  C   UNL     1      42.644  -7.167   8.471  1.00  0.00     0.037 A 
HETATM   33  C   UNL     1      41.984  -7.503   7.284  1.00  0.00     0.016 A 
BRANCH  31  34
HETATM   34  O   UNL     1      43.878  -7.977  10.440  1.00  0.00    -0.347 OA
BRANCH  34  35
HETATM   35  C   UNL     1      43.726  -8.994  11.428  1.00  0.00     0.216 C 
BRANCH  35  36
HETATM   36  C   UNL     1      42.836  -8.461  12.526  1.00  0.00    -0.012 A 
HETATM   37  C   UNL     1      41.471  -8.788  12.606  1.00  0.00     0.044 A 
HETATM   38 CL   UNL     1      40.710  -9.819  11.447  1.00  0.00    -0.084 Cl
HETATM   39  C   UNL     1      40.674  -8.277  13.635  1.00  0.00     0.048 A 
HETATM   40  C   UNL     1      41.239  -7.447  14.598  1.00  0.00     0.035 A 
HETATM   41 CL   UNL     1      40.258  -6.814  15.861  1.00  0.00    -0.084 Cl
HETATM   42  C   UNL     1      42.593  -7.127  14.548  1.00  0.00     0.024 A 
HETATM   43  C   UNL     1      43.390  -7.636  13.520  1.00  0.00     0.013 A 
ENDBRANCH  35  36
ENDBRANCH  34  35
ENDBRANCH  31  34
ENDBRANCH  27  28
ENDBRANCH   1  26
TORSDOF 10
ENDMDL
MODEL 7
REMARK VINA RESULT:      -8.3      2.414      4.781
REMARK  10 active torsions:
REMARK  status: ('A' for Active; 'I' for Inactive)
REMARK    1  A    between atoms: C_2  and  C_3 
REMARK    2  A    between atoms: N_4  and  N_5 
REMARK       I    between atoms: N_5  and  C_6 
REMARK    3  A    between atoms: C_6  and  C_7 
REMARK    4  A    between atoms: N_10  and  C_11 
REMARK    5  A    between atoms: C_15  and  N_16 
REMARK    6  A    between atoms: C_17  and  C_18 
REMARK    7  A    between atoms: C_18  and  N_19 
REMARK    8  A    between atoms: C_29  and  O_30 
REMARK    9  A    between atoms: O_30  and  C_31 
REMARK   10  A    between atoms: C_31  and  C_32 
ROOT
HETATM    1  N   UNL     1      44.081  -7.898   8.854  1.00  0.00    -0.242 N 
HETATM    2  C   UNL     1      43.130  -6.908   9.023  1.00  0.00     0.294 C 
HETATM    3  O   UNL     1      43.211  -6.131   9.977  1.00  0.00    -0.264 OA
HETATM    4  H   UNL     1      44.842  -7.930   9.524  1.00  0.00     0.192 HD
ENDROOT
BRANCH   2   5
HETATM    5  C   UNL     1      42.049  -6.759   8.040  1.00  0.00     0.176 A 
HETATM    6  N   UNL     1      42.051  -5.887   6.990  1.00  0.00    -0.124 NA
HETATM    7  N   UNL     1      40.914  -6.008   6.332  1.00  0.00    -0.058 NA
HETATM    8  N   UNL     1      40.168  -6.978   6.910  1.00  0.00    -0.191 N 
HETATM    9  C   UNL     1      40.855  -7.477   8.015  1.00  0.00     0.102 A 
BRANCH   8  10
HETATM   10  C   UNL     1      38.922  -7.385   6.374  1.00  0.00     0.229 A 
HETATM   11  N   UNL     1      37.798  -6.757   6.732  1.00  0.00    -0.081 NA
HETATM   12  O   UNL     1      36.801  -7.433   6.020  1.00  0.00    -0.103 OA
HETATM   13  N   UNL     1      37.336  -8.475   5.277  1.00  0.00    -0.083 NA
HETATM   14  C   UNL     1      38.649  -8.447   5.495  1.00  0.00     0.201 A 
BRANCH  14  15
HETATM   15  N   UNL     1      39.530  -9.301   4.956  1.00  0.00    -0.379 N 
HETATM   16  H   UNL     1      40.028  -9.067   4.101  1.00  0.00     0.158 HD
HETATM   17  H   UNL     1      39.791 -10.192   5.375  1.00  0.00     0.158 HD
ENDBRANCH  14  15
ENDBRANCH   8  10
BRANCH   9  18
HETATM   18  C   UNL     1      40.323  -8.483   8.964  1.00  0.00     0.296 C 
BRANCH  18  19
HETATM   19  N   UNL     1      39.987  -7.944  10.335  1.00  0.00    -0.066 N 
HETATM   20  H   UNL     1      40.713  -7.241  10.545  1.00  0.00     0.280 HD
HETATM   21  C   UNL     1      38.633  -7.276  10.410  1.00  0.00     0.235 C 
HETATM   22  C   UNL     1      38.469  -6.635  11.782  1.00  0.00     0.028 C 
HETATM   23  C   UNL     1      38.656  -7.645  12.907  1.00  0.00     0.003 C 
HETATM   24  C   UNL     1      39.979  -8.390  12.769  1.00  0.00     0.028 C 
HETATM   25  C   UNL     1      40.132  -9.017  11.392  1.00  0.00     0.235 C 
ENDBRANCH  18  19
ENDBRANCH   9  18
ENDBRANCH   2   5
BRANCH   1  26
HETATM   26  N   UNL     1      44.003  -8.844   7.885  1.00  0.00    -0.184 NA
HETATM   27  C   UNL     1      43.627 -10.026   8.256  1.00  0.00     0.150 C 
BRANCH  27  28
HETATM   28  C   UNL     1      43.475 -11.111   7.266  1.00  0.00    -0.017 A 
HETATM   29  C   UNL     1      42.472 -11.028   6.302  1.00  0.00     0.016 A 
HETATM   30  C   UNL     1      42.315 -12.072   5.384  1.00  0.00     0.037 A 
HETATM   31  C   UNL     1      43.161 -13.186   5.412  1.00  0.00     0.069 A 
HETATM   32  C   UNL     1      44.181 -13.246   6.363  1.00  0.00     0.037 A 
HETATM   33  C   UNL     1      44.329 -12.216   7.297  1.00  0.00     0.016 A 
BRANCH  31  34
HETATM   34  O   UNL     1      42.882 -14.139   4.472  1.00  0.00    -0.347 OA
BRANCH  34  35
HETATM   35  C   UNL     1      42.092 -15.253   4.884  1.00  0.00     0.216 C 
BRANCH  35  36
HETATM   36  C   UNL     1      42.600 -16.484   4.172  1.00  0.00    -0.012 A 
HETATM   37  C   UNL     1      43.574 -17.326   4.738  1.00  0.00     0.044 A 
HETATM   38 CL   UNL     1      44.266 -17.007   6.289  1.00  0.00    -0.084 Cl
HETATM   39  C   UNL     1      44.024 -18.458   4.053  1.00  0.00     0.048 A 
HETATM   40  C   UNL     1      43.494 -18.765   2.803  1.00  0.00     0.035 A 
HETATM   41 CL   UNL     1      44.051 -20.155   1.957  1.00  0.00    -0.084 Cl
HETATM   42  C   UNL     1      42.515 -17.955   2.234  1.00  0.00     0.024 A 
HETATM   43  C   UNL     1      42.066 -16.823   2.916  1.00  0.00     0.013 A 
ENDBRANCH  35  36
ENDBRANCH  34  35
ENDBRANCH  31  34
ENDBRANCH  27  28
ENDBRANCH   1  26
TORSDOF 10
ENDMDL
MODEL 8
REMARK VINA RESULT:      -8.2     18.811     21.338
REMARK  10 active torsions:
REMARK  status: ('A' for Active; 'I' for Inactive)
REMARK    1  A    between atoms: C_2  and  C_3 
REMARK    2  A    between atoms: N_4  and  N_5 
REMARK       I    between atoms: N_5  and  C_6 
REMARK    3  A    between atoms: C_6  and  C_7 
REMARK    4  A    between atoms: N_10  and  C_11 
REMARK    5  A    between atoms: C_15  and  N_16 
REMARK    6  A    between atoms: C_17  and  C_18 
REMARK    7  A    between atoms: C_18  and  N_19 
REMARK    8  A    between atoms: C_29  and  O_30 
REMARK    9  A    between atoms: O_30  and  C_31 
REMARK   10  A    between atoms: C_31  and  C_32 
ROOT
HETATM    1  N   UNL     1      49.544 -29.471  -0.237  1.00  0.00    -0.242 N 
HETATM    2  C   UNL     1      48.340 -28.955  -0.681  1.00  0.00     0.294 C 
HETATM    3  O   UNL     1      48.215 -28.604  -1.857  1.00  0.00    -0.264 OA
HETATM    4  H   UNL     1      50.288 -29.567  -0.920  1.00  0.00     0.192 HD
ENDROOT
BRANCH   2   5
HETATM    5  C   UNL     1      47.199 -28.867   0.239  1.00  0.00     0.176 A 
HETATM    6  N   UNL     1      47.120 -28.040   1.322  1.00  0.00    -0.124 NA
HETATM    7  N   UNL     1      45.967 -28.242   1.931  1.00  0.00    -0.058 NA
HETATM    8  N   UNL     1      45.260 -29.170   1.244  1.00  0.00    -0.191 N 
HETATM    9  C   UNL     1      46.019 -29.603   0.159  1.00  0.00     0.102 A 
BRANCH   8  10
HETATM   10  C   UNL     1      43.946 -29.539   1.619  1.00  0.00     0.229 A 
HETATM   11  N   UNL     1      42.902 -29.161   0.873  1.00  0.00    -0.081 NA
HETATM   12  O   UNL     1      41.801 -29.694   1.552  1.00  0.00    -0.103 OA
HETATM   13  N   UNL     1      42.196 -30.351   2.708  1.00  0.00    -0.083 NA
HETATM   14  C   UNL     1      43.523 -30.256   2.751  1.00  0.00     0.201 A 
BRANCH  14  15
HETATM   15  N   UNL     1      44.293 -30.765   3.723  1.00  0.00    -0.379 N 
HETATM   16  H   UNL     1      44.070 -31.660   4.152  1.00  0.00     0.158 HD
HETATM   17  H   UNL     1      45.153 -30.332   4.055  1.00  0.00     0.158 HD
ENDBRANCH  14  15
ENDBRANCH   8  10
BRANCH   9  18
HETATM   18  C   UNL     1      45.628 -30.686  -0.774  1.00  0.00     0.296 C 
BRANCH  18  19
HETATM   19  N   UNL     1      45.586 -30.283  -2.230  1.00  0.00    -0.066 N 
HETATM   20  H   UNL     1      46.539 -29.962  -2.459  1.00  0.00     0.280 HD
HETATM   21  C   UNL     1      45.220 -31.415  -3.162  1.00  0.00     0.235 C 
HETATM   22  C   UNL     1      45.363 -30.939  -4.602  1.00  0.00     0.028 C 
HETATM   23  C   UNL     1      44.525 -29.696  -4.876  1.00  0.00     0.003 C 
HETATM   24  C   UNL     1      44.824 -28.593  -3.868  1.00  0.00     0.028 C 
HETATM   25  C   UNL     1      44.686 -29.085  -2.436  1.00  0.00     0.235 C 
ENDBRANCH  18  19
ENDBRANCH   9  18
ENDBRANCH   2   5
BRANCH   1  26
HETATM   26  N   UNL     1      49.781 -29.787   1.060  1.00  0.00    -0.184 NA
HETATM   27  C   UNL     1      50.313 -30.944   1.289  1.00  0.00     0.150 C 
BRANCH  27  28
HETATM   28  C   UNL     1      50.643 -31.362   2.666  1.00  0.00    -0.017 A 
HETATM   29  C   UNL     1      50.823 -32.714   2.951  1.00  0.00     0.016 A 
HETATM   30  C   UNL     1      51.109 -33.107   4.263  1.00  0.00     0.037 A 
HETATM   31  C   UNL     1      51.233 -32.158   5.285  1.00  0.00     0.069 A 
HETATM   32  C   UNL     1      51.079 -30.805   4.984  1.00  0.00     0.037 A 
HETATM   33  C   UNL     1      50.772 -30.408   3.679  1.00  0.00     0.016 A 
BRANCH  31  34
HETATM   34  O   UNL     1      51.493 -32.682   6.521  1.00  0.00    -0.347 OA
BRANCH  34  35
HETATM   35  C   UNL     1      52.626 -32.175   7.222  1.00  0.00     0.216 C 
BRANCH  35  36
HETATM   36  C   UNL     1      52.487 -32.542   8.680  1.00  0.00    -0.012 A 
HETATM   37  C   UNL     1      53.203 -31.876   9.691  1.00  0.00     0.044 A 
HETATM   38 CL   UNL     1      54.300 -30.589   9.334  1.00  0.00    -0.084 Cl
HETATM   39  C   UNL     1      53.053 -32.240  11.031  1.00  0.00     0.048 A 
HETATM   40  C   UNL     1      52.176 -33.265  11.373  1.00  0.00     0.035 A 
HETATM   41 CL   UNL     1      51.994 -33.718  13.023  1.00  0.00    -0.084 Cl
HETATM   42  C   UNL     1      51.443 -33.925  10.390  1.00  0.00     0.024 A 
HETATM   43  C   UNL     1      51.593 -33.562   9.050  1.00  0.00     0.013 A 
ENDBRANCH  35  36
ENDBRANCH  34  35
ENDBRANCH  31  34
ENDBRANCH  27  28
ENDBRANCH   1  26
TORSDOF 10
ENDMDL
MODEL 9
REMARK VINA RESULT:      -8.2      6.077      8.947
REMARK  10 active torsions:
REMARK  status: ('A' for Active; 'I' for Inactive)
REMARK    1  A    between atoms: C_2  and  C_3 
REMARK    2  A    between atoms: N_4  and  N_5 
REMARK       I    between atoms: N_5  and  C_6 
REMARK    3  A    between atoms: C_6  and  C_7 
REMARK    4  A    between atoms: N_10  and  C_11 
REMARK    5  A    between atoms: C_15  and  N_16 
REMARK    6  A    between atoms: C_17  and  C_18 
REMARK    7  A    between atoms: C_18  and  N_19 
REMARK    8  A    between atoms: C_29  and  O_30 
REMARK    9  A    between atoms: O_30  and  C_31 
REMARK   10  A    between atoms: C_31  and  C_32 
ROOT
HETATM    1  N   UNL     1      39.822  -8.453   2.173  1.00  0.00    -0.242 N 
HETATM    2  C   UNL     1      39.056  -8.436   1.022  1.00  0.00     0.294 C 
HETATM    3  O   UNL     1      38.702  -7.361   0.532  1.00  0.00    -0.264 OA
HETATM    4  H   UNL     1      40.091  -7.557   2.565  1.00  0.00     0.192 HD
ENDROOT
BRANCH   2   5
HETATM    5  C   UNL     1      38.703  -9.699   0.361  1.00  0.00     0.176 A 
HETATM    6  N   UNL     1      37.488 -10.318   0.439  1.00  0.00    -0.124 NA
HETATM    7  N   UNL     1      37.535 -11.438  -0.257  1.00  0.00    -0.058 NA
HETATM    8  N   UNL     1      38.756 -11.555  -0.828  1.00  0.00    -0.191 N 
HETATM    9  C   UNL     1      39.538 -10.466  -0.448  1.00  0.00     0.102 A 
BRANCH   8  10
HETATM   10  C   UNL     1      39.077 -12.624  -1.700  1.00  0.00     0.229 A 
HETATM   11  N   UNL     1      39.020 -12.453  -3.024  1.00  0.00    -0.081 NA
HETATM   12  O   UNL     1      39.388 -13.703  -3.534  1.00  0.00    -0.103 OA
HETATM   13  N   UNL     1      39.625 -14.610  -2.513  1.00  0.00    -0.083 NA
HETATM   14  C   UNL     1      39.433 -13.945  -1.377  1.00  0.00     0.201 A 
BRANCH  14  15
HETATM   15  N   UNL     1      39.562 -14.474  -0.151  1.00  0.00    -0.379 N 
HETATM   16  H   UNL     1      39.716 -15.470  -0.026  1.00  0.00     0.158 HD
HETATM   17  H   UNL     1      39.565 -13.927   0.708  1.00  0.00     0.158 HD
ENDBRANCH  14  15
ENDBRANCH   8  10
BRANCH   9  18
HETATM   18  C   UNL     1      40.968 -10.284  -0.791  1.00  0.00     0.296 C 
BRANCH  18  19
HETATM   19  N   UNL     1      41.260  -9.102  -1.685  1.00  0.00    -0.066 N 
HETATM   20  H   UNL     1      40.569  -8.380  -1.429  1.00  0.00     0.280 HD
HETATM   21  C   UNL     1      42.647  -8.530  -1.501  1.00  0.00     0.235 C 
HETATM   22  C   UNL     1      42.774  -7.256  -2.328  1.00  0.00     0.028 C 
HETATM   23  C   UNL     1      42.461  -7.501  -3.799  1.00  0.00     0.003 C 
HETATM   24  C   UNL     1      41.103  -8.173  -3.973  1.00  0.00     0.028 C 
HETATM   25  C   UNL     1      40.989  -9.437  -3.135  1.00  0.00     0.235 C 
ENDBRANCH  18  19
ENDBRANCH   9  18
ENDBRANCH   2   5
BRANCH   1  26
HETATM   26  N   UNL     1      40.166  -9.596   2.817  1.00  0.00    -0.184 NA
HETATM   27  C   UNL     1      41.273  -9.575   3.487  1.00  0.00     0.150 C 
BRANCH  27  28
HETATM   28  C   UNL     1      41.712 -10.759   4.253  1.00  0.00    -0.017 A 
HETATM   29  C   UNL     1      40.833 -11.363   5.150  1.00  0.00     0.016 A 
HETATM   30  C   UNL     1      41.262 -12.468   5.892  1.00  0.00     0.037 A 
HETATM   31  C   UNL     1      42.554 -12.982   5.732  1.00  0.00     0.069 A 
HETATM   32  C   UNL     1      43.417 -12.388   4.811  1.00  0.00     0.037 A 
HETATM   33  C   UNL     1      43.001 -11.270   4.081  1.00  0.00     0.016 A 
BRANCH  31  34
HETATM   34  O   UNL     1      42.847 -14.049   6.535  1.00  0.00    -0.347 OA
BRANCH  34  35
HETATM   35  C   UNL     1      41.957 -15.162   6.495  1.00  0.00     0.216 C 
BRANCH  35  36
HETATM   36  C   UNL     1      42.487 -16.159   5.491  1.00  0.00    -0.012 A 
HETATM   37  C   UNL     1      41.951 -16.272   4.196  1.00  0.00     0.044 A 
HETATM   38 CL   UNL     1      40.641 -15.281   3.661  1.00  0.00    -0.084 Cl
HETATM   39  C   UNL     1      42.464 -17.206   3.291  1.00  0.00     0.048 A 
HETATM   40  C   UNL     1      43.524 -18.024   3.669  1.00  0.00     0.035 A 
HETATM   41 CL   UNL     1      44.151 -19.177   2.558  1.00  0.00    -0.084 Cl
HETATM   42  C   UNL     1      44.081 -17.915   4.940  1.00  0.00     0.024 A 
HETATM   43  C   UNL     1      43.569 -16.983   5.846  1.00  0.00     0.013 A 
ENDBRANCH  35  36
ENDBRANCH  34  35
ENDBRANCH  31  34
ENDBRANCH  27  28
ENDBRANCH   1  26
TORSDOF 10
ENDMDL
MODEL 10
REMARK VINA RESULT:      -8.2      2.445      3.550
REMARK  10 active torsions:
REMARK  status: ('A' for Active; 'I' for Inactive)
REMARK    1  A    between atoms: C_2  and  C_3 
REMARK    2  A    between atoms: N_4  and  N_5 
REMARK       I    between atoms: N_5  and  C_6 
REMARK    3  A    between atoms: C_6  and  C_7 
REMARK    4  A    between atoms: N_10  and  C_11 
REMARK    5  A    between atoms: C_15  and  N_16 
REMARK    6  A    between atoms: C_17  and  C_18 
REMARK    7  A    between atoms: C_18  and  N_19 
REMARK    8  A    between atoms: C_29  and  O_30 
REMARK    9  A    between atoms: O_30  and  C_31 
REMARK   10  A    between atoms: C_31  and  C_32 
ROOT
HETATM    1  N   UNL     1      39.029  -7.475   6.622  1.00  0.00    -0.242 N 
HETATM    2  C   UNL     1      38.883  -7.209   7.971  1.00  0.00     0.294 C 
HETATM    3  O   UNL     1      38.309  -6.181   8.339  1.00  0.00    -0.264 OA
HETATM    4  H   UNL     1      38.625  -6.809   5.971  1.00  0.00     0.192 HD
ENDROOT
BRANCH   2   5
HETATM    5  C   UNL     1      39.373  -8.174   8.963  1.00  0.00     0.176 A 
HETATM    6  N   UNL     1      38.665  -9.236   9.449  1.00  0.00    -0.124 NA
HETATM    7  N   UNL     1      39.406  -9.872  10.336  1.00  0.00    -0.058 NA
HETATM    8  N   UNL     1      40.613  -9.267  10.422  1.00  0.00    -0.191 N 
HETATM    9  C   UNL     1      40.629  -8.168   9.565  1.00  0.00     0.102 A 
BRANCH   8  10
HETATM   10  C   UNL     1      41.650  -9.775  11.242  1.00  0.00     0.229 A 
HETATM   11  N   UNL     1      41.526  -9.753  12.574  1.00  0.00    -0.081 NA
HETATM   12  O   UNL     1      42.725 -10.316  13.025  1.00  0.00    -0.103 OA
HETATM   13  N   UNL     1      43.560 -10.633  11.965  1.00  0.00    -0.083 NA
HETATM   14  C   UNL     1      42.897 -10.298  10.860  1.00  0.00     0.201 A 
BRANCH  14  15
HETATM   15  N   UNL     1      43.367 -10.447   9.613  1.00  0.00    -0.379 N 
HETATM   16  H   UNL     1      42.963  -9.927   8.838  1.00  0.00     0.158 HD
HETATM   17  H   UNL     1      44.164 -11.031   9.370  1.00  0.00     0.158 HD
ENDBRANCH  14  15
ENDBRANCH   8  10
BRANCH   9  18
HETATM   18  C   UNL     1      41.741  -7.195   9.450  1.00  0.00     0.296 C 
BRANCH  18  19
HETATM   19  N   UNL     1      41.671  -6.036  10.416  1.00  0.00    -0.066 N 
HETATM   20  H   UNL     1      40.667  -5.881  10.595  1.00  0.00     0.280 HD
HETATM   21  C   UNL     1      42.360  -6.303  11.735  1.00  0.00     0.235 C 
HETATM   22  C   UNL     1      42.091  -5.140  12.682  1.00  0.00     0.028 C 
HETATM   23  C   UNL     1      42.528  -3.808  12.083  1.00  0.00     0.003 C 
HETATM   24  C   UNL     1      41.910  -3.591  10.706  1.00  0.00     0.028 C 
HETATM   25  C   UNL     1      42.179  -4.763   9.776  1.00  0.00     0.235 C 
ENDBRANCH  18  19
ENDBRANCH   9  18
ENDBRANCH   2   5
BRANCH   1  26
HETATM   26  N   UNL     1      39.729  -8.535   6.147  1.00  0.00    -0.184 NA
HETATM   27  C   UNL     1      39.039  -9.535   5.702  1.00  0.00     0.150 C 
BRANCH  27  28
HETATM   28  C   UNL     1      39.712 -10.719   5.130  1.00  0.00    -0.017 A 
HETATM   29  C   UNL     1      40.747 -11.330   5.836  1.00  0.00     0.016 A 
HETATM   30  C   UNL     1      41.399 -12.434   5.277  1.00  0.00     0.037 A 
HETATM   31  C   UNL     1      41.014 -12.941   4.030  1.00  0.00     0.069 A 
HETATM   32  C   UNL     1      39.958 -12.339   3.345  1.00  0.00     0.037 A 
HETATM   33  C   UNL     1      39.316 -11.222   3.888  1.00  0.00     0.016 A 
BRANCH  31  34
HETATM   34  O   UNL     1      41.750 -14.008   3.596  1.00  0.00    -0.347 OA
BRANCH  34  35
HETATM   35  C   UNL     1      42.582 -14.661   4.552  1.00  0.00     0.216 C 
BRANCH  35  36
HETATM   36  C   UNL     1      42.932 -16.031   4.020  1.00  0.00    -0.012 A 
HETATM   37  C   UNL     1      43.808 -16.896   4.701  1.00  0.00     0.044 A 
HETATM   38 CL   UNL     1      44.552 -16.449   6.195  1.00  0.00    -0.084 Cl
HETATM   39  C   UNL     1      44.113 -18.157   4.181  1.00  0.00     0.048 A 
HETATM   40  C   UNL     1      43.534 -18.568   2.985  1.00  0.00     0.035 A 
HETATM   41 CL   UNL     1      43.913 -20.118   2.342  1.00  0.00    -0.084 Cl
HETATM   42  C   UNL     1      42.651 -17.735   2.305  1.00  0.00     0.024 A 
HETATM   43  C   UNL     1      42.346 -16.474   2.822  1.00  0.00     0.013 A 
ENDBRANCH  35  36
ENDBRANCH  34  35
ENDBRANCH  31  34
ENDBRANCH  27  28
ENDBRANCH   1  26
TORSDOF 10
ENDMDL
