MODEL 1
REMARK VINA RESULT:      -9.9      0.000      0.000
REMARK  8 active torsions:
REMARK  status: ('A' for Active; 'I' for Inactive)
REMARK    1  A    between atoms: C_2  and  N_3 
REMARK       I    between atoms: N_3  and  C_4 
REMARK       I    between atoms: C_4  and  N_5 
REMARK    2  A    between atoms: N_5  and  C_6 
REMARK    3  A    between atoms: N_5  and  C_21 
REMARK    4  A    between atoms: C_6  and  C_7 
REMARK    5  A    between atoms: C_8  and  O_9 
REMARK    6  A    between atoms: C_21  and  C_22 
REMARK    7  A    between atoms: C_22  and  C_23 
REMARK    8  A    between atoms: C_23  and  N_24 
ROOT
HETATM    1  N   UNL     1      43.402 -15.817   3.906  1.00  0.00    -0.309 N 
HETATM    2  C   UNL     1      42.502 -15.176   4.724  1.00  0.00     0.323 C 
HETATM    3  N   UNL     1      42.431 -13.784   4.562  1.00  0.00    -0.330 N 
HETATM    4  O   UNL     1      41.784 -15.733   5.552  1.00  0.00    -0.247 OA
HETATM    5  H   UNL     1      44.191 -15.270   3.594  1.00  0.00     0.170 HD
ENDROOT
BRANCH   3   6
HETATM    6  C   UNL     1      43.132 -13.070   3.484  1.00  0.00     0.170 C 
BRANCH   6   7
HETATM    7  C   UNL     1      42.316 -12.730   2.269  1.00  0.00     0.013 A 
HETATM    8  C   UNL     1      41.997 -11.434   1.880  1.00  0.00     0.170 A 
HETATM    9  N   UNL     1      41.251 -11.119   0.806  1.00  0.00    -0.224 NA
HETATM   10  C   UNL     1      40.685 -12.119   0.107  1.00  0.00     0.072 A 
HETATM   11  C   UNL     1      40.907 -13.483   0.437  1.00  0.00    -0.004 A 
HETATM   12  C   UNL     1      39.839 -11.823  -0.956  1.00  0.00     0.072 A 
HETATM   13  C   UNL     1      41.747 -13.765   1.520  1.00  0.00     0.027 A 
HETATM   14  C   UNL     1      40.290 -14.518  -0.288  1.00  0.00     0.053 A 
HETATM   15  C   UNL     1      39.451 -14.168  -1.318  1.00  0.00     0.106 A 
HETATM   16  C   UNL     1      39.231 -12.855  -1.644  1.00  0.00     0.107 A 
HETATM   17  O   UNL     1      38.753 -15.028  -2.103  1.00  0.00    -0.323 OA
HETATM   18  O   UNL     1      38.364 -12.721  -2.682  1.00  0.00    -0.323 OA
HETATM   19  C   UNL     1      38.034 -14.102  -2.947  1.00  0.00     0.352 A 
BRANCH   8  20
HETATM   20  O   UNL     1      42.461 -10.342   2.558  1.00  0.00    -0.344 OA
HETATM   21  H   UNL     1      42.990 -10.676   3.301  1.00  0.00     0.219 HD
ENDBRANCH   8  20
ENDBRANCH   6   7
ENDBRANCH   3   6
BRANCH   3  22
HETATM   22  C   UNL     1      42.004 -13.017   5.745  1.00  0.00     0.129 C 
BRANCH  22  23
HETATM   23  C   UNL     1      42.893 -11.827   6.142  1.00  0.00     0.048 C 
BRANCH  23  24
HETATM   24  C   UNL     1      44.070 -12.212   7.031  1.00  0.00     0.236 C 
BRANCH  24  25
HETATM   25  N   UNL     1      44.579 -11.026   7.828  1.00  0.00    -0.067 N 
HETATM   26  H   UNL     1      44.639 -11.307   8.814  1.00  0.00     0.280 HD
HETATM   27  C   UNL     1      45.962 -10.540   7.391  1.00  0.00     0.261 C 
HETATM   28  C   UNL     1      46.357  -9.316   8.229  1.00  0.00     0.195 C 
HETATM   29  O   UNL     1      45.390  -8.267   8.108  1.00  0.00    -0.388 OA
HETATM   30  C   UNL     1      44.099  -8.680   8.563  1.00  0.00     0.195 C 
HETATM   31  C   UNL     1      43.583  -9.865   7.744  1.00  0.00     0.261 C 
ENDBRANCH  24  25
ENDBRANCH  23  24
ENDBRANCH  22  23
ENDBRANCH   3  22
BRANCH   1  32
HETATM   32  C   UNL     1      43.576 -17.211   3.753  1.00  0.00     0.036 A 
HETATM   33  C   UNL     1      44.164 -18.033   4.718  1.00  0.00     0.032 A 
HETATM   34  C   UNL     1      44.298 -19.405   4.488  1.00  0.00     0.044 A 
HETATM   35  C   UNL     1      43.836 -19.955   3.299  1.00  0.00     0.116 A 
HETATM   36  C   UNL     1      43.236 -19.157   2.334  1.00  0.00     0.044 A 
HETATM   37  F   UNL     1      43.968 -21.269   3.081  1.00  0.00    -0.206 F 
HETATM   38  C   UNL     1      43.102 -17.785   2.563  1.00  0.00     0.032 A 
ENDBRANCH   1  32
TORSDOF 8
ENDMDL
MODEL 2
REMARK VINA RESULT:      -9.4      2.441      3.006
REMARK  8 active torsions:
REMARK  status: ('A' for Active; 'I' for Inactive)
REMARK    1  A    between atoms: C_2  and  N_3 
REMARK       I    between atoms: N_3  and  C_4 
REMARK       I    between atoms: C_4  and  N_5 
REMARK    2  A    between atoms: N_5  and  C_6 
REMARK    3  A    between atoms: N_5  and  C_21 
REMARK    4  A    between atoms: C_6  and  C_7 
REMARK    5  A    between atoms: C_8  and  O_9 
REMARK    6  A    between atoms: C_21  and  C_22 
REMARK    7  A    between atoms: C_22  and  C_23 
REMARK    8  A    between atoms: C_23  and  N_24 
ROOT
HETATM    1  N   UNL     1      43.118 -15.973   3.960  1.00  0.00    -0.309 N 
HETATM    2  C   UNL     1      42.069 -15.429   4.660  1.00  0.00     0.323 C 
HETATM    3  N   UNL     1      41.926 -14.038   4.541  1.00  0.00    -0.330 N 
HETATM    4  O   UNL     1      41.280 -16.067   5.353  1.00  0.00    -0.247 OA
HETATM    5  H   UNL     1      43.905 -15.364   3.787  1.00  0.00     0.170 HD
ENDROOT
BRANCH   3   6
HETATM    6  C   UNL     1      42.723 -13.232   3.604  1.00  0.00     0.170 C 
BRANCH   6   7
HETATM    7  C   UNL     1      42.078 -12.909   2.286  1.00  0.00     0.013 A 
HETATM    8  C   UNL     1      41.951 -11.624   1.773  1.00  0.00     0.170 A 
HETATM    9  N   UNL     1      41.358 -11.322   0.604  1.00  0.00    -0.224 NA
HETATM   10  C   UNL     1      40.755 -12.311  -0.080  1.00  0.00     0.072 A 
HETATM   11  C   UNL     1      40.785 -13.658   0.369  1.00  0.00    -0.004 A 
HETATM   12  C   UNL     1      40.059 -12.016  -1.248  1.00  0.00     0.072 A 
HETATM   13  C   UNL     1      41.473 -13.937   1.555  1.00  0.00     0.027 A 
HETATM   14  C   UNL     1      40.129 -14.678  -0.343  1.00  0.00     0.053 A 
HETATM   15  C   UNL     1      39.444 -14.327  -1.481  1.00  0.00     0.106 A 
HETATM   16  C   UNL     1      39.410 -13.031  -1.922  1.00  0.00     0.107 A 
HETATM   17  O   UNL     1      38.735 -15.171  -2.275  1.00  0.00    -0.323 OA
HETATM   18  O   UNL     1      38.673 -12.892  -3.056  1.00  0.00    -0.323 OA
HETATM   19  C   UNL     1      38.216 -14.247  -3.256  1.00  0.00     0.352 A 
BRANCH   8  20
HETATM   20  O   UNL     1      42.466 -10.535   2.418  1.00  0.00    -0.344 OA
HETATM   21  H   UNL     1      42.714 -10.827   3.310  1.00  0.00     0.219 HD
ENDBRANCH   8  20
ENDBRANCH   6   7
ENDBRANCH   3   6
BRANCH   3  22
HETATM   22  C   UNL     1      41.282 -13.355   5.676  1.00  0.00     0.129 C 
BRANCH  22  23
HETATM   23  C   UNL     1      39.832 -12.891   5.458  1.00  0.00     0.048 C 
BRANCH  23  24
HETATM   24  C   UNL     1      39.483 -11.604   6.197  1.00  0.00     0.236 C 
BRANCH  24  25
HETATM   25  N   UNL     1      39.315 -10.438   5.241  1.00  0.00    -0.067 N 
HETATM   26  H   UNL     1      38.493  -9.900   5.536  1.00  0.00     0.280 HD
HETATM   27  C   UNL     1      40.515  -9.490   5.212  1.00  0.00     0.261 C 
HETATM   28  C   UNL     1      40.258  -8.379   4.185  1.00  0.00     0.195 C 
HETATM   29  O   UNL     1      40.009  -8.920   2.883  1.00  0.00    -0.388 OA
HETATM   30  C   UNL     1      38.857  -9.769   2.872  1.00  0.00     0.195 C 
HETATM   31  C   UNL     1      39.040 -10.952   3.825  1.00  0.00     0.261 C 
ENDBRANCH  24  25
ENDBRANCH  23  24
ENDBRANCH  22  23
ENDBRANCH   3  22
BRANCH   1  32
HETATM   32  C   UNL     1      43.408 -17.345   3.782  1.00  0.00     0.036 A 
HETATM   33  C   UNL     1      44.026 -18.141   4.751  1.00  0.00     0.032 A 
HETATM   34  C   UNL     1      44.276 -19.493   4.495  1.00  0.00     0.044 A 
HETATM   35  C   UNL     1      43.902 -20.048   3.278  1.00  0.00     0.116 A 
HETATM   36  C   UNL     1      43.275 -19.275   2.310  1.00  0.00     0.044 A 
HETATM   37  F   UNL     1      44.146 -21.341   3.036  1.00  0.00    -0.206 F 
HETATM   38  C   UNL     1      43.024 -17.925   2.564  1.00  0.00     0.032 A 
ENDBRANCH   1  32
TORSDOF 8
ENDMDL
MODEL 3
REMARK VINA RESULT:      -9.3      2.878      6.764
REMARK  8 active torsions:
REMARK  status: ('A' for Active; 'I' for Inactive)
REMARK    1  A    between atoms: C_2  and  N_3 
REMARK       I    between atoms: N_3  and  C_4 
REMARK       I    between atoms: C_4  and  N_5 
REMARK    2  A    between atoms: N_5  and  C_6 
REMARK    3  A    between atoms: N_5  and  C_21 
REMARK    4  A    between atoms: C_6  and  C_7 
REMARK    5  A    between atoms: C_8  and  O_9 
REMARK    6  A    between atoms: C_21  and  C_22 
REMARK    7  A    between atoms: C_22  and  C_23 
REMARK    8  A    between atoms: C_23  and  N_24 
ROOT
HETATM    1  N   UNL     1      39.065 -12.813   0.413  1.00  0.00    -0.309 N 
HETATM    2  C   UNL     1      40.147 -12.035   0.746  1.00  0.00     0.323 C 
HETATM    3  N   UNL     1      40.320 -11.806   2.120  1.00  0.00    -0.330 N 
HETATM    4  O   UNL     1      40.941 -11.553  -0.059  1.00  0.00    -0.247 OA
HETATM    5  H   UNL     1      38.288 -12.799   1.058  1.00  0.00     0.170 HD
ENDROOT
BRANCH   3   6
HETATM    6  C   UNL     1      39.514 -12.481   3.148  1.00  0.00     0.170 C 
BRANCH   6   7
HETATM    7  C   UNL     1      40.186 -13.600   3.893  1.00  0.00     0.013 A 
HETATM    8  C   UNL     1      40.198 -13.719   5.277  1.00  0.00     0.170 A 
HETATM    9  N   UNL     1      40.813 -14.706   5.955  1.00  0.00    -0.224 NA
HETATM   10  C   UNL     1      41.555 -15.589   5.263  1.00  0.00     0.072 A 
HETATM   11  C   UNL     1      41.649 -15.540   3.847  1.00  0.00    -0.004 A 
HETATM   12  C   UNL     1      42.272 -16.568   5.943  1.00  0.00     0.072 A 
HETATM   13  C   UNL     1      40.937 -14.539   3.178  1.00  0.00     0.027 A 
HETATM   14  C   UNL     1      42.447 -16.456   3.137  1.00  0.00     0.053 A 
HETATM   15  C   UNL     1      43.146 -17.391   3.861  1.00  0.00     0.106 A 
HETATM   16  C   UNL     1      43.061 -17.447   5.228  1.00  0.00     0.107 A 
HETATM   17  O   UNL     1      43.982 -18.331   3.349  1.00  0.00    -0.323 OA
HETATM   18  O   UNL     1      43.835 -18.433   5.752  1.00  0.00    -0.323 OA
HETATM   19  C   UNL     1      44.447 -18.969   4.559  1.00  0.00     0.352 A 
BRANCH   8  20
HETATM   20  O   UNL     1      39.536 -12.838   6.084  1.00  0.00    -0.344 OA
HETATM   21  H   UNL     1      38.868 -12.398   5.532  1.00  0.00     0.219 HD
ENDBRANCH   8  20
ENDBRANCH   6   7
ENDBRANCH   3   6
BRANCH   3  22
HETATM   22  C   UNL     1      41.014 -10.559   2.484  1.00  0.00     0.129 C 
BRANCH  22  23
HETATM   23  C   UNL     1      42.233 -10.703   3.410  1.00  0.00     0.048 C 
BRANCH  23  24
HETATM   24  C   UNL     1      41.937 -10.373   4.868  1.00  0.00     0.236 C 
BRANCH  24  25
HETATM   25  N   UNL     1      43.151 -10.601   5.750  1.00  0.00    -0.067 N 
HETATM   26  H   UNL     1      43.956 -10.145   5.306  1.00  0.00     0.280 HD
HETATM   27  C   UNL     1      43.001 -10.027   7.160  1.00  0.00     0.261 C 
HETATM   28  C   UNL     1      44.261 -10.351   7.975  1.00  0.00     0.195 C 
HETATM   29  O   UNL     1      44.502 -11.762   8.024  1.00  0.00    -0.388 OA
HETATM   30  C   UNL     1      44.700 -12.313   6.719  1.00  0.00     0.195 C 
HETATM   31  C   UNL     1      43.466 -12.097   5.840  1.00  0.00     0.261 C 
ENDBRANCH  24  25
ENDBRANCH  23  24
ENDBRANCH  22  23
ENDBRANCH   3  22
BRANCH   1  32
HETATM   32  C   UNL     1      38.737 -13.320  -0.865  1.00  0.00     0.036 A 
HETATM   33  C   UNL     1      37.827 -12.711  -1.734  1.00  0.00     0.032 A 
HETATM   34  C   UNL     1      37.559 -13.278  -2.984  1.00  0.00     0.044 A 
HETATM   35  C   UNL     1      38.208 -14.445  -3.367  1.00  0.00     0.116 A 
HETATM   36  C   UNL     1      39.125 -15.056  -2.523  1.00  0.00     0.044 A 
HETATM   37  F   UNL     1      37.946 -14.986  -4.563  1.00  0.00    -0.206 F 
HETATM   38  C   UNL     1      39.393 -14.491  -1.274  1.00  0.00     0.032 A 
ENDBRANCH   1  32
TORSDOF 8
ENDMDL
MODEL 4
REMARK VINA RESULT:      -9.3      3.628      8.593
REMARK  8 active torsions:
REMARK  status: ('A' for Active; 'I' for Inactive)
REMARK    1  A    between atoms: C_2  and  N_3 
REMARK       I    between atoms: N_3  and  C_4 
REMARK       I    between atoms: C_4  and  N_5 
REMARK    2  A    between atoms: N_5  and  C_6 
REMARK    3  A    between atoms: N_5  and  C_21 
REMARK    4  A    between atoms: C_6  and  C_7 
REMARK    5  A    between atoms: C_8  and  O_9 
REMARK    6  A    between atoms: C_21  and  C_22 
REMARK    7  A    between atoms: C_22  and  C_23 
REMARK    8  A    between atoms: C_23  and  N_24 
ROOT
HETATM    1  N   UNL     1      42.966 -10.343   7.317  1.00  0.00    -0.309 N 
HETATM    2  C   UNL     1      41.750 -10.596   6.731  1.00  0.00     0.323 C 
HETATM    3  N   UNL     1      41.801 -11.335   5.539  1.00  0.00    -0.330 N 
HETATM    4  O   UNL     1      40.664 -10.229   7.177  1.00  0.00    -0.247 OA
HETATM    5  H   UNL     1      43.763 -10.311   6.698  1.00  0.00     0.170 HD
ENDROOT
BRANCH   3   6
HETATM    6  C   UNL     1      43.038 -11.948   5.034  1.00  0.00     0.170 C 
BRANCH   6   7
HETATM    7  C   UNL     1      43.171 -13.433   5.221  1.00  0.00     0.013 A 
HETATM    8  C   UNL     1      43.505 -14.041   6.426  1.00  0.00     0.170 A 
HETATM    9  N   UNL     1      43.646 -15.368   6.600  1.00  0.00    -0.224 NA
HETATM   10  C   UNL     1      43.558 -16.166   5.522  1.00  0.00     0.072 A 
HETATM   11  C   UNL     1      43.261 -15.651   4.231  1.00  0.00    -0.004 A 
HETATM   12  C   UNL     1      43.784 -17.532   5.655  1.00  0.00     0.072 A 
HETATM   13  C   UNL     1      43.053 -14.273   4.109  1.00  0.00     0.027 A 
HETATM   14  C   UNL     1      43.195 -16.494   3.107  1.00  0.00     0.053 A 
HETATM   15  C   UNL     1      43.443 -17.832   3.295  1.00  0.00     0.106 A 
HETATM   16  C   UNL     1      43.730 -18.338   4.536  1.00  0.00     0.107 A 
HETATM   17  O   UNL     1      43.450 -18.783   2.326  1.00  0.00    -0.323 OA
HETATM   18  O   UNL     1      43.953 -19.679   4.506  1.00  0.00    -0.323 OA
HETATM   19  C   UNL     1      43.811 -19.952   3.095  1.00  0.00     0.352 A 
BRANCH   8  20
HETATM   20  O   UNL     1      43.686 -13.320   7.573  1.00  0.00    -0.344 OA
HETATM   21  H   UNL     1      42.815 -12.976   7.830  1.00  0.00     0.219 HD
ENDBRANCH   8  20
ENDBRANCH   6   7
ENDBRANCH   3   6
BRANCH   3  22
HETATM   22  C   UNL     1      40.696 -11.110   4.591  1.00  0.00     0.129 C 
BRANCH  22  23
HETATM   23  C   UNL     1      39.820 -12.330   4.265  1.00  0.00     0.048 C 
BRANCH  23  24
HETATM   24  C   UNL     1      38.905 -12.123   3.063  1.00  0.00     0.236 C 
BRANCH  24  25
HETATM   25  N   UNL     1      39.074 -13.227   2.036  1.00  0.00    -0.067 N 
HETATM   26  H   UNL     1      38.139 -13.540   1.748  1.00  0.00     0.280 HD
HETATM   27  C   UNL     1      39.832 -12.789   0.782  1.00  0.00     0.261 C 
HETATM   28  C   UNL     1      39.983 -13.989  -0.164  1.00  0.00     0.195 C 
HETATM   29  O   UNL     1      40.654 -15.079   0.479  1.00  0.00    -0.388 OA
HETATM   30  C   UNL     1      39.934 -15.543   1.626  1.00  0.00     0.195 C 
HETATM   31  C   UNL     1      39.783 -14.430   2.665  1.00  0.00     0.261 C 
ENDBRANCH  24  25
ENDBRANCH  23  24
ENDBRANCH  22  23
ENDBRANCH   3  22
BRANCH   1  32
HETATM   32  C   UNL     1      43.201  -9.756   8.581  1.00  0.00     0.036 A 
HETATM   33  C   UNL     1      42.860  -8.439   8.903  1.00  0.00     0.032 A 
HETATM   34  C   UNL     1      43.126  -7.934  10.180  1.00  0.00     0.044 A 
HETATM   35  C   UNL     1      43.724  -8.748  11.134  1.00  0.00     0.116 A 
HETATM   36  C   UNL     1      44.058 -10.062  10.836  1.00  0.00     0.044 A 
HETATM   37  F   UNL     1      43.980  -8.260  12.353  1.00  0.00    -0.206 F 
HETATM   38  C   UNL     1      43.792 -10.567   9.561  1.00  0.00     0.032 A 
ENDBRANCH   1  32
TORSDOF 8
ENDMDL
MODEL 5
REMARK VINA RESULT:      -9.2      2.937      6.832
REMARK  8 active torsions:
REMARK  status: ('A' for Active; 'I' for Inactive)
REMARK    1  A    between atoms: C_2  and  N_3 
REMARK       I    between atoms: N_3  and  C_4 
REMARK       I    between atoms: C_4  and  N_5 
REMARK    2  A    between atoms: N_5  and  C_6 
REMARK    3  A    between atoms: N_5  and  C_21 
REMARK    4  A    between atoms: C_6  and  C_7 
REMARK    5  A    between atoms: C_8  and  O_9 
REMARK    6  A    between atoms: C_21  and  C_22 
REMARK    7  A    between atoms: C_22  and  C_23 
REMARK    8  A    between atoms: C_23  and  N_24 
ROOT
HETATM    1  N   UNL     1      43.051 -12.611   6.736  1.00  0.00    -0.309 N 
HETATM    2  C   UNL     1      43.255 -13.939   6.449  1.00  0.00     0.323 C 
HETATM    3  N   UNL     1      42.201 -14.575   5.776  1.00  0.00    -0.330 N 
HETATM    4  O   UNL     1      44.269 -14.573   6.735  1.00  0.00    -0.247 OA
HETATM    5  H   UNL     1      42.091 -12.318   6.841  1.00  0.00     0.170 HD
ENDROOT
BRANCH   3   6
HETATM    6  C   UNL     1      41.033 -13.849   5.255  1.00  0.00     0.170 C 
BRANCH   6   7
HETATM    7  C   UNL     1      41.074 -13.476   3.800  1.00  0.00     0.013 A 
HETATM    8  C   UNL     1      41.567 -12.269   3.318  1.00  0.00     0.170 A 
HETATM    9  N   UNL     1      41.590 -11.916   2.020  1.00  0.00    -0.224 NA
HETATM   10  C   UNL     1      41.011 -12.737   1.126  1.00  0.00     0.072 A 
HETATM   11  C   UNL     1      40.438 -13.979   1.509  1.00  0.00    -0.004 A 
HETATM   12  C   UNL     1      40.942 -12.360  -0.212  1.00  0.00     0.072 A 
HETATM   13  C   UNL     1      40.498 -14.337   2.861  1.00  0.00     0.027 A 
HETATM   14  C   UNL     1      39.814 -14.816   0.567  1.00  0.00     0.053 A 
HETATM   15  C   UNL     1      39.761 -14.386  -0.736  1.00  0.00     0.106 A 
HETATM   16  C   UNL     1      40.311 -13.190  -1.117  1.00  0.00     0.107 A 
HETATM   17  O   UNL     1      39.178 -15.047  -1.769  1.00  0.00    -0.323 OA
HETATM   18  O   UNL     1      40.144 -12.945  -2.444  1.00  0.00    -0.323 OA
HETATM   19  C   UNL     1      39.392 -14.110  -2.847  1.00  0.00     0.352 A 
BRANCH   8  20
HETATM   20  O   UNL     1      42.116 -11.330   4.145  1.00  0.00    -0.344 OA
HETATM   21  H   UNL     1      41.387 -10.950   4.663  1.00  0.00     0.219 HD
ENDBRANCH   8  20
ENDBRANCH   6   7
ENDBRANCH   3   6
BRANCH   3  22
HETATM   22  C   UNL     1      42.081 -16.028   5.990  1.00  0.00     0.129 C 
BRANCH  22  23
HETATM   23  C   UNL     1      42.218 -16.915   4.742  1.00  0.00     0.048 C 
BRANCH  23  24
HETATM   24  C   UNL     1      43.620 -16.918   4.144  1.00  0.00     0.236 C 
BRANCH  24  25
HETATM   25  N   UNL     1      44.084 -18.325   3.816  1.00  0.00    -0.067 N 
HETATM   26  H   UNL     1      45.083 -18.284   3.581  1.00  0.00     0.280 HD
HETATM   27  C   UNL     1      43.911 -19.313   4.970  1.00  0.00     0.261 C 
HETATM   28  C   UNL     1      44.367 -20.707   4.516  1.00  0.00     0.195 C 
HETATM   29  O   UNL     1      43.641 -21.143   3.362  1.00  0.00    -0.388 OA
HETATM   30  C   UNL     1      43.832 -20.263   2.250  1.00  0.00     0.195 C 
HETATM   31  C   UNL     1      43.346 -18.850   2.581  1.00  0.00     0.261 C 
ENDBRANCH  24  25
ENDBRANCH  23  24
ENDBRANCH  22  23
ENDBRANCH   3  22
BRANCH   1  32
HETATM   32  C   UNL     1      43.988 -11.698   7.269  1.00  0.00     0.036 A 
HETATM   33  C   UNL     1      45.295 -11.557   6.794  1.00  0.00     0.032 A 
HETATM   34  C   UNL     1      46.161 -10.627   7.378  1.00  0.00     0.044 A 
HETATM   35  C   UNL     1      45.717  -9.835   8.429  1.00  0.00     0.116 A 
HETATM   36  C   UNL     1      44.419  -9.950   8.905  1.00  0.00     0.044 A 
HETATM   37  F   UNL     1      46.550  -8.948   8.987  1.00  0.00    -0.206 F 
HETATM   38  C   UNL     1      43.553 -10.879   8.322  1.00  0.00     0.032 A 
ENDBRANCH   1  32
TORSDOF 8
ENDMDL
MODEL 6
REMARK VINA RESULT:      -9.2      1.648      8.215
REMARK  8 active torsions:
REMARK  status: ('A' for Active; 'I' for Inactive)
REMARK    1  A    between atoms: C_2  and  N_3 
REMARK       I    between atoms: N_3  and  C_4 
REMARK       I    between atoms: C_4  and  N_5 
REMARK    2  A    between atoms: N_5  and  C_6 
REMARK    3  A    between atoms: N_5  and  C_21 
REMARK    4  A    between atoms: C_6  and  C_7 
REMARK    5  A    between atoms: C_8  and  O_9 
REMARK    6  A    between atoms: C_21  and  C_22 
REMARK    7  A    between atoms: C_22  and  C_23 
REMARK    8  A    between atoms: C_23  and  N_24 
ROOT
HETATM    1  N   UNL     1      42.540 -16.354   3.460  1.00  0.00    -0.309 N 
HETATM    2  C   UNL     1      42.828 -15.326   2.595  1.00  0.00     0.323 C 
HETATM    3  N   UNL     1      42.316 -14.072   2.964  1.00  0.00    -0.330 N 
HETATM    4  O   UNL     1      43.485 -15.438   1.563  1.00  0.00    -0.247 OA
HETATM    5  H   UNL     1      41.696 -16.257   4.006  1.00  0.00     0.170 HD
ENDROOT
BRANCH   3   6
HETATM    6  C   UNL     1      41.667 -13.826   4.260  1.00  0.00     0.170 C 
BRANCH   6   7
HETATM    7  C   UNL     1      42.468 -13.055   5.271  1.00  0.00     0.013 A 
HETATM    8  C   UNL     1      43.379 -13.631   6.147  1.00  0.00     0.170 A 
HETATM    9  N   UNL     1      44.087 -12.954   7.070  1.00  0.00    -0.224 NA
HETATM   10  C   UNL     1      43.833 -11.644   7.233  1.00  0.00     0.072 A 
HETATM   11  C   UNL     1      42.891 -10.957   6.421  1.00  0.00    -0.004 A 
HETATM   12  C   UNL     1      44.486 -10.935   8.237  1.00  0.00     0.072 A 
HETATM   13  C   UNL     1      42.229 -11.686   5.428  1.00  0.00     0.027 A 
HETATM   14  C   UNL     1      42.617  -9.591   6.619  1.00  0.00     0.053 A 
HETATM   15  C   UNL     1      43.280  -8.946   7.635  1.00  0.00     0.106 A 
HETATM   16  C   UNL     1      44.190  -9.599   8.423  1.00  0.00     0.107 A 
HETATM   17  O   UNL     1      43.122  -7.643   7.986  1.00  0.00    -0.323 OA
HETATM   18  O   UNL     1      44.725  -8.788   9.374  1.00  0.00    -0.323 OA
HETATM   19  C   UNL     1      44.017  -7.556   9.116  1.00  0.00     0.352 A 
BRANCH   8  20
HETATM   20  O   UNL     1      43.665 -14.967   6.117  1.00  0.00    -0.344 OA
HETATM   21  H   UNL     1      43.840 -15.197   5.189  1.00  0.00     0.219 HD
ENDBRANCH   8  20
ENDBRANCH   6   7
ENDBRANCH   3   6
BRANCH   3  22
HETATM   22  C   UNL     1      42.051 -13.133   1.860  1.00  0.00     0.129 C 
BRANCH  22  23
HETATM   23  C   UNL     1      40.587 -13.016   1.403  1.00  0.00     0.048 C 
BRANCH  23  24
HETATM   24  C   UNL     1      40.090 -14.228   0.623  1.00  0.00     0.236 C 
BRANCH  24  25
HETATM   25  N   UNL     1      39.434 -13.821  -0.682  1.00  0.00    -0.067 N 
HETATM   26  H   UNL     1      38.506 -13.437  -0.466  1.00  0.00     0.280 HD
HETATM   27  C   UNL     1      40.215 -12.759  -1.458  1.00  0.00     0.261 C 
HETATM   28  C   UNL     1      39.488 -12.457  -2.776  1.00  0.00     0.195 C 
HETATM   29  O   UNL     1      39.322 -13.641  -3.564  1.00  0.00    -0.388 OA
HETATM   30  C   UNL     1      38.546 -14.629  -2.880  1.00  0.00     0.195 C 
HETATM   31  C   UNL     1      39.222 -15.049  -1.573  1.00  0.00     0.261 C 
ENDBRANCH  24  25
ENDBRANCH  23  24
ENDBRANCH  22  23
ENDBRANCH   3  22
BRANCH   1  32
HETATM   32  C   UNL     1      43.043 -17.674   3.416  1.00  0.00     0.036 A 
HETATM   33  C   UNL     1      43.776 -18.262   4.451  1.00  0.00     0.032 A 
HETATM   34  C   UNL     1      44.238 -19.576   4.329  1.00  0.00     0.044 A 
HETATM   35  C   UNL     1      43.959 -20.302   3.177  1.00  0.00     0.116 A 
HETATM   36  C   UNL     1      43.222 -19.740   2.145  1.00  0.00     0.044 A 
HETATM   37  F   UNL     1      44.406 -21.559   3.063  1.00  0.00    -0.206 F 
HETATM   38  C   UNL     1      42.759 -18.427   2.266  1.00  0.00     0.032 A 
ENDBRANCH   1  32
TORSDOF 8
ENDMDL
MODEL 7
REMARK VINA RESULT:      -9.1      3.199      8.501
REMARK  8 active torsions:
REMARK  status: ('A' for Active; 'I' for Inactive)
REMARK    1  A    between atoms: C_2  and  N_3 
REMARK       I    between atoms: N_3  and  C_4 
REMARK       I    between atoms: C_4  and  N_5 
REMARK    2  A    between atoms: N_5  and  C_6 
REMARK    3  A    between atoms: N_5  and  C_21 
REMARK    4  A    between atoms: C_6  and  C_7 
REMARK    5  A    between atoms: C_8  and  O_9 
REMARK    6  A    between atoms: C_21  and  C_22 
REMARK    7  A    between atoms: C_22  and  C_23 
REMARK    8  A    between atoms: C_23  and  N_24 
ROOT
HETATM    1  N   UNL     1      43.346 -11.699   5.488  1.00  0.00    -0.309 N 
HETATM    2  C   UNL     1      42.093 -12.262   5.482  1.00  0.00     0.323 C 
HETATM    3  N   UNL     1      41.794 -13.046   4.357  1.00  0.00    -0.330 N 
HETATM    4  O   UNL     1      41.257 -12.125   6.373  1.00  0.00    -0.247 OA
HETATM    5  H   UNL     1      43.763 -11.526   4.585  1.00  0.00     0.170 HD
ENDROOT
BRANCH   3   6
HETATM    6  C   UNL     1      42.794 -13.391   3.337  1.00  0.00     0.170 C 
BRANCH   6   7
HETATM    7  C   UNL     1      43.061 -14.856   3.133  1.00  0.00     0.013 A 
HETATM    8  C   UNL     1      42.944 -15.507   1.910  1.00  0.00     0.170 A 
HETATM    9  N   UNL     1      43.160 -16.821   1.720  1.00  0.00    -0.224 NA
HETATM   10  C   UNL     1      43.412 -17.588   2.795  1.00  0.00     0.072 A 
HETATM   11  C   UNL     1      43.514 -17.038   4.101  1.00  0.00    -0.004 A 
HETATM   12  C   UNL     1      43.554 -18.964   2.642  1.00  0.00     0.072 A 
HETATM   13  C   UNL     1      43.350 -15.656   4.243  1.00  0.00     0.027 A 
HETATM   14  C   UNL     1      43.754 -17.855   5.220  1.00  0.00     0.053 A 
HETATM   15  C   UNL     1      43.870 -19.208   5.012  1.00  0.00     0.106 A 
HETATM   16  C   UNL     1      43.774 -19.749   3.757  1.00  0.00     0.107 A 
HETATM   17  O   UNL     1      44.074 -20.146   5.973  1.00  0.00    -0.323 OA
HETATM   18  O   UNL     1      43.906 -21.102   3.767  1.00  0.00    -0.323 OA
HETATM   19  C   UNL     1      44.061 -21.354   5.181  1.00  0.00     0.352 A 
BRANCH   8  20
HETATM   20  O   UNL     1      42.625 -14.838   0.762  1.00  0.00    -0.344 OA
HETATM   21  H   UNL     1      42.236 -13.989   1.030  1.00  0.00     0.219 HD
ENDBRANCH   8  20
ENDBRANCH   6   7
ENDBRANCH   3   6
BRANCH   3  22
HETATM   22  C   UNL     1      40.368 -13.143   3.998  1.00  0.00     0.129 C 
BRANCH  22  23
HETATM   23  C   UNL     1      39.993 -12.699   2.575  1.00  0.00     0.048 C 
BRANCH  23  24
HETATM   24  C   UNL     1      39.556 -13.847   1.671  1.00  0.00     0.236 C 
BRANCH  24  25
HETATM   25  N   UNL     1      39.432 -13.403   0.226  1.00  0.00    -0.067 N 
HETATM   26  H   UNL     1      38.484 -13.035   0.085  1.00  0.00     0.280 HD
HETATM   27  C   UNL     1      40.427 -12.310  -0.168  1.00  0.00     0.261 C 
HETATM   28  C   UNL     1      40.244 -11.972  -1.655  1.00  0.00     0.195 C 
HETATM   29  O   UNL     1      40.413 -13.131  -2.478  1.00  0.00    -0.388 OA
HETATM   30  C   UNL     1      39.457 -14.148  -2.165  1.00  0.00     0.195 C 
HETATM   31  C   UNL     1      39.599 -14.604  -0.711  1.00  0.00     0.261 C 
ENDBRANCH  24  25
ENDBRANCH  23  24
ENDBRANCH  22  23
ENDBRANCH   3  22
BRANCH   1  32
HETATM   32  C   UNL     1      43.962 -10.993   6.546  1.00  0.00     0.036 A 
HETATM   33  C   UNL     1      43.314 -10.019   7.312  1.00  0.00     0.032 A 
HETATM   34  C   UNL     1      43.995  -9.366   8.344  1.00  0.00     0.044 A 
HETATM   35  C   UNL     1      45.318  -9.693   8.614  1.00  0.00     0.116 A 
HETATM   36  C   UNL     1      45.974 -10.666   7.872  1.00  0.00     0.044 A 
HETATM   37  F   UNL     1      45.968  -9.064   9.600  1.00  0.00    -0.206 F 
HETATM   38  C   UNL     1      45.294 -11.319   6.841  1.00  0.00     0.032 A 
ENDBRANCH   1  32
TORSDOF 8
ENDMDL
MODEL 8
REMARK VINA RESULT:      -9.1      1.642      2.128
REMARK  8 active torsions:
REMARK  status: ('A' for Active; 'I' for Inactive)
REMARK    1  A    between atoms: C_2  and  N_3 
REMARK       I    between atoms: N_3  and  C_4 
REMARK       I    between atoms: C_4  and  N_5 
REMARK    2  A    between atoms: N_5  and  C_6 
REMARK    3  A    between atoms: N_5  and  C_21 
REMARK    4  A    between atoms: C_6  and  C_7 
REMARK    5  A    between atoms: C_8  and  O_9 
REMARK    6  A    between atoms: C_21  and  C_22 
REMARK    7  A    between atoms: C_22  and  C_23 
REMARK    8  A    between atoms: C_23  and  N_24 
ROOT
HETATM    1  N   UNL     1      43.226 -16.006   3.796  1.00  0.00    -0.309 N 
HETATM    2  C   UNL     1      42.292 -15.423   4.619  1.00  0.00     0.323 C 
HETATM    3  N   UNL     1      42.217 -14.024   4.543  1.00  0.00    -0.330 N 
HETATM    4  O   UNL     1      41.549 -16.035   5.383  1.00  0.00    -0.247 OA
HETATM    5  H   UNL     1      44.022 -15.436   3.549  1.00  0.00     0.170 HD
ENDROOT
BRANCH   3   6
HETATM    6  C   UNL     1      42.951 -13.239   3.540  1.00  0.00     0.170 C 
BRANCH   6   7
HETATM    7  C   UNL     1      42.178 -12.830   2.318  1.00  0.00     0.013 A 
HETATM    8  C   UNL     1      41.898 -11.512   1.977  1.00  0.00     0.170 A 
HETATM    9  N   UNL     1      41.190 -11.135   0.896  1.00  0.00    -0.224 NA
HETATM   10  C   UNL     1      40.625 -12.092   0.139  1.00  0.00     0.072 A 
HETATM   11  C   UNL     1      40.810 -13.473   0.415  1.00  0.00    -0.004 A 
HETATM   12  C   UNL     1      39.817 -11.732  -0.935  1.00  0.00     0.072 A 
HETATM   13  C   UNL     1      41.611 -13.819   1.508  1.00  0.00     0.027 A 
HETATM   14  C   UNL     1      40.194 -14.462  -0.372  1.00  0.00     0.053 A 
HETATM   15  C   UNL     1      39.393 -14.050  -1.409  1.00  0.00     0.106 A 
HETATM   16  C   UNL     1      39.209 -12.720  -1.684  1.00  0.00     0.107 A 
HETATM   17  O   UNL     1      38.701 -14.860  -2.251  1.00  0.00    -0.323 OA
HETATM   18  O   UNL     1      38.376 -12.523  -2.740  1.00  0.00    -0.323 OA
HETATM   19  C   UNL     1      38.026 -13.884  -3.074  1.00  0.00     0.352 A 
BRANCH   8  20
HETATM   20  O   UNL     1      42.363 -10.460   2.715  1.00  0.00    -0.344 OA
HETATM   21  H   UNL     1      41.679  -9.771   2.684  1.00  0.00     0.219 HD
ENDBRANCH   8  20
ENDBRANCH   6   7
ENDBRANCH   3   6
BRANCH   3  22
HETATM   22  C   UNL     1      41.741 -13.336   5.756  1.00  0.00     0.129 C 
BRANCH  22  23
HETATM   23  C   UNL     1      40.375 -12.638   5.652  1.00  0.00     0.048 C 
BRANCH  23  24
HETATM   24  C   UNL     1      40.459 -11.117   5.707  1.00  0.00     0.236 C 
BRANCH  24  25
HETATM   25  N   UNL     1      40.675 -10.620   7.124  1.00  0.00    -0.067 N 
HETATM   26  H   UNL     1      40.757 -11.438   7.739  1.00  0.00     0.280 HD
HETATM   27  C   UNL     1      41.937  -9.773   7.292  1.00  0.00     0.261 C 
HETATM   28  C   UNL     1      42.032  -9.289   8.746  1.00  0.00     0.195 C 
HETATM   29  O   UNL     1      40.869  -8.545   9.125  1.00  0.00    -0.388 OA
HETATM   30  C   UNL     1      39.679  -9.334   9.029  1.00  0.00     0.195 C 
HETATM   31  C   UNL     1      39.458  -9.817   7.594  1.00  0.00     0.261 C 
ENDBRANCH  24  25
ENDBRANCH  23  24
ENDBRANCH  22  23
ENDBRANCH   3  22
BRANCH   1  32
HETATM   32  C   UNL     1      43.415 -17.386   3.561  1.00  0.00     0.036 A 
HETATM   33  C   UNL     1      42.969 -18.049   2.414  1.00  0.00     0.032 A 
HETATM   34  C   UNL     1      43.199 -19.420   2.258  1.00  0.00     0.044 A 
HETATM   35  C   UNL     1      43.880 -20.122   3.244  1.00  0.00     0.116 A 
HETATM   36  C   UNL     1      44.342 -19.479   4.383  1.00  0.00     0.044 A 
HETATM   37  F   UNL     1      44.095 -21.435   3.093  1.00  0.00    -0.206 F 
HETATM   38  C   UNL     1      44.114 -18.109   4.540  1.00  0.00     0.032 A 
ENDBRANCH   1  32
TORSDOF 8
ENDMDL
MODEL 9
REMARK VINA RESULT:      -9.1      2.642      6.401
REMARK  8 active torsions:
REMARK  status: ('A' for Active; 'I' for Inactive)
REMARK    1  A    between atoms: C_2  and  N_3 
REMARK       I    between atoms: N_3  and  C_4 
REMARK       I    between atoms: C_4  and  N_5 
REMARK    2  A    between atoms: N_5  and  C_6 
REMARK    3  A    between atoms: N_5  and  C_21 
REMARK    4  A    between atoms: C_6  and  C_7 
REMARK    5  A    between atoms: C_8  and  O_9 
REMARK    6  A    between atoms: C_21  and  C_22 
REMARK    7  A    between atoms: C_22  and  C_23 
REMARK    8  A    between atoms: C_23  and  N_24 
ROOT
HETATM    1  N   UNL     1      43.096 -16.115   3.195  1.00  0.00    -0.309 N 
HETATM    2  C   UNL     1      42.016 -15.722   2.443  1.00  0.00     0.323 C 
HETATM    3  N   UNL     1      42.020 -14.376   2.045  1.00  0.00    -0.330 N 
HETATM    4  O   UNL     1      41.087 -16.455   2.110  1.00  0.00    -0.247 OA
HETATM    5  H   UNL     1      43.549 -15.395   3.738  1.00  0.00     0.170 HD
ENDROOT
BRANCH   3   6
HETATM    6  C   UNL     1      43.170 -13.485   2.260  1.00  0.00     0.170 C 
BRANCH   6   7
HETATM    7  C   UNL     1      43.038 -12.484   3.373  1.00  0.00     0.013 A 
HETATM    8  C   UNL     1      42.683 -11.153   3.186  1.00  0.00     0.170 A 
HETATM    9  N   UNL     1      42.581 -10.243   4.173  1.00  0.00    -0.224 NA
HETATM   10  C   UNL     1      42.939 -10.608   5.416  1.00  0.00     0.072 A 
HETATM   11  C   UNL     1      43.358 -11.931   5.717  1.00  0.00    -0.004 A 
HETATM   12  C   UNL     1      42.927  -9.667   6.440  1.00  0.00     0.072 A 
HETATM   13  C   UNL     1      43.382 -12.863   4.674  1.00  0.00     0.027 A 
HETATM   14  C   UNL     1      43.753 -12.293   7.018  1.00  0.00     0.053 A 
HETATM   15  C   UNL     1      43.737 -11.319   7.987  1.00  0.00     0.106 A 
HETATM   16  C   UNL     1      43.334 -10.039   7.706  1.00  0.00     0.107 A 
HETATM   17  O   UNL     1      44.108 -11.479   9.283  1.00  0.00    -0.323 OA
HETATM   18  O   UNL     1      43.401  -9.228   8.795  1.00  0.00    -0.323 OA
HETATM   19  C   UNL     1      43.928 -10.137   9.785  1.00  0.00     0.352 A 
BRANCH   8  20
HETATM   20  O   UNL     1      42.365 -10.656   1.954  1.00  0.00    -0.344 OA
HETATM   21  H   UNL     1      43.203 -10.460   1.504  1.00  0.00     0.219 HD
ENDBRANCH   8  20
ENDBRANCH   6   7
ENDBRANCH   3   6
BRANCH   3  22
HETATM   22  C   UNL     1      40.699 -13.767   1.810  1.00  0.00     0.129 C 
BRANCH  22  23
HETATM   23  C   UNL     1      39.848 -13.486   3.059  1.00  0.00     0.048 C 
BRANCH  23  24
HETATM   24  C   UNL     1      39.092 -12.163   3.000  1.00  0.00     0.236 C 
BRANCH  24  25
HETATM   25  N   UNL     1      39.403 -11.289   4.199  1.00  0.00    -0.067 N 
HETATM   26  H   UNL     1      40.394 -11.023   4.152  1.00  0.00     0.280 HD
HETATM   27  C   UNL     1      38.572 -10.006   4.256  1.00  0.00     0.261 C 
HETATM   28  C   UNL     1      38.934  -9.223   5.526  1.00  0.00     0.195 C 
HETATM   29  O   UNL     1      38.727 -10.013   6.702  1.00  0.00    -0.388 OA
HETATM   30  C   UNL     1      39.536 -11.193   6.699  1.00  0.00     0.195 C 
HETATM   31  C   UNL     1      39.206 -12.080   5.496  1.00  0.00     0.261 C 
ENDBRANCH  24  25
ENDBRANCH  23  24
ENDBRANCH  22  23
ENDBRANCH   3  22
BRANCH   1  32
HETATM   32  C   UNL     1      43.422 -17.428   3.603  1.00  0.00     0.036 A 
HETATM   33  C   UNL     1      43.616 -18.493   2.717  1.00  0.00     0.032 A 
HETATM   34  C   UNL     1      43.937 -19.764   3.204  1.00  0.00     0.044 A 
HETATM   35  C   UNL     1      44.072 -19.966   4.572  1.00  0.00     0.116 A 
HETATM   36  C   UNL     1      43.897 -18.919   5.465  1.00  0.00     0.044 A 
HETATM   37  F   UNL     1      44.376 -21.185   5.034  1.00  0.00    -0.206 F 
HETATM   38  C   UNL     1      43.576 -17.648   4.980  1.00  0.00     0.032 A 
ENDBRANCH   1  32
TORSDOF 8
ENDMDL
MODEL 10
REMARK VINA RESULT:      -8.8      3.264      7.240
REMARK  8 active torsions:
REMARK  status: ('A' for Active; 'I' for Inactive)
REMARK    1  A    between atoms: C_2  and  N_3 
REMARK       I    between atoms: N_3  and  C_4 
REMARK       I    between atoms: C_4  and  N_5 
REMARK    2  A    between atoms: N_5  and  C_6 
REMARK    3  A    between atoms: N_5  and  C_21 
REMARK    4  A    between atoms: C_6  and  C_7 
REMARK    5  A    between atoms: C_8  and  O_9 
REMARK    6  A    between atoms: C_21  and  C_22 
REMARK    7  A    between atoms: C_22  and  C_23 
REMARK    8  A    between atoms: C_23  and  N_24 
ROOT
HETATM    1  N   UNL     1      43.008 -12.669   6.926  1.00  0.00    -0.309 N 
HETATM    2  C   UNL     1      43.240 -13.985   6.607  1.00  0.00     0.323 C 
HETATM    3  N   UNL     1      42.145 -14.671   6.060  1.00  0.00    -0.330 N 
HETATM    4  O   UNL     1      44.310 -14.569   6.765  1.00  0.00    -0.247 OA
HETATM    5  H   UNL     1      42.055 -12.423   7.147  1.00  0.00     0.170 HD
ENDROOT
BRANCH   3   6
HETATM    6  C   UNL     1      40.890 -14.001   5.688  1.00  0.00     0.170 C 
BRANCH   6   7
HETATM    7  C   UNL     1      40.734 -13.633   4.240  1.00  0.00     0.013 A 
HETATM    8  C   UNL     1      40.248 -14.495   3.264  1.00  0.00     0.170 A 
HETATM    9  N   UNL     1      40.123 -14.183   1.961  1.00  0.00    -0.224 NA
HETATM   10  C   UNL     1      40.589 -12.994   1.542  1.00  0.00     0.072 A 
HETATM   11  C   UNL     1      41.145 -12.048   2.444  1.00  0.00    -0.004 A 
HETATM   12  C   UNL     1      40.553 -12.678   0.188  1.00  0.00     0.072 A 
HETATM   13  C   UNL     1      41.192 -12.386   3.801  1.00  0.00     0.027 A 
HETATM   14  C   UNL     1      41.651 -10.817   1.990  1.00  0.00     0.053 A 
HETATM   15  C   UNL     1      41.605 -10.564   0.640  1.00  0.00     0.106 A 
HETATM   16  C   UNL     1      41.070 -11.470  -0.238  1.00  0.00     0.107 A 
HETATM   17  O   UNL     1      42.069  -9.447   0.023  1.00  0.00    -0.323 OA
HETATM   18  O   UNL     1      41.128 -11.036  -1.525  1.00  0.00    -0.323 OA
HETATM   19  C   UNL     1      41.797  -9.767  -1.359  1.00  0.00     0.352 A 
BRANCH   8  20
HETATM   20  O   UNL     1      39.810 -15.754   3.565  1.00  0.00    -0.344 OA
HETATM   21  H   UNL     1      40.590 -16.267   3.834  1.00  0.00     0.219 HD
ENDBRANCH   8  20
ENDBRANCH   6   7
ENDBRANCH   3   6
BRANCH   3  22
HETATM   22  C   UNL     1      42.121 -16.128   6.278  1.00  0.00     0.129 C 
BRANCH  22  23
HETATM   23  C   UNL     1      42.634 -16.998   5.119  1.00  0.00     0.048 C 
BRANCH  23  24
HETATM   24  C   UNL     1      44.034 -17.556   5.345  1.00  0.00     0.236 C 
BRANCH  24  25
HETATM   25  N   UNL     1      44.306 -18.758   4.461  1.00  0.00    -0.067 N 
HETATM   26  H   UNL     1      45.309 -18.773   4.244  1.00  0.00     0.280 HD
HETATM   27  C   UNL     1      43.943 -20.094   5.111  1.00  0.00     0.261 C 
HETATM   28  C   UNL     1      44.215 -21.232   4.118  1.00  0.00     0.195 C 
HETATM   29  O   UNL     1      43.485 -21.047   2.900  1.00  0.00    -0.388 OA
HETATM   30  C   UNL     1      43.848 -19.828   2.243  1.00  0.00     0.195 C 
HETATM   31  C   UNL     1      43.554 -18.619   3.133  1.00  0.00     0.261 C 
ENDBRANCH  24  25
ENDBRANCH  23  24
ENDBRANCH  22  23
ENDBRANCH   3  22
BRANCH   1  32
HETATM   32  C   UNL     1      43.958 -11.711   7.349  1.00  0.00     0.036 A 
HETATM   33  C   UNL     1      43.781 -10.877   8.457  1.00  0.00     0.032 A 
HETATM   34  C   UNL     1      44.772  -9.955   8.809  1.00  0.00     0.044 A 
HETATM   35  C   UNL     1      45.940  -9.876   8.061  1.00  0.00     0.116 A 
HETATM   36  C   UNL     1      46.139 -10.706   6.967  1.00  0.00     0.044 A 
HETATM   37  F   UNL     1      46.885  -8.991   8.401  1.00  0.00    -0.206 F 
HETATM   38  C   UNL     1      45.150 -11.627   6.613  1.00  0.00     0.032 A 
ENDBRANCH   1  32
TORSDOF 8
ENDMDL
