MODEL 1
REMARK VINA RESULT:      -8.4      0.000      0.000
REMARK  7 active torsions:
REMARK  status: ('A' for Active; 'I' for Inactive)
REMARK    1  A    between atoms: C_2  and  O_3 
REMARK    2  A    between atoms: O_3  and  C_4 
REMARK    3  A    between atoms: C_4  and  C_5 
REMARK    4  A    between atoms: C_6  and  C_7 
REMARK    5  A    between atoms: C_18  and  C_19 
REMARK    6  A    between atoms: C_19  and  N_20 
REMARK    7  A    between atoms: N_20  and  C_21 
ROOT
HETATM    1  C   UNL     1      41.278 -13.209   4.191  1.00  0.00     0.068 A 
HETATM    2  C   UNL     1      41.064 -12.577   5.535  1.00  0.00     0.161 A 
HETATM    3  N   UNL     1      40.438 -13.499   6.464  1.00  0.00    -0.330 N 
HETATM    4  C   UNL     1      40.204 -14.811   6.229  1.00  0.00     0.321 A 
HETATM    5  O   UNL     1      39.734 -15.546   7.091  1.00  0.00    -0.247 OA
HETATM    6  N   UNL     1      40.511 -15.272   4.987  1.00  0.00    -0.311 N 
HETATM    7  C   UNL     1      41.026 -14.512   3.955  1.00  0.00     0.041 A 
HETATM    8  H   UNL     1      40.223 -13.182   7.400  1.00  0.00     0.165 HD
HETATM    9  H   UNL     1      40.311 -16.255   4.844  1.00  0.00     0.170 HD
ENDROOT
BRANCH   7  10
HETATM   10  C   UNL     1      41.247 -15.235   2.643  1.00  0.00     0.150 C 
BRANCH  10  11
HETATM   11  N   UNL     1      42.663 -15.575   2.558  1.00  0.00    -0.287 NA
HETATM   12  H   UNL     1      43.025 -15.464   1.614  1.00  0.00     0.128 HD
BRANCH  11  13
HETATM   13  C   UNL     1      43.089 -16.777   3.143  1.00  0.00     0.010 A 
HETATM   14  C   UNL     1      43.119 -17.938   2.361  1.00  0.00     0.047 A 
HETATM   15  C   UNL     1      43.585 -19.154   2.880  1.00  0.00     0.041 A 
HETATM   16 CL   UNL     1      43.558 -20.537   1.841  1.00  0.00    -0.084 Cl
HETATM   17  C   UNL     1      44.061 -19.237   4.193  1.00  0.00    -0.040 A 
HETATM   18  C   UNL     1      44.579 -20.517   4.783  1.00  0.00     0.050 C 
HETATM   19  C   UNL     1      44.091 -18.066   4.958  1.00  0.00     0.010 A 
HETATM   20  C   UNL     1      43.623 -16.854   4.433  1.00  0.00     0.024 A 
ENDBRANCH  11  13
ENDBRANCH  10  11
ENDBRANCH   7  10
BRANCH   1  21
HETATM   21  C   UNL     1      41.789 -12.325   3.120  1.00  0.00     0.293 C 
HETATM   22  O   UNL     1      42.928 -12.354   2.685  1.00  0.00    -0.259 OA
BRANCH  21  23
HETATM   23  O   UNL     1      40.800 -11.484   2.725  1.00  0.00    -0.318 OA
BRANCH  23  24
HETATM   24  C   UNL     1      41.216 -10.146   2.414  1.00  0.00     0.174 C 
HETATM   25  C   UNL     1      41.015  -9.230   3.607  1.00  0.00     0.034 C 
ENDBRANCH  23  24
ENDBRANCH  21  23
ENDBRANCH   1  21
BRANCH   2  26
HETATM   26  C   UNL     1      42.358 -12.042   6.138  1.00  0.00    -0.031 A 
HETATM   27  C   UNL     1      43.494 -12.864   6.217  1.00  0.00     0.011 A 
HETATM   28  C   UNL     1      44.670 -12.398   6.810  1.00  0.00     0.024 A 
HETATM   29  C   UNL     1      44.721 -11.105   7.327  1.00  0.00     0.034 A 
HETATM   30 CL   UNL     1      46.168 -10.536   8.063  1.00  0.00    -0.084 Cl
HETATM   31  C   UNL     1      43.607 -10.272   7.254  1.00  0.00     0.024 A 
HETATM   32  C   UNL     1      42.431 -10.738   6.663  1.00  0.00     0.011 A 
ENDBRANCH   2  26
TORSDOF 7
ENDMDL
MODEL 2
REMARK VINA RESULT:      -8.3      3.059      6.221
REMARK  7 active torsions:
REMARK  status: ('A' for Active; 'I' for Inactive)
REMARK    1  A    between atoms: C_2  and  O_3 
REMARK    2  A    between atoms: O_3  and  C_4 
REMARK    3  A    between atoms: C_4  and  C_5 
REMARK    4  A    between atoms: C_6  and  C_7 
REMARK    5  A    between atoms: C_18  and  C_19 
REMARK    6  A    between atoms: C_19  and  N_20 
REMARK    7  A    between atoms: N_20  and  C_21 
ROOT
HETATM    1  C   UNL     1      41.961 -14.382   4.308  1.00  0.00     0.068 A 
HETATM    2  C   UNL     1      42.551 -15.499   5.119  1.00  0.00     0.161 A 
HETATM    3  N   UNL     1      41.648 -15.928   6.170  1.00  0.00    -0.330 N 
HETATM    4  C   UNL     1      40.372 -15.505   6.329  1.00  0.00     0.321 A 
HETATM    5  O   UNL     1      39.644 -15.968   7.202  1.00  0.00    -0.247 OA
HETATM    6  N   UNL     1      39.940 -14.536   5.477  1.00  0.00    -0.311 N 
HETATM    7  C   UNL     1      40.697 -13.951   4.482  1.00  0.00     0.041 A 
HETATM    8  H   UNL     1      41.941 -16.663   6.799  1.00  0.00     0.165 HD
HETATM    9  H   UNL     1      38.985 -14.236   5.635  1.00  0.00     0.170 HD
ENDROOT
BRANCH   7  10
HETATM   10  C   UNL     1      40.014 -12.859   3.685  1.00  0.00     0.150 C 
BRANCH  10  11
HETATM   11  N   UNL     1      39.088 -13.500   2.758  1.00  0.00    -0.287 NA
HETATM   12  H   UNL     1      38.813 -14.427   3.076  1.00  0.00     0.128 HD
BRANCH  11  13
HETATM   13  C   UNL     1      39.407 -13.490   1.393  1.00  0.00     0.010 A 
HETATM   14  C   UNL     1      39.447 -12.265   0.715  1.00  0.00     0.047 A 
HETATM   15  C   UNL     1      39.811 -12.192  -0.637  1.00  0.00     0.041 A 
HETATM   16 CL   UNL     1      39.805 -10.636  -1.391  1.00  0.00    -0.084 Cl
HETATM   17  C   UNL     1      40.174 -13.344  -1.344  1.00  0.00    -0.040 A 
HETATM   18  C   UNL     1      40.583 -13.307  -2.789  1.00  0.00     0.050 C 
HETATM   19  C   UNL     1      40.197 -14.561  -0.654  1.00  0.00     0.010 A 
HETATM   20  C   UNL     1      39.831 -14.627   0.697  1.00  0.00     0.024 A 
ENDBRANCH  11  13
ENDBRANCH  10  11
ENDBRANCH   7  10
BRANCH   1  21
HETATM   21  C   UNL     1      42.843 -13.771   3.289  1.00  0.00     0.293 C 
HETATM   22  O   UNL     1      42.846 -14.071   2.107  1.00  0.00    -0.259 OA
BRANCH  21  23
HETATM   23  O   UNL     1      43.642 -12.850   3.885  1.00  0.00    -0.318 OA
BRANCH  23  24
HETATM   24  C   UNL     1      43.435 -11.492   3.470  1.00  0.00     0.174 C 
HETATM   25  C   UNL     1      42.810 -10.678   4.588  1.00  0.00     0.034 C 
ENDBRANCH  23  24
ENDBRANCH  21  23
ENDBRANCH   1  21
BRANCH   2  26
HETATM   26  C   UNL     1      42.945 -16.696   4.261  1.00  0.00    -0.031 A 
HETATM   27  C   UNL     1      42.204 -17.016   3.111  1.00  0.00     0.011 A 
HETATM   28  C   UNL     1      42.529 -18.138   2.344  1.00  0.00     0.024 A 
HETATM   29  C   UNL     1      43.598 -18.948   2.719  1.00  0.00     0.034 A 
HETATM   30 CL   UNL     1      43.992 -20.333   1.778  1.00  0.00    -0.084 Cl
HETATM   31  C   UNL     1      44.348 -18.645   3.853  1.00  0.00     0.024 A 
HETATM   32  C   UNL     1      44.023 -17.525   4.621  1.00  0.00     0.011 A 
ENDBRANCH   2  26
TORSDOF 7
ENDMDL
MODEL 3
REMARK VINA RESULT:      -7.9      2.648      4.182
REMARK  7 active torsions:
REMARK  status: ('A' for Active; 'I' for Inactive)
REMARK    1  A    between atoms: C_2  and  O_3 
REMARK    2  A    between atoms: O_3  and  C_4 
REMARK    3  A    between atoms: C_4  and  C_5 
REMARK    4  A    between atoms: C_6  and  C_7 
REMARK    5  A    between atoms: C_18  and  C_19 
REMARK    6  A    between atoms: C_19  and  N_20 
REMARK    7  A    between atoms: N_20  and  C_21 
ROOT
HETATM    1  C   UNL     1      41.799 -13.143   6.041  1.00  0.00     0.068 A 
HETATM    2  C   UNL     1      41.933 -11.648   6.012  1.00  0.00     0.161 A 
HETATM    3  N   UNL     1      43.225 -11.219   6.514  1.00  0.00    -0.330 N 
HETATM    4  C   UNL     1      44.255 -12.037   6.830  1.00  0.00     0.321 A 
HETATM    5  O   UNL     1      45.344 -11.596   7.182  1.00  0.00    -0.247 OA
HETATM    6  N   UNL     1      44.019 -13.375   6.745  1.00  0.00    -0.311 N 
HETATM    7  C   UNL     1      42.821 -13.954   6.376  1.00  0.00     0.041 A 
HETATM    8  H   UNL     1      43.428 -10.230   6.563  1.00  0.00     0.165 HD
HETATM    9  H   UNL     1      44.808 -13.956   7.002  1.00  0.00     0.170 HD
ENDROOT
BRANCH   7  10
HETATM   10  C   UNL     1      42.782 -15.468   6.396  1.00  0.00     0.150 C 
BRANCH  10  11
HETATM   11  N   UNL     1      44.002 -15.951   5.757  1.00  0.00    -0.287 NA
HETATM   12  H   UNL     1      44.592 -15.187   5.437  1.00  0.00     0.128 HD
BRANCH  11  13
HETATM   13  C   UNL     1      43.884 -16.959   4.789  1.00  0.00     0.010 A 
HETATM   14  C   UNL     1      44.134 -18.287   5.158  1.00  0.00     0.047 A 
HETATM   15  C   UNL     1      43.981 -19.339   4.245  1.00  0.00     0.041 A 
HETATM   16 CL   UNL     1      44.338 -20.940   4.792  1.00  0.00    -0.084 Cl
HETATM   17  C   UNL     1      43.545 -19.095   2.938  1.00  0.00    -0.040 A 
HETATM   18  C   UNL     1      43.356 -20.194   1.933  1.00  0.00     0.050 C 
HETATM   19  C   UNL     1      43.233 -17.777   2.583  1.00  0.00     0.010 A 
HETATM   20  C   UNL     1      43.390 -16.731   3.501  1.00  0.00     0.024 A 
ENDBRANCH  11  13
ENDBRANCH  10  11
ENDBRANCH   7  10
BRANCH   1  21
HETATM   21  C   UNL     1      40.475 -13.693   5.677  1.00  0.00     0.293 C 
HETATM   22  O   UNL     1      39.481 -13.622   6.380  1.00  0.00    -0.259 OA
BRANCH  21  23
HETATM   23  O   UNL     1      40.558 -14.292   4.462  1.00  0.00    -0.318 OA
BRANCH  23  24
HETATM   24  C   UNL     1      39.724 -13.730   3.439  1.00  0.00     0.174 C 
HETATM   25  C   UNL     1      40.275 -14.052   2.062  1.00  0.00     0.034 C 
ENDBRANCH  23  24
ENDBRANCH  21  23
ENDBRANCH   1  21
BRANCH   2  26
HETATM   26  C   UNL     1      41.707 -11.072   4.619  1.00  0.00    -0.031 A 
HETATM   27  C   UNL     1      40.618 -10.217   4.377  1.00  0.00     0.011 A 
HETATM   28  C   UNL     1      40.375  -9.721   3.093  1.00  0.00     0.024 A 
HETATM   29  C   UNL     1      41.219 -10.073   2.042  1.00  0.00     0.034 A 
HETATM   30 CL   UNL     1      40.914  -9.467   0.461  1.00  0.00    -0.084 Cl
HETATM   31  C   UNL     1      42.306 -10.915   2.263  1.00  0.00     0.024 A 
HETATM   32  C   UNL     1      42.549 -11.413   3.545  1.00  0.00     0.011 A 
ENDBRANCH   2  26
TORSDOF 7
ENDMDL
MODEL 4
REMARK VINA RESULT:      -7.8      2.852      5.528
REMARK  7 active torsions:
REMARK  status: ('A' for Active; 'I' for Inactive)
REMARK    1  A    between atoms: C_2  and  O_3 
REMARK    2  A    between atoms: O_3  and  C_4 
REMARK    3  A    between atoms: C_4  and  C_5 
REMARK    4  A    between atoms: C_6  and  C_7 
REMARK    5  A    between atoms: C_18  and  C_19 
REMARK    6  A    between atoms: C_19  and  N_20 
REMARK    7  A    between atoms: N_20  and  C_21 
ROOT
HETATM    1  C   UNL     1      42.585 -11.746   5.108  1.00  0.00     0.068 A 
HETATM    2  C   UNL     1      42.358 -12.814   6.139  1.00  0.00     0.161 A 
HETATM    3  N   UNL     1      40.947 -12.973   6.438  1.00  0.00    -0.330 N 
HETATM    4  C   UNL     1      39.932 -12.365   5.781  1.00  0.00     0.321 A 
HETATM    5  O   UNL     1      38.759 -12.605   6.046  1.00  0.00    -0.247 OA
HETATM    6  N   UNL     1      40.280 -11.470   4.818  1.00  0.00    -0.311 N 
HETATM    7  C   UNL     1      41.572 -11.129   4.470  1.00  0.00     0.041 A 
HETATM    8  H   UNL     1      40.667 -13.650   7.135  1.00  0.00     0.165 HD
HETATM    9  H   UNL     1      39.494 -11.026   4.357  1.00  0.00     0.170 HD
ENDROOT
BRANCH   7  10
HETATM   10  C   UNL     1      41.713 -10.072   3.395  1.00  0.00     0.150 C 
BRANCH  10  11
HETATM   11  N   UNL     1      42.409 -10.679   2.265  1.00  0.00    -0.287 NA
HETATM   12  H   UNL     1      42.994 -10.008   1.774  1.00  0.00     0.128 HD
BRANCH  11  13
HETATM   13  C   UNL     1      41.664 -11.469   1.379  1.00  0.00     0.010 A 
HETATM   14  C   UNL     1      41.598 -12.851   1.593  1.00  0.00     0.047 A 
HETATM   15  C   UNL     1      40.825 -13.681   0.768  1.00  0.00     0.041 A 
HETATM   16 CL   UNL     1      40.830 -15.378   1.100  1.00  0.00    -0.084 Cl
HETATM   17  C   UNL     1      40.071 -13.145  -0.282  1.00  0.00    -0.040 A 
HETATM   18  C   UNL     1      39.221 -13.997  -1.180  1.00  0.00     0.050 C 
HETATM   19  C   UNL     1      40.084 -11.757  -0.460  1.00  0.00     0.010 A 
HETATM   20  C   UNL     1      40.860 -10.934   0.366  1.00  0.00     0.024 A 
ENDBRANCH  11  13
ENDBRANCH  10  11
ENDBRANCH   7  10
BRANCH   1  21
HETATM   21  C   UNL     1      43.994 -11.400   4.817  1.00  0.00     0.293 C 
HETATM   22  O   UNL     1      44.565 -11.652   3.770  1.00  0.00    -0.259 OA
BRANCH  21  23
HETATM   23  O   UNL     1      44.534 -10.782   5.897  1.00  0.00    -0.318 OA
BRANCH  23  24
HETATM   24  C   UNL     1      45.756 -11.352   6.388  1.00  0.00     0.174 C 
HETATM   25  C   UNL     1      46.219 -10.632   7.641  1.00  0.00     0.034 C 
ENDBRANCH  23  24
ENDBRANCH  21  23
ENDBRANCH   1  21
BRANCH   2  26
HETATM   26  C   UNL     1      42.950 -14.156   5.726  1.00  0.00    -0.031 A 
HETATM   27  C   UNL     1      42.580 -14.746   4.506  1.00  0.00     0.011 A 
HETATM   28  C   UNL     1      43.082 -15.998   4.140  1.00  0.00     0.024 A 
HETATM   29  C   UNL     1      43.958 -16.670   4.990  1.00  0.00     0.034 A 
HETATM   30 CL   UNL     1      44.568 -18.214   4.540  1.00  0.00    -0.084 Cl
HETATM   31  C   UNL     1      44.340 -16.100   6.202  1.00  0.00     0.024 A 
HETATM   32  C   UNL     1      43.838 -14.849   6.569  1.00  0.00     0.011 A 
ENDBRANCH   2  26
TORSDOF 7
ENDMDL
MODEL 5
REMARK VINA RESULT:      -7.6      3.028      7.470
REMARK  7 active torsions:
REMARK  status: ('A' for Active; 'I' for Inactive)
REMARK    1  A    between atoms: C_2  and  O_3 
REMARK    2  A    between atoms: O_3  and  C_4 
REMARK    3  A    between atoms: C_4  and  C_5 
REMARK    4  A    between atoms: C_6  and  C_7 
REMARK    5  A    between atoms: C_18  and  C_19 
REMARK    6  A    between atoms: C_19  and  N_20 
REMARK    7  A    between atoms: N_20  and  C_21 
ROOT
HETATM    1  C   UNL     1      41.794 -14.235   3.449  1.00  0.00     0.068 A 
HETATM    2  C   UNL     1      40.417 -14.349   2.863  1.00  0.00     0.161 A 
HETATM    3  N   UNL     1      39.461 -13.532   3.586  1.00  0.00    -0.330 N 
HETATM    4  C   UNL     1      39.766 -12.651   4.567  1.00  0.00     0.321 A 
HETATM    5  O   UNL     1      38.910 -11.942   5.085  1.00  0.00    -0.247 OA
HETATM    6  N   UNL     1      41.069 -12.599   4.955  1.00  0.00    -0.311 N 
HETATM    7  C   UNL     1      42.090 -13.372   4.439  1.00  0.00     0.041 A 
HETATM    8  H   UNL     1      38.492 -13.539   3.298  1.00  0.00     0.165 HD
HETATM    9  H   UNL     1      41.258 -11.938   5.700  1.00  0.00     0.170 HD
ENDROOT
BRANCH   7  10
HETATM   10  C   UNL     1      43.456 -13.168   5.060  1.00  0.00     0.150 C 
BRANCH  10  11
HETATM   11  N   UNL     1      43.717 -11.733   5.096  1.00  0.00    -0.287 NA
HETATM   12  H   UNL     1      44.271 -11.427   4.300  1.00  0.00     0.128 HD
BRANCH  11  13
HETATM   13  C   UNL     1      44.180 -11.178   6.297  1.00  0.00     0.010 A 
HETATM   14  C   UNL     1      43.253 -10.634   7.195  1.00  0.00     0.047 A 
HETATM   15  C   UNL     1      43.656 -10.113   8.433  1.00  0.00     0.041 A 
HETATM   16 CL   UNL     1      42.438  -9.442   9.460  1.00  0.00    -0.084 Cl
HETATM   17  C   UNL     1      45.000 -10.145   8.820  1.00  0.00    -0.040 A 
HETATM   18  C   UNL     1      45.471  -9.609  10.141  1.00  0.00     0.050 C 
HETATM   19  C   UNL     1      45.921 -10.744   7.953  1.00  0.00     0.010 A 
HETATM   20  C   UNL     1      45.512 -11.262   6.718  1.00  0.00     0.024 A 
ENDBRANCH  11  13
ENDBRANCH  10  11
ENDBRANCH   7  10
BRANCH   1  21
HETATM   21  C   UNL     1      42.829 -15.126   2.878  1.00  0.00     0.293 C 
HETATM   22  O   UNL     1      43.621 -14.798   2.011  1.00  0.00    -0.259 OA
BRANCH  21  23
HETATM   23  O   UNL     1      42.737 -16.349   3.459  1.00  0.00    -0.318 OA
BRANCH  23  24
HETATM   24  C   UNL     1      42.487 -17.441   2.563  1.00  0.00     0.174 C 
HETATM   25  C   UNL     1      43.628 -18.441   2.606  1.00  0.00     0.034 C 
ENDBRANCH  23  24
ENDBRANCH  21  23
ENDBRANCH   1  21
BRANCH   2  26
HETATM   26  C   UNL     1      40.383 -13.989   1.382  1.00  0.00    -0.031 A 
HETATM   27  C   UNL     1      40.757 -12.702   0.960  1.00  0.00     0.011 A 
HETATM   28  C   UNL     1      40.685 -12.347  -0.390  1.00  0.00     0.024 A 
HETATM   29  C   UNL     1      40.241 -13.276  -1.329  1.00  0.00     0.034 A 
HETATM   30 CL   UNL     1      40.146 -12.835  -2.989  1.00  0.00    -0.084 Cl
HETATM   31  C   UNL     1      39.871 -14.559  -0.931  1.00  0.00     0.024 A 
HETATM   32  C   UNL     1      39.941 -14.913   0.418  1.00  0.00     0.011 A 
ENDBRANCH   2  26
TORSDOF 7
ENDMDL
MODEL 6
REMARK VINA RESULT:      -7.6      3.828      7.400
REMARK  7 active torsions:
REMARK  status: ('A' for Active; 'I' for Inactive)
REMARK    1  A    between atoms: C_2  and  O_3 
REMARK    2  A    between atoms: O_3  and  C_4 
REMARK    3  A    between atoms: C_4  and  C_5 
REMARK    4  A    between atoms: C_6  and  C_7 
REMARK    5  A    between atoms: C_18  and  C_19 
REMARK    6  A    between atoms: C_19  and  N_20 
REMARK    7  A    between atoms: N_20  and  C_21 
ROOT
HETATM    1  C   UNL     1      41.277 -14.017   2.167  1.00  0.00     0.068 A 
HETATM    2  C   UNL     1      42.741 -14.334   2.076  1.00  0.00     0.161 A 
HETATM    3  N   UNL     1      43.554 -13.249   2.593  1.00  0.00    -0.330 N 
HETATM    4  C   UNL     1      43.083 -12.148   3.224  1.00  0.00     0.321 A 
HETATM    5  O   UNL     1      43.837 -11.305   3.698  1.00  0.00    -0.247 OA
HETATM    6  N   UNL     1      41.730 -12.020   3.299  1.00  0.00    -0.311 N 
HETATM    7  C   UNL     1      40.812 -12.911   2.778  1.00  0.00     0.041 A 
HETATM    8  H   UNL     1      44.561 -13.334   2.568  1.00  0.00     0.165 HD
HETATM    9  H   UNL     1      41.415 -11.178   3.766  1.00  0.00     0.170 HD
ENDROOT
BRANCH   7  10
HETATM   10  C   UNL     1      39.355 -12.535   2.945  1.00  0.00     0.150 C 
BRANCH  10  11
HETATM   11  N   UNL     1      39.196 -11.159   2.487  1.00  0.00    -0.287 NA
HETATM   12  H   UNL     1      38.607 -10.615   3.112  1.00  0.00     0.128 HD
BRANCH  11  13
HETATM   13  C   UNL     1      38.864 -10.947   1.141  1.00  0.00     0.010 A 
HETATM   14  C   UNL     1      39.857 -10.505   0.258  1.00  0.00     0.047 A 
HETATM   15  C   UNL     1      39.592 -10.326  -1.107  1.00  0.00     0.041 A 
HETATM   16 CL   UNL     1      40.879  -9.752  -2.109  1.00  0.00    -0.084 Cl
HETATM   17  C   UNL     1      38.328 -10.613  -1.635  1.00  0.00    -0.040 A 
HETATM   18  C   UNL     1      38.007 -10.448  -3.092  1.00  0.00     0.050 C 
HETATM   19  C   UNL     1      37.351 -11.116  -0.768  1.00  0.00     0.010 A 
HETATM   20  C   UNL     1      37.622 -11.290   0.595  1.00  0.00     0.024 A 
ENDBRANCH  11  13
ENDBRANCH  10  11
ENDBRANCH   7  10
BRANCH   1  21
HETATM   21  C   UNL     1      40.352 -14.993   1.549  1.00  0.00     0.293 C 
HETATM   22  O   UNL     1      39.565 -15.688   2.169  1.00  0.00    -0.259 OA
BRANCH  21  23
HETATM   23  O   UNL     1      40.537 -14.994   0.204  1.00  0.00    -0.318 OA
BRANCH  23  24
HETATM   24  C   UNL     1      39.584 -14.232  -0.550  1.00  0.00     0.174 C 
HETATM   25  C   UNL     1      40.136 -13.891  -1.923  1.00  0.00     0.034 C 
ENDBRANCH  23  24
ENDBRANCH  21  23
ENDBRANCH   1  21
BRANCH   2  26
HETATM   26  C   UNL     1      43.101 -15.630   2.792  1.00  0.00    -0.031 A 
HETATM   27  C   UNL     1      43.301 -16.811   2.058  1.00  0.00     0.011 A 
HETATM   28  C   UNL     1      43.585 -18.014   2.708  1.00  0.00     0.024 A 
HETATM   29  C   UNL     1      43.675 -18.047   4.098  1.00  0.00     0.034 A 
HETATM   30 CL   UNL     1      44.018 -19.532   4.897  1.00  0.00    -0.084 Cl
HETATM   31  C   UNL     1      43.485 -16.887   4.844  1.00  0.00     0.024 A 
HETATM   32  C   UNL     1      43.199 -15.684   4.195  1.00  0.00     0.011 A 
ENDBRANCH   2  26
TORSDOF 7
ENDMDL
MODEL 7
REMARK VINA RESULT:      -7.6      2.613      7.337
REMARK  7 active torsions:
REMARK  status: ('A' for Active; 'I' for Inactive)
REMARK    1  A    between atoms: C_2  and  O_3 
REMARK    2  A    between atoms: O_3  and  C_4 
REMARK    3  A    between atoms: C_4  and  C_5 
REMARK    4  A    between atoms: C_6  and  C_7 
REMARK    5  A    between atoms: C_18  and  C_19 
REMARK    6  A    between atoms: C_19  and  N_20 
REMARK    7  A    between atoms: N_20  and  C_21 
ROOT
HETATM    1  C   UNL     1      41.156 -12.251   3.705  1.00  0.00     0.068 A 
HETATM    2  C   UNL     1      40.748 -12.972   2.453  1.00  0.00     0.161 A 
HETATM    3  N   UNL     1      41.011 -12.176   1.270  1.00  0.00    -0.330 N 
HETATM    4  C   UNL     1      41.679 -10.999   1.249  1.00  0.00     0.321 A 
HETATM    5  O   UNL     1      41.926 -10.416   0.198  1.00  0.00    -0.247 OA
HETATM    6  N   UNL     1      42.056 -10.491   2.454  1.00  0.00    -0.311 N 
HETATM    7  C   UNL     1      41.804 -11.070   3.681  1.00  0.00     0.041 A 
HETATM    8  H   UNL     1      40.760 -12.545   0.363  1.00  0.00     0.165 HD
HETATM    9  H   UNL     1      42.542  -9.603   2.400  1.00  0.00     0.170 HD
ENDROOT
BRANCH   7  10
HETATM   10  C   UNL     1      42.282 -10.297   4.892  1.00  0.00     0.150 C 
BRANCH  10  11
HETATM   11  N   UNL     1      43.588 -10.828   5.269  1.00  0.00    -0.287 NA
HETATM   12  H   UNL     1      43.691 -11.806   5.008  1.00  0.00     0.128 HD
BRANCH  11  13
HETATM   13  C   UNL     1      44.047 -10.584   6.571  1.00  0.00     0.010 A 
HETATM   14  C   UNL     1      43.131 -10.181   7.550  1.00  0.00     0.047 A 
HETATM   15  C   UNL     1      43.526  -9.973   8.879  1.00  0.00     0.041 A 
HETATM   16 CL   UNL     1      42.324  -9.451  10.006  1.00  0.00    -0.084 Cl
HETATM   17  C   UNL     1      44.851 -10.192   9.274  1.00  0.00    -0.040 A 
HETATM   18  C   UNL     1      45.312  -9.995  10.689  1.00  0.00     0.050 C 
HETATM   19  C   UNL     1      45.756 -10.657   8.313  1.00  0.00     0.010 A 
HETATM   20  C   UNL     1      45.354 -10.860   6.987  1.00  0.00     0.024 A 
ENDBRANCH  11  13
ENDBRANCH  10  11
ENDBRANCH   7  10
BRANCH   1  21
HETATM   21  C   UNL     1      40.814 -12.909   4.985  1.00  0.00     0.293 C 
HETATM   22  O   UNL     1      39.681 -13.030   5.419  1.00  0.00    -0.259 OA
BRANCH  21  23
HETATM   23  O   UNL     1      41.953 -13.331   5.590  1.00  0.00    -0.318 OA
BRANCH  23  24
HETATM   24  C   UNL     1      41.947 -14.694   6.036  1.00  0.00     0.174 C 
HETATM   25  C   UNL     1      43.212 -15.409   5.596  1.00  0.00     0.034 C 
ENDBRANCH  23  24
ENDBRANCH  21  23
ENDBRANCH   1  21
BRANCH   2  26
HETATM   26  C   UNL     1      41.424 -14.331   2.318  1.00  0.00    -0.031 A 
HETATM   27  C   UNL     1      40.711 -15.507   2.608  1.00  0.00     0.011 A 
HETATM   28  C   UNL     1      41.335 -16.755   2.532  1.00  0.00     0.024 A 
HETATM   29  C   UNL     1      42.676 -16.838   2.164  1.00  0.00     0.034 A 
HETATM   30 CL   UNL     1      43.445 -18.375   2.078  1.00  0.00    -0.084 Cl
HETATM   31  C   UNL     1      43.399 -15.685   1.868  1.00  0.00     0.024 A 
HETATM   32  C   UNL     1      42.776 -14.437   1.945  1.00  0.00     0.011 A 
ENDBRANCH   2  26
TORSDOF 7
ENDMDL
MODEL 8
REMARK VINA RESULT:      -7.6      3.161      4.376
REMARK  7 active torsions:
REMARK  status: ('A' for Active; 'I' for Inactive)
REMARK    1  A    between atoms: C_2  and  O_3 
REMARK    2  A    between atoms: O_3  and  C_4 
REMARK    3  A    between atoms: C_4  and  C_5 
REMARK    4  A    between atoms: C_6  and  C_7 
REMARK    5  A    between atoms: C_18  and  C_19 
REMARK    6  A    between atoms: C_19  and  N_20 
REMARK    7  A    between atoms: N_20  and  C_21 
ROOT
HETATM    1  C   UNL     1      40.572 -13.488   2.406  1.00  0.00     0.068 A 
HETATM    2  C   UNL     1      39.222 -13.040   2.885  1.00  0.00     0.161 A 
HETATM    3  N   UNL     1      39.123 -13.098   4.332  1.00  0.00    -0.330 N 
HETATM    4  C   UNL     1      40.145 -13.367   5.177  1.00  0.00     0.321 A 
HETATM    5  O   UNL     1      40.001 -13.329   6.394  1.00  0.00    -0.247 OA
HETATM    6  N   UNL     1      41.338 -13.690   4.608  1.00  0.00    -0.311 N 
HETATM    7  C   UNL     1      41.581 -13.774   3.251  1.00  0.00     0.041 A 
HETATM    8  H   UNL     1      38.252 -12.840   4.775  1.00  0.00     0.165 HD
HETATM    9  H   UNL     1      42.076 -13.898   5.271  1.00  0.00     0.170 HD
ENDROOT
BRANCH   7  10
HETATM   10  C   UNL     1      42.980 -14.196   2.852  1.00  0.00     0.150 C 
BRANCH  10  11
HETATM   11  N   UNL     1      42.876 -15.478   2.164  1.00  0.00    -0.287 NA
HETATM   12  H   UNL     1      41.994 -15.573   1.666  1.00  0.00     0.128 HD
BRANCH  11  13
HETATM   13  C   UNL     1      43.197 -16.639   2.882  1.00  0.00     0.010 A 
HETATM   14  C   UNL     1      43.256 -17.862   2.203  1.00  0.00     0.047 A 
HETATM   15  C   UNL     1      43.623 -19.045   2.860  1.00  0.00     0.041 A 
HETATM   16 CL   UNL     1      43.641 -20.508   1.939  1.00  0.00    -0.084 Cl
HETATM   17  C   UNL     1      43.968 -19.033   4.216  1.00  0.00    -0.040 A 
HETATM   18  C   UNL     1      44.379 -20.274   4.954  1.00  0.00     0.050 C 
HETATM   19  C   UNL     1      43.972 -17.802   4.883  1.00  0.00     0.010 A 
HETATM   20  C   UNL     1      43.603 -16.625   4.220  1.00  0.00     0.024 A 
ENDBRANCH  11  13
ENDBRANCH  10  11
ENDBRANCH   7  10
BRANCH   1  21
HETATM   21  C   UNL     1      40.748 -13.599   0.942  1.00  0.00     0.293 C 
HETATM   22  O   UNL     1      40.446 -14.579   0.281  1.00  0.00    -0.259 OA
BRANCH  21  23
HETATM   23  O   UNL     1      41.306 -12.455   0.470  1.00  0.00    -0.318 OA
BRANCH  23  24
HETATM   24  C   UNL     1      40.813 -12.005  -0.800  1.00  0.00     0.174 C 
HETATM   25  C   UNL     1      40.866 -10.491  -0.890  1.00  0.00     0.034 C 
ENDBRANCH  23  24
ENDBRANCH  21  23
ENDBRANCH   1  21
BRANCH   2  26
HETATM   26  C   UNL     1      38.869 -11.638   2.403  1.00  0.00    -0.031 A 
HETATM   27  C   UNL     1      37.804 -11.446   1.507  1.00  0.00     0.011 A 
HETATM   28  C   UNL     1      37.503 -10.171   1.023  1.00  0.00     0.024 A 
HETATM   29  C   UNL     1      38.262  -9.076   1.431  1.00  0.00     0.034 A 
HETATM   30 CL   UNL     1      37.894  -7.508   0.828  1.00  0.00    -0.084 Cl
HETATM   31  C   UNL     1      39.319  -9.245   2.322  1.00  0.00     0.024 A 
HETATM   32  C   UNL     1      39.622 -10.519   2.806  1.00  0.00     0.011 A 
ENDBRANCH   2  26
TORSDOF 7
ENDMDL
MODEL 9
REMARK VINA RESULT:      -7.5      2.918      4.446
REMARK  7 active torsions:
REMARK  status: ('A' for Active; 'I' for Inactive)
REMARK    1  A    between atoms: C_2  and  O_3 
REMARK    2  A    between atoms: O_3  and  C_4 
REMARK    3  A    between atoms: C_4  and  C_5 
REMARK    4  A    between atoms: C_6  and  C_7 
REMARK    5  A    between atoms: C_18  and  C_19 
REMARK    6  A    between atoms: C_19  and  N_20 
REMARK    7  A    between atoms: N_20  and  C_21 
ROOT
HETATM    1  C   UNL     1      43.309 -11.250   6.774  1.00  0.00     0.068 A 
HETATM    2  C   UNL     1      42.530  -9.980   6.595  1.00  0.00     0.161 A 
HETATM    3  N   UNL     1      41.174 -10.245   6.153  1.00  0.00    -0.330 N 
HETATM    4  C   UNL     1      40.606 -11.469   6.055  1.00  0.00     0.321 A 
HETATM    5  O   UNL     1      39.429 -11.610   5.741  1.00  0.00    -0.247 OA
HETATM    6  N   UNL     1      41.409 -12.536   6.315  1.00  0.00    -0.311 N 
HETATM    7  C   UNL     1      42.745 -12.468   6.656  1.00  0.00     0.041 A 
HETATM    8  H   UNL     1      40.554  -9.466   5.977  1.00  0.00     0.165 HD
HETATM    9  H   UNL     1      40.953 -13.436   6.219  1.00  0.00     0.170 HD
ENDROOT
BRANCH   7  10
HETATM   10  C   UNL     1      43.448 -13.794   6.856  1.00  0.00     0.150 C 
BRANCH  10  11
HETATM   11  N   UNL     1      42.475 -14.853   6.610  1.00  0.00    -0.287 NA
HETATM   12  H   UNL     1      42.086 -15.220   7.476  1.00  0.00     0.128 HD
BRANCH  11  13
HETATM   13  C   UNL     1      42.825 -15.877   5.719  1.00  0.00     0.010 A 
HETATM   14  C   UNL     1      42.907 -15.588   4.352  1.00  0.00     0.047 A 
HETATM   15  C   UNL     1      43.303 -16.561   3.423  1.00  0.00     0.041 A 
HETATM   16 CL   UNL     1      43.349 -16.112   1.754  1.00  0.00    -0.084 Cl
HETATM   17  C   UNL     1      43.656 -17.849   3.842  1.00  0.00    -0.040 A 
HETATM   18  C   UNL     1      44.098 -18.916   2.882  1.00  0.00     0.050 C 
HETATM   19  C   UNL     1      43.637 -18.124   5.214  1.00  0.00     0.010 A 
HETATM   20  C   UNL     1      43.239 -17.147   6.136  1.00  0.00     0.024 A 
ENDBRANCH  11  13
ENDBRANCH  10  11
ENDBRANCH   7  10
BRANCH   1  21
HETATM   21  C   UNL     1      44.746 -11.102   7.094  1.00  0.00     0.293 C 
HETATM   22  O   UNL     1      45.625 -10.928   6.266  1.00  0.00    -0.259 OA
BRANCH  21  23
HETATM   23  O   UNL     1      44.919 -11.208   8.436  1.00  0.00    -0.318 OA
BRANCH  23  24
HETATM   24  C   UNL     1      45.751 -10.203   9.033  1.00  0.00     0.174 C 
HETATM   25  C   UNL     1      45.269  -9.867  10.432  1.00  0.00     0.034 C 
ENDBRANCH  23  24
ENDBRANCH  21  23
ENDBRANCH   1  21
BRANCH   2  26
HETATM   26  C   UNL     1      42.501  -9.132   7.861  1.00  0.00    -0.031 A 
HETATM   27  C   UNL     1      41.782  -9.568   8.986  1.00  0.00     0.011 A 
HETATM   28  C   UNL     1      41.711  -8.776  10.136  1.00  0.00     0.024 A 
HETATM   29  C   UNL     1      42.359  -7.543  10.170  1.00  0.00     0.034 A 
HETATM   30 CL   UNL     1      42.264  -6.567  11.583  1.00  0.00    -0.084 Cl
HETATM   31  C   UNL     1      43.081  -7.095   9.066  1.00  0.00     0.024 A 
HETATM   32  C   UNL     1      43.152  -7.885   7.917  1.00  0.00     0.011 A 
ENDBRANCH   2  26
TORSDOF 7
ENDMDL
MODEL 10
REMARK VINA RESULT:      -7.4      2.523      3.451
REMARK  7 active torsions:
REMARK  status: ('A' for Active; 'I' for Inactive)
REMARK    1  A    between atoms: C_2  and  O_3 
REMARK    2  A    between atoms: O_3  and  C_4 
REMARK    3  A    between atoms: C_4  and  C_5 
REMARK    4  A    between atoms: C_6  and  C_7 
REMARK    5  A    between atoms: C_18  and  C_19 
REMARK    6  A    between atoms: C_19  and  N_20 
REMARK    7  A    between atoms: N_20  and  C_21 
ROOT
HETATM    1  C   UNL     1      40.802 -12.747   3.270  1.00  0.00     0.068 A 
HETATM    2  C   UNL     1      39.519 -12.309   3.915  1.00  0.00     0.161 A 
HETATM    3  N   UNL     1      39.262 -13.041   5.140  1.00  0.00    -0.330 N 
HETATM    4  C   UNL     1      40.120 -13.903   5.734  1.00  0.00     0.321 A 
HETATM    5  O   UNL     1      39.860 -14.432   6.809  1.00  0.00    -0.247 OA
HETATM    6  N   UNL     1      41.282 -14.157   5.074  1.00  0.00    -0.311 N 
HETATM    7  C   UNL     1      41.645 -13.619   3.855  1.00  0.00     0.041 A 
HETATM    8  H   UNL     1      38.414 -12.851   5.658  1.00  0.00     0.165 HD
HETATM    9  H   UNL     1      41.894 -14.816   5.543  1.00  0.00     0.170 HD
ENDROOT
BRANCH   7  10
HETATM   10  C   UNL     1      42.972 -14.084   3.293  1.00  0.00     0.150 C 
BRANCH  10  11
HETATM   11  N   UNL     1      42.728 -15.311   2.541  1.00  0.00    -0.287 NA
HETATM   12  H   UNL     1      41.780 -15.351   2.175  1.00  0.00     0.128 HD
BRANCH  11  13
HETATM   13  C   UNL     1      43.115 -16.528   3.122  1.00  0.00     0.010 A 
HETATM   14  C   UNL     1      43.120 -17.685   2.333  1.00  0.00     0.047 A 
HETATM   15  C   UNL     1      43.547 -18.917   2.848  1.00  0.00     0.041 A 
HETATM   16 CL   UNL     1      43.492 -20.291   1.801  1.00  0.00    -0.084 Cl
HETATM   17  C   UNL     1      44.009 -19.021   4.165  1.00  0.00    -0.040 A 
HETATM   18  C   UNL     1      44.486 -20.318   4.751  1.00  0.00     0.050 C 
HETATM   19  C   UNL     1      44.065 -17.855   4.937  1.00  0.00     0.010 A 
HETATM   20  C   UNL     1      43.635 -16.628   4.416  1.00  0.00     0.024 A 
ENDBRANCH  11  13
ENDBRANCH  10  11
ENDBRANCH   7  10
BRANCH   1  21
HETATM   21  C   UNL     1      41.106 -12.165   1.944  1.00  0.00     0.293 C 
HETATM   22  O   UNL     1      42.020 -11.389   1.723  1.00  0.00    -0.259 OA
BRANCH  21  23
HETATM   23  O   UNL     1      40.202 -12.618   1.039  1.00  0.00    -0.318 OA
BRANCH  23  24
HETATM   24  C   UNL     1      40.707 -13.558   0.080  1.00  0.00     0.174 C 
HETATM   25  C   UNL     1      40.051 -14.914   0.261  1.00  0.00     0.034 C 
ENDBRANCH  23  24
ENDBRANCH  21  23
ENDBRANCH   1  21
BRANCH   2  26
HETATM   26  C   UNL     1      39.492 -10.812   4.197  1.00  0.00    -0.031 A 
HETATM   27  C   UNL     1      38.521  -9.996   3.592  1.00  0.00     0.011 A 
HETATM   28  C   UNL     1      38.516  -8.616   3.807  1.00  0.00     0.024 A 
HETATM   29  C   UNL     1      39.480  -8.039   4.631  1.00  0.00     0.034 A 
HETATM   30 CL   UNL     1      39.477  -6.338   4.889  1.00  0.00    -0.084 Cl
HETATM   31  C   UNL     1      40.448  -8.830   5.244  1.00  0.00     0.024 A 
HETATM   32  C   UNL     1      40.455 -10.210   5.028  1.00  0.00     0.011 A 
ENDBRANCH   2  26
TORSDOF 7
ENDMDL
