MODEL 1
REMARK VINA RESULT:      -8.0      0.000      0.000
REMARK  8 active torsions:
REMARK  status: ('A' for Active; 'I' for Inactive)
REMARK    1  A    between atoms: C_8  and  C_9 
REMARK       I    between atoms: C_9  and  N_10 
REMARK    2  A    between atoms: N_10  and  N_11 
REMARK    3  A    between atoms: N_11  and  C_12 
REMARK    4  A    between atoms: C_12  and  N_13 
REMARK    5  A    between atoms: N_13  and  C_14 
REMARK    6  A    between atoms: C_15  and  O_16 
REMARK    7  A    between atoms: C_19  and  O_20 
REMARK    8  A    between atoms: C_26  and  C_27 
ROOT
HETATM    1  C   UNL     1      43.216 -11.348   4.823  1.00  0.00     0.275 C 
HETATM    2  N   UNL     1      43.508 -12.599   4.320  1.00  0.00    -0.263 N 
HETATM    3  O   UNL     1      42.741 -10.444   4.139  1.00  0.00    -0.266 OA
HETATM    4  H   UNL     1      44.079 -13.243   4.861  1.00  0.00     0.190 HD
ENDROOT
BRANCH   2   5
HETATM    5  N   UNL     1      43.338 -12.857   2.944  1.00  0.00    -0.273 N 
HETATM    6  H   UNL     1      43.453 -12.020   2.367  1.00  0.00     0.189 HD
BRANCH   5   7
HETATM    7  C   UNL     1      42.324 -13.689   2.567  1.00  0.00     0.191 C 
HETATM    8  S   UNL     1      41.417 -13.329   1.214  1.00  0.00    -0.039 SA
BRANCH   7   9
HETATM    9  N   UNL     1      41.993 -14.763   3.333  1.00  0.00    -0.330 N 
HETATM   10  H   UNL     1      41.035 -14.759   3.676  1.00  0.00     0.168 HD
BRANCH   9  11
HETATM   11  C   UNL     1      42.648 -16.002   3.534  1.00  0.00     0.068 A 
HETATM   12  C   UNL     1      43.206 -16.241   4.808  1.00  0.00     0.097 A 
HETATM   13  C   UNL     1      43.844 -17.460   5.077  1.00  0.00     0.075 A 
HETATM   14  C   UNL     1      43.916 -18.448   4.092  1.00  0.00     0.070 A 
HETATM   15  C   UNL     1      43.346 -18.212   2.841  1.00  0.00     0.039 A 
HETATM   16  C   UNL     1      42.705 -17.004   2.564  1.00  0.00     0.035 A 
BRANCH  12  17
HETATM   17  O   UNL     1      43.079 -15.206   5.706  1.00  0.00    -0.354 OA
HETATM   18  C   UNL     1      42.475 -15.497   6.960  1.00  0.00     0.210 C 
ENDBRANCH  12  17
BRANCH  14  19
HETATM   19  O   UNL     1      44.505 -19.674   4.223  1.00  0.00    -0.356 OA
HETATM   20  C   UNL     1      44.085 -20.486   5.313  1.00  0.00     0.210 C 
ENDBRANCH  14  19
ENDBRANCH   9  11
ENDBRANCH   7   9
ENDBRANCH   5   7
ENDBRANCH   2   5
BRANCH   1  21
HETATM   21  C   UNL     1      43.550 -11.183   6.221  1.00  0.00     0.098 A 
HETATM   22  C   UNL     1      43.042 -10.286   7.142  1.00  0.00     0.138 A 
HETATM   23  N   UNL     1      42.137  -9.277   7.057  1.00  0.00    -0.370 N 
HETATM   24  N   UNL     1      43.688 -10.557   8.326  1.00  0.00    -0.240 N 
HETATM   25  C   UNL     1      41.670  -8.576   8.249  1.00  0.00     0.081 C 
HETATM   26  H   UNL     1      41.912  -8.827   6.168  1.00  0.00     0.161 HD
HETATM   27  C   UNL     1      40.427  -9.273   8.796  1.00  0.00     0.032 C 
HETATM   28  C   UNL     1      42.804  -8.475   9.273  1.00  0.00     0.061 C 
HETATM   29  C   UNL     1      43.454  -9.840   9.568  1.00  0.00     0.221 C 
HETATM   30  N   UNL     1      44.527 -11.601   8.254  1.00  0.00    -0.181 NA
HETATM   31  C   UNL     1      44.479 -11.948   6.964  1.00  0.00     0.160 A 
BRANCH  29  32
HETATM   32  C   UNL     1      44.726  -9.629  10.363  1.00  0.00     0.409 C 
HETATM   33  F   UNL     1      45.726  -9.109   9.618  1.00  0.00    -0.169 F 
HETATM   34  F   UNL     1      44.487  -8.733  11.362  1.00  0.00    -0.169 F 
HETATM   35  F   UNL     1      45.178 -10.746  10.970  1.00  0.00    -0.169 F 
ENDBRANCH  29  32
ENDBRANCH   1  21
TORSDOF 8
ENDMDL
MODEL 2
REMARK VINA RESULT:      -7.9      5.244      8.127
REMARK  8 active torsions:
REMARK  status: ('A' for Active; 'I' for Inactive)
REMARK    1  A    between atoms: C_8  and  C_9 
REMARK       I    between atoms: C_9  and  N_10 
REMARK    2  A    between atoms: N_10  and  N_11 
REMARK    3  A    between atoms: N_11  and  C_12 
REMARK    4  A    between atoms: C_12  and  N_13 
REMARK    5  A    between atoms: N_13  and  C_14 
REMARK    6  A    between atoms: C_15  and  O_16 
REMARK    7  A    between atoms: C_19  and  O_20 
REMARK    8  A    between atoms: C_26  and  C_27 
ROOT
HETATM    1  C   UNL     1      40.870 -15.262   6.362  1.00  0.00     0.275 C 
HETATM    2  N   UNL     1      41.259 -13.967   6.090  1.00  0.00    -0.263 N 
HETATM    3  O   UNL     1      39.796 -15.542   6.891  1.00  0.00    -0.266 OA
HETATM    4  H   UNL     1      42.225 -13.768   5.841  1.00  0.00     0.190 HD
ENDROOT
BRANCH   2   5
HETATM    5  N   UNL     1      40.443 -12.891   6.495  1.00  0.00    -0.273 N 
HETATM    6  H   UNL     1      40.009 -13.046   7.408  1.00  0.00     0.189 HD
BRANCH   5   7
HETATM    7  C   UNL     1      39.641 -12.305   5.560  1.00  0.00     0.191 C 
HETATM    8  S   UNL     1      38.933 -10.829   5.883  1.00  0.00    -0.039 SA
BRANCH   7   9
HETATM    9  N   UNL     1      39.344 -12.954   4.402  1.00  0.00    -0.330 N 
HETATM   10  H   UNL     1      38.702 -13.736   4.507  1.00  0.00     0.168 HD
BRANCH   9  11
HETATM   11  C   UNL     1      39.561 -12.593   3.050  1.00  0.00     0.068 A 
HETATM   12  C   UNL     1      40.836 -12.856   2.505  1.00  0.00     0.097 A 
HETATM   13  C   UNL     1      41.104 -12.546   1.165  1.00  0.00     0.075 A 
HETATM   14  C   UNL     1      40.107 -11.991   0.359  1.00  0.00     0.070 A 
HETATM   15  C   UNL     1      38.843 -11.751   0.899  1.00  0.00     0.039 A 
HETATM   16  C   UNL     1      38.564 -12.060   2.231  1.00  0.00     0.035 A 
BRANCH  12  17
HETATM   17  O   UNL     1      41.745 -13.404   3.382  1.00  0.00    -0.354 OA
HETATM   18  C   UNL     1      43.049 -12.837   3.413  1.00  0.00     0.210 C 
ENDBRANCH  12  17
BRANCH  14  19
HETATM   19  O   UNL     1      40.235 -11.645  -0.957  1.00  0.00    -0.356 OA
HETATM   20  C   UNL     1      40.190 -12.696  -1.914  1.00  0.00     0.210 C 
ENDBRANCH  14  19
ENDBRANCH   9  11
ENDBRANCH   7   9
ENDBRANCH   5   7
ENDBRANCH   2   5
BRANCH   1  21
HETATM   21  C   UNL     1      41.853 -16.261   6.001  1.00  0.00     0.098 A 
HETATM   22  C   UNL     1      42.188 -16.747   4.751  1.00  0.00     0.138 A 
HETATM   23  N   UNL     1      41.715 -16.506   3.501  1.00  0.00    -0.370 N 
HETATM   24  N   UNL     1      43.187 -17.669   4.963  1.00  0.00    -0.240 N 
HETATM   25  C   UNL     1      42.373 -17.062   2.323  1.00  0.00     0.081 C 
HETATM   26  H   UNL     1      40.783 -16.122   3.342  1.00  0.00     0.161 HD
HETATM   27  C   UNL     1      43.423 -16.078   1.813  1.00  0.00     0.032 C 
HETATM   28  C   UNL     1      42.947 -18.443   2.648  1.00  0.00     0.061 C 
HETATM   29  C   UNL     1      43.835 -18.429   3.907  1.00  0.00     0.221 C 
HETATM   30  N   UNL     1      43.563 -17.769   6.246  1.00  0.00    -0.181 NA
HETATM   31  C   UNL     1      42.720 -16.950   6.881  1.00  0.00     0.160 A 
BRANCH  29  32
HETATM   32  C   UNL     1      44.139 -19.854   4.323  1.00  0.00     0.409 C 
HETATM   33  F   UNL     1      44.133 -20.714   3.280  1.00  0.00    -0.169 F 
HETATM   34  F   UNL     1      45.392 -19.908   4.855  1.00  0.00    -0.169 F 
HETATM   35  F   UNL     1      43.312 -20.329   5.277  1.00  0.00    -0.169 F 
ENDBRANCH  29  32
ENDBRANCH   1  21
TORSDOF 8
ENDMDL
MODEL 3
REMARK VINA RESULT:      -7.6      1.824      2.654
REMARK  8 active torsions:
REMARK  status: ('A' for Active; 'I' for Inactive)
REMARK    1  A    between atoms: C_8  and  C_9 
REMARK       I    between atoms: C_9  and  N_10 
REMARK    2  A    between atoms: N_10  and  N_11 
REMARK    3  A    between atoms: N_11  and  C_12 
REMARK    4  A    between atoms: C_12  and  N_13 
REMARK    5  A    between atoms: N_13  and  C_14 
REMARK    6  A    between atoms: C_15  and  O_16 
REMARK    7  A    between atoms: C_19  and  O_20 
REMARK    8  A    between atoms: C_26  and  C_27 
ROOT
HETATM    1  C   UNL     1      42.510 -11.644   5.699  1.00  0.00     0.275 C 
HETATM    2  N   UNL     1      41.246 -12.152   5.487  1.00  0.00    -0.263 N 
HETATM    3  O   UNL     1      43.487 -11.976   5.031  1.00  0.00    -0.266 OA
HETATM    4  H   UNL     1      40.517 -12.006   6.181  1.00  0.00     0.190 HD
ENDROOT
BRANCH   2   5
HETATM    5  N   UNL     1      41.048 -13.157   4.518  1.00  0.00    -0.273 N 
HETATM    6  H   UNL     1      40.143 -13.081   4.048  1.00  0.00     0.189 HD
BRANCH   5   7
HETATM    7  C   UNL     1      41.442 -14.427   4.822  1.00  0.00     0.191 C 
HETATM    8  S   UNL     1      40.514 -15.360   5.847  1.00  0.00    -0.039 SA
BRANCH   7   9
HETATM    9  N   UNL     1      42.628 -14.910   4.363  1.00  0.00    -0.330 N 
HETATM   10  H   UNL     1      43.431 -14.320   4.564  1.00  0.00     0.168 HD
BRANCH   9  11
HETATM   11  C   UNL     1      42.990 -16.193   3.883  1.00  0.00     0.068 A 
HETATM   12  C   UNL     1      43.818 -16.983   4.709  1.00  0.00     0.097 A 
HETATM   13  C   UNL     1      44.189 -18.272   4.302  1.00  0.00     0.075 A 
HETATM   14  C   UNL     1      43.729 -18.785   3.088  1.00  0.00     0.070 A 
HETATM   15  C   UNL     1      42.896 -18.006   2.285  1.00  0.00     0.039 A 
HETATM   16  C   UNL     1      42.517 -16.722   2.682  1.00  0.00     0.035 A 
BRANCH  12  17
HETATM   17  O   UNL     1      44.214 -16.385   5.884  1.00  0.00    -0.354 OA
HETATM   18  C   UNL     1      43.693 -16.916   7.097  1.00  0.00     0.210 C 
ENDBRANCH  12  17
BRANCH  14  19
HETATM   19  O   UNL     1      44.013 -20.021   2.576  1.00  0.00    -0.356 OA
HETATM   20  C   UNL     1      43.983 -21.121   3.476  1.00  0.00     0.210 C 
ENDBRANCH  14  19
ENDBRANCH   9  11
ENDBRANCH   7   9
ENDBRANCH   5   7
ENDBRANCH   2   5
BRANCH   1  21
HETATM   21  C   UNL     1      42.593 -10.710   6.801  1.00  0.00     0.098 A 
HETATM   22  C   UNL     1      43.655 -10.446   7.646  1.00  0.00     0.138 A 
HETATM   23  N   UNL     1      44.904 -10.965   7.762  1.00  0.00    -0.370 N 
HETATM   24  N   UNL     1      43.214  -9.469   8.509  1.00  0.00    -0.240 N 
HETATM   25  C   UNL     1      45.887 -10.378   8.666  1.00  0.00     0.081 C 
HETATM   26  H   UNL     1      45.139 -11.891   7.400  1.00  0.00     0.161 HD
HETATM   27  C   UNL     1      46.698  -9.320   7.922  1.00  0.00     0.032 C 
HETATM   28  C   UNL     1      45.189  -9.835   9.916  1.00  0.00     0.061 C 
HETATM   29  C   UNL     1      44.019  -8.893   9.572  1.00  0.00     0.221 C 
HETATM   30  N   UNL     1      41.971  -9.040   8.245  1.00  0.00    -0.181 NA
HETATM   31  C   UNL     1      41.578  -9.828   7.240  1.00  0.00     0.160 A 
BRANCH  29  32
HETATM   32  C   UNL     1      43.213  -8.617  10.825  1.00  0.00     0.409 C 
HETATM   33  F   UNL     1      42.359  -9.621  11.127  1.00  0.00    -0.169 F 
HETATM   34  F   UNL     1      44.060  -8.503  11.887  1.00  0.00    -0.169 F 
HETATM   35  F   UNL     1      42.520  -7.461  10.780  1.00  0.00    -0.169 F 
ENDBRANCH  29  32
ENDBRANCH   1  21
TORSDOF 8
ENDMDL
MODEL 4
REMARK VINA RESULT:      -7.6      5.806      8.149
REMARK  8 active torsions:
REMARK  status: ('A' for Active; 'I' for Inactive)
REMARK    1  A    between atoms: C_8  and  C_9 
REMARK       I    between atoms: C_9  and  N_10 
REMARK    2  A    between atoms: N_10  and  N_11 
REMARK    3  A    between atoms: N_11  and  C_12 
REMARK    4  A    between atoms: C_12  and  N_13 
REMARK    5  A    between atoms: N_13  and  C_14 
REMARK    6  A    between atoms: C_15  and  O_16 
REMARK    7  A    between atoms: C_19  and  O_20 
REMARK    8  A    between atoms: C_26  and  C_27 
ROOT
HETATM    1  C   UNL     1      39.779 -14.198   2.000  1.00  0.00     0.275 C 
HETATM    2  N   UNL     1      39.999 -13.740   3.282  1.00  0.00    -0.263 N 
HETATM    3  O   UNL     1      39.700 -15.392   1.718  1.00  0.00    -0.266 OA
HETATM    4  H   UNL     1      40.256 -12.769   3.437  1.00  0.00     0.190 HD
ENDROOT
BRANCH   2   5
HETATM    5  N   UNL     1      40.226 -14.662   4.325  1.00  0.00    -0.273 N 
HETATM    6  H   UNL     1      39.402 -14.803   4.914  1.00  0.00     0.189 HD
BRANCH   5   7
HETATM    7  C   UNL     1      41.414 -14.596   4.993  1.00  0.00     0.191 C 
HETATM    8  S   UNL     1      41.470 -13.932   6.522  1.00  0.00    -0.039 SA
BRANCH   7   9
HETATM    9  N   UNL     1      42.567 -14.990   4.388  1.00  0.00    -0.330 N 
HETATM   10  H   UNL     1      43.318 -14.305   4.421  1.00  0.00     0.168 HD
BRANCH   9  11
HETATM   11  C   UNL     1      43.000 -16.265   3.947  1.00  0.00     0.068 A 
HETATM   12  C   UNL     1      43.827 -17.006   4.818  1.00  0.00     0.097 A 
HETATM   13  C   UNL     1      44.266 -18.285   4.450  1.00  0.00     0.075 A 
HETATM   14  C   UNL     1      43.876 -18.837   3.228  1.00  0.00     0.070 A 
HETATM   15  C   UNL     1      43.043 -18.107   2.380  1.00  0.00     0.039 A 
HETATM   16  C   UNL     1      42.596 -16.834   2.738  1.00  0.00     0.035 A 
BRANCH  12  17
HETATM   17  O   UNL     1      44.151 -16.372   5.996  1.00  0.00    -0.354 OA
HETATM   18  C   UNL     1      43.775 -17.013   7.209  1.00  0.00     0.210 C 
ENDBRANCH  12  17
BRANCH  14  19
HETATM   19  O   UNL     1      44.229 -20.068   2.750  1.00  0.00    -0.356 OA
HETATM   20  C   UNL     1      43.506 -20.565   1.631  1.00  0.00     0.210 C 
ENDBRANCH  14  19
ENDBRANCH   9  11
ENDBRANCH   7   9
ENDBRANCH   5   7
ENDBRANCH   2   5
BRANCH   1  21
HETATM   21  C   UNL     1      39.683 -13.149   1.008  1.00  0.00     0.098 A 
HETATM   22  C   UNL     1      39.869 -13.219  -0.360  1.00  0.00     0.138 A 
HETATM   23  N   UNL     1      40.226 -14.223  -1.201  1.00  0.00    -0.370 N 
HETATM   24  N   UNL     1      39.649 -11.946  -0.835  1.00  0.00    -0.240 N 
HETATM   25  C   UNL     1      40.197 -14.044  -2.649  1.00  0.00     0.081 C 
HETATM   26  H   UNL     1      40.724 -15.051  -0.872  1.00  0.00     0.161 HD
HETATM   27  C   UNL     1      38.829 -14.455  -3.187  1.00  0.00     0.032 C 
HETATM   28  C   UNL     1      40.579 -12.605  -3.006  1.00  0.00     0.061 C 
HETATM   29  C   UNL     1      39.742 -11.567  -2.234  1.00  0.00     0.221 C 
HETATM   30  N   UNL     1      39.275 -11.076   0.115  1.00  0.00    -0.181 NA
HETATM   31  C   UNL     1      39.344 -11.795   1.239  1.00  0.00     0.160 A 
BRANCH  29  32
HETATM   32  C   UNL     1      40.349 -10.192  -2.423  1.00  0.00     0.409 C 
HETATM   33  F   UNL     1      39.474  -9.196  -2.161  1.00  0.00    -0.169 F 
HETATM   34  F   UNL     1      41.381 -10.034  -1.548  1.00  0.00    -0.169 F 
HETATM   35  F   UNL     1      40.873  -9.994  -3.650  1.00  0.00    -0.169 F 
ENDBRANCH  29  32
ENDBRANCH   1  21
TORSDOF 8
ENDMDL
MODEL 5
REMARK VINA RESULT:      -7.6      4.519      8.848
REMARK  8 active torsions:
REMARK  status: ('A' for Active; 'I' for Inactive)
REMARK    1  A    between atoms: C_8  and  C_9 
REMARK       I    between atoms: C_9  and  N_10 
REMARK    2  A    between atoms: N_10  and  N_11 
REMARK    3  A    between atoms: N_11  and  C_12 
REMARK    4  A    between atoms: C_12  and  N_13 
REMARK    5  A    between atoms: N_13  and  C_14 
REMARK    6  A    between atoms: C_15  and  O_16 
REMARK    7  A    between atoms: C_19  and  O_20 
REMARK    8  A    between atoms: C_26  and  C_27 
ROOT
HETATM    1  C   UNL     1      40.693 -13.680   5.791  1.00  0.00     0.275 C 
HETATM    2  N   UNL     1      41.578 -12.622   5.788  1.00  0.00    -0.263 N 
HETATM    3  O   UNL     1      39.635 -13.669   6.416  1.00  0.00    -0.266 OA
HETATM    4  H   UNL     1      42.521 -12.749   5.428  1.00  0.00     0.190 HD
ENDROOT
BRANCH   2   5
HETATM    5  N   UNL     1      41.321 -11.493   6.593  1.00  0.00    -0.273 N 
HETATM    6  H   UNL     1      40.326 -11.370   6.796  1.00  0.00     0.189 HD
BRANCH   5   7
HETATM    7  C   UNL     1      42.008 -10.345   6.327  1.00  0.00     0.191 C 
HETATM    8  S   UNL     1      41.566  -9.399   5.025  1.00  0.00    -0.039 SA
BRANCH   7   9
HETATM    9  N   UNL     1      43.102 -10.009   7.061  1.00  0.00    -0.330 N 
HETATM   10  H   UNL     1      43.945  -9.848   6.516  1.00  0.00     0.168 HD
BRANCH   9  11
HETATM   11  C   UNL     1      43.228  -9.595   8.410  1.00  0.00     0.068 A 
HETATM   12  C   UNL     1      44.281 -10.157   9.164  1.00  0.00     0.097 A 
HETATM   13  C   UNL     1      44.475  -9.768  10.496  1.00  0.00     0.075 A 
HETATM   14  C   UNL     1      43.638  -8.813  11.079  1.00  0.00     0.070 A 
HETATM   15  C   UNL     1      42.611  -8.249  10.322  1.00  0.00     0.039 A 
HETATM   16  C   UNL     1      42.411  -8.626   8.993  1.00  0.00     0.035 A 
BRANCH  12  17
HETATM   17  O   UNL     1      45.048 -11.085   8.497  1.00  0.00    -0.354 OA
HETATM   18  C   UNL     1      46.212 -10.614   7.828  1.00  0.00     0.210 C 
ENDBRANCH  12  17
BRANCH  14  19
HETATM   19  O   UNL     1      43.718  -8.347  12.361  1.00  0.00    -0.356 OA
HETATM   20  C   UNL     1      42.650  -8.674  13.241  1.00  0.00     0.210 C 
ENDBRANCH  14  19
ENDBRANCH   9  11
ENDBRANCH   7   9
ENDBRANCH   5   7
ENDBRANCH   2   5
BRANCH   1  21
HETATM   21  C   UNL     1      41.138 -14.821   5.018  1.00  0.00     0.098 A 
HETATM   22  C   UNL     1      42.195 -15.680   5.256  1.00  0.00     0.138 A 
HETATM   23  N   UNL     1      43.156 -15.731   6.213  1.00  0.00    -0.370 N 
HETATM   24  N   UNL     1      42.172 -16.595   4.229  1.00  0.00    -0.240 N 
HETATM   25  C   UNL     1      44.074 -16.861   6.305  1.00  0.00     0.081 C 
HETATM   26  H   UNL     1      43.417 -14.909   6.760  1.00  0.00     0.161 HD
HETATM   27  C   UNL     1      43.487 -17.922   7.231  1.00  0.00     0.032 C 
HETATM   28  C   UNL     1      44.391 -17.391   4.904  1.00  0.00     0.061 C 
HETATM   29  C   UNL     1      43.120 -17.687   4.086  1.00  0.00     0.221 C 
HETATM   30  N   UNL     1      41.145 -16.429   3.383  1.00  0.00    -0.181 NA
HETATM   31  C   UNL     1      40.547 -15.323   3.835  1.00  0.00     0.160 A 
BRANCH  29  32
HETATM   32  C   UNL     1      43.500 -17.939   2.642  1.00  0.00     0.409 C 
HETATM   33  F   UNL     1      43.733 -16.797   1.957  1.00  0.00    -0.169 F 
HETATM   34  F   UNL     1      44.659 -18.654   2.601  1.00  0.00    -0.169 F 
HETATM   35  F   UNL     1      42.593 -18.670   1.961  1.00  0.00    -0.169 F 
ENDBRANCH  29  32
ENDBRANCH   1  21
TORSDOF 8
ENDMDL
MODEL 6
REMARK VINA RESULT:      -7.6      4.591      9.142
REMARK  8 active torsions:
REMARK  status: ('A' for Active; 'I' for Inactive)
REMARK    1  A    between atoms: C_8  and  C_9 
REMARK       I    between atoms: C_9  and  N_10 
REMARK    2  A    between atoms: N_10  and  N_11 
REMARK    3  A    between atoms: N_11  and  C_12 
REMARK    4  A    between atoms: C_12  and  N_13 
REMARK    5  A    between atoms: N_13  and  C_14 
REMARK    6  A    between atoms: C_15  and  O_16 
REMARK    7  A    between atoms: C_19  and  O_20 
REMARK    8  A    between atoms: C_26  and  C_27 
ROOT
HETATM    1  C   UNL     1      42.049 -12.499   5.628  1.00  0.00     0.275 C 
HETATM    2  N   UNL     1      43.268 -11.859   5.705  1.00  0.00    -0.263 N 
HETATM    3  O   UNL     1      41.023 -12.052   6.136  1.00  0.00    -0.266 OA
HETATM    4  H   UNL     1      44.119 -12.354   5.450  1.00  0.00     0.190 HD
ENDROOT
BRANCH   2   5
HETATM    5  N   UNL     1      43.390 -10.675   6.461  1.00  0.00    -0.273 N 
HETATM    6  H   UNL     1      43.540  -9.848   5.879  1.00  0.00     0.189 HD
BRANCH   5   7
HETATM    7  C   UNL     1      44.125 -10.720   7.610  1.00  0.00     0.191 C 
HETATM    8  S   UNL     1      45.791 -10.767   7.527  1.00  0.00    -0.039 SA
BRANCH   7   9
HETATM    9  N   UNL     1      43.509 -10.813   8.819  1.00  0.00    -0.330 N 
HETATM   10  H   UNL     1      43.373 -11.764   9.153  1.00  0.00     0.168 HD
BRANCH   9  11
HETATM   11  C   UNL     1      43.251  -9.836   9.811  1.00  0.00     0.068 A 
HETATM   12  C   UNL     1      42.124  -9.006   9.625  1.00  0.00     0.097 A 
HETATM   13  C   UNL     1      41.800  -8.038  10.585  1.00  0.00     0.075 A 
HETATM   14  C   UNL     1      42.580  -7.899  11.735  1.00  0.00     0.070 A 
HETATM   15  C   UNL     1      43.682  -8.735  11.921  1.00  0.00     0.039 A 
HETATM   16  C   UNL     1      44.011  -9.706  10.974  1.00  0.00     0.035 A 
BRANCH  12  17
HETATM   17  O   UNL     1      41.423  -9.225   8.461  1.00  0.00    -0.354 OA
HETATM   18  C   UNL     1      40.018  -9.425   8.571  1.00  0.00     0.210 C 
ENDBRANCH  12  17
BRANCH  14  19
HETATM   19  O   UNL     1      42.375  -7.001  12.745  1.00  0.00    -0.356 OA
HETATM   20  C   UNL     1      43.132  -7.176  13.936  1.00  0.00     0.210 C 
ENDBRANCH  14  19
ENDBRANCH   9  11
ENDBRANCH   7   9
ENDBRANCH   5   7
ENDBRANCH   2   5
BRANCH   1  21
HETATM   21  C   UNL     1      42.091 -13.763   4.924  1.00  0.00     0.098 A 
HETATM   22  C   UNL     1      42.836 -14.895   5.201  1.00  0.00     0.138 A 
HETATM   23  N   UNL     1      43.765 -15.189   6.147  1.00  0.00    -0.370 N 
HETATM   24  N   UNL     1      42.496 -15.814   4.235  1.00  0.00    -0.240 N 
HETATM   25  C   UNL     1      44.290 -16.542   6.297  1.00  0.00     0.081 C 
HETATM   26  H   UNL     1      44.286 -14.459   6.636  1.00  0.00     0.161 HD
HETATM   27  C   UNL     1      43.433 -17.313   7.298  1.00  0.00     0.032 C 
HETATM   28  C   UNL     1      44.379 -17.223   4.929  1.00  0.00     0.061 C 
HETATM   29  C   UNL     1      43.052 -17.153   4.150  1.00  0.00     0.221 C 
HETATM   30  N   UNL     1      41.544 -15.383   3.395  1.00  0.00    -0.181 NA
HETATM   31  C   UNL     1      41.334 -14.122   3.784  1.00  0.00     0.160 A 
BRANCH  29  32
HETATM   32  C   UNL     1      43.287 -17.593   2.720  1.00  0.00     0.409 C 
HETATM   33  F   UNL     1      43.688 -16.578   1.921  1.00  0.00    -0.169 F 
HETATM   34  F   UNL     1      44.286 -18.518   2.693  1.00  0.00    -0.169 F 
HETATM   35  F   UNL     1      42.218 -18.189   2.152  1.00  0.00    -0.169 F 
ENDBRANCH  29  32
ENDBRANCH   1  21
TORSDOF 8
ENDMDL
MODEL 7
REMARK VINA RESULT:      -7.6      1.647      2.586
REMARK  8 active torsions:
REMARK  status: ('A' for Active; 'I' for Inactive)
REMARK    1  A    between atoms: C_8  and  C_9 
REMARK       I    between atoms: C_9  and  N_10 
REMARK    2  A    between atoms: N_10  and  N_11 
REMARK    3  A    between atoms: N_11  and  C_12 
REMARK    4  A    between atoms: C_12  and  N_13 
REMARK    5  A    between atoms: N_13  and  C_14 
REMARK    6  A    between atoms: C_15  and  O_16 
REMARK    7  A    between atoms: C_19  and  O_20 
REMARK    8  A    between atoms: C_26  and  C_27 
ROOT
HETATM    1  C   UNL     1      40.328 -12.072   5.091  1.00  0.00     0.275 C 
HETATM    2  N   UNL     1      40.657 -13.402   5.249  1.00  0.00    -0.263 N 
HETATM    3  O   UNL     1      39.531 -11.673   4.244  1.00  0.00    -0.266 OA
HETATM    4  H   UNL     1      41.459 -13.663   5.817  1.00  0.00     0.190 HD
ENDROOT
BRANCH   2   5
HETATM    5  N   UNL     1      40.131 -14.363   4.361  1.00  0.00    -0.273 N 
HETATM    6  H   UNL     1      39.716 -15.163   4.845  1.00  0.00     0.189 HD
BRANCH   5   7
HETATM    7  C   UNL     1      40.852 -14.667   3.244  1.00  0.00     0.191 C 
HETATM    8  S   UNL     1      40.083 -14.780   1.767  1.00  0.00    -0.039 SA
BRANCH   7   9
HETATM    9  N   UNL     1      42.176 -14.963   3.337  1.00  0.00    -0.330 N 
HETATM   10  H   UNL     1      42.790 -14.153   3.356  1.00  0.00     0.168 HD
BRANCH   9  11
HETATM   11  C   UNL     1      42.841 -16.170   3.665  1.00  0.00     0.068 A 
HETATM   12  C   UNL     1      43.185 -16.372   5.018  1.00  0.00     0.097 A 
HETATM   13  C   UNL     1      43.820 -17.558   5.411  1.00  0.00     0.075 A 
HETATM   14  C   UNL     1      44.102 -18.550   4.469  1.00  0.00     0.070 A 
HETATM   15  C   UNL     1      43.743 -18.350   3.135  1.00  0.00     0.039 A 
HETATM   16  C   UNL     1      43.106 -17.175   2.734  1.00  0.00     0.035 A 
BRANCH  12  17
HETATM   17  O   UNL     1      42.862 -15.336   5.866  1.00  0.00    -0.354 OA
HETATM   18  C   UNL     1      42.537 -15.668   7.210  1.00  0.00     0.210 C 
ENDBRANCH  12  17
BRANCH  14  19
HETATM   19  O   UNL     1      44.713 -19.747   4.716  1.00  0.00    -0.356 OA
HETATM   20  C   UNL     1      43.950 -20.741   5.388  1.00  0.00     0.210 C 
ENDBRANCH  14  19
ENDBRANCH   9  11
ENDBRANCH   7   9
ENDBRANCH   5   7
ENDBRANCH   2   5
BRANCH   1  21
HETATM   21  C   UNL     1      41.030 -11.181   5.990  1.00  0.00     0.098 A 
HETATM   22  C   UNL     1      42.311 -11.284   6.500  1.00  0.00     0.138 A 
HETATM   23  N   UNL     1      43.288 -12.220   6.380  1.00  0.00    -0.370 N 
HETATM   24  N   UNL     1      42.491 -10.174   7.291  1.00  0.00    -0.240 N 
HETATM   25  C   UNL     1      44.625 -11.991   6.918  1.00  0.00     0.081 C 
HETATM   26  H   UNL     1      43.083 -13.183   6.111  1.00  0.00     0.161 HD
HETATM   27  C   UNL     1      45.501 -11.341   5.850  1.00  0.00     0.032 C 
HETATM   28  C   UNL     1      44.536 -11.170   8.207  1.00  0.00     0.061 C 
HETATM   29  C   UNL     1      43.709  -9.883   8.027  1.00  0.00     0.221 C 
HETATM   30  N   UNL     1      41.447  -9.332   7.281  1.00  0.00    -0.181 NA
HETATM   31  C   UNL     1      40.543  -9.968   6.530  1.00  0.00     0.160 A 
BRANCH  29  32
HETATM   32  C   UNL     1      43.433  -9.270   9.385  1.00  0.00     0.409 C 
HETATM   33  F   UNL     1      44.472  -9.408  10.240  1.00  0.00    -0.169 F 
HETATM   34  F   UNL     1      43.233  -7.930   9.240  1.00  0.00    -0.169 F 
HETATM   35  F   UNL     1      42.320  -9.747   9.980  1.00  0.00    -0.169 F 
ENDBRANCH  29  32
ENDBRANCH   1  21
TORSDOF 8
ENDMDL
MODEL 8
REMARK VINA RESULT:      -7.5      1.904      2.810
REMARK  8 active torsions:
REMARK  status: ('A' for Active; 'I' for Inactive)
REMARK    1  A    between atoms: C_8  and  C_9 
REMARK       I    between atoms: C_9  and  N_10 
REMARK    2  A    between atoms: N_10  and  N_11 
REMARK    3  A    between atoms: N_11  and  C_12 
REMARK    4  A    between atoms: C_12  and  N_13 
REMARK    5  A    between atoms: N_13  and  C_14 
REMARK    6  A    between atoms: C_15  and  O_16 
REMARK    7  A    between atoms: C_19  and  O_20 
REMARK    8  A    between atoms: C_26  and  C_27 
ROOT
HETATM    1  C   UNL     1      40.160 -12.127   5.752  1.00  0.00     0.275 C 
HETATM    2  N   UNL     1      40.248 -12.162   4.376  1.00  0.00    -0.263 N 
HETATM    3  O   UNL     1      39.437 -12.882   6.398  1.00  0.00    -0.266 OA
HETATM    4  H   UNL     1      40.697 -11.399   3.876  1.00  0.00     0.190 HD
ENDROOT
BRANCH   2   5
HETATM    5  N   UNL     1      39.422 -13.040   3.644  1.00  0.00    -0.273 N 
HETATM    6  H   UNL     1      38.579 -13.310   4.157  1.00  0.00     0.189 HD
BRANCH   5   7
HETATM    7  C   UNL     1      40.019 -14.042   2.937  1.00  0.00     0.191 C 
HETATM    8  S   UNL     1      40.475 -13.780   1.353  1.00  0.00    -0.039 SA
BRANCH   7   9
HETATM    9  N   UNL     1      40.168 -15.279   3.484  1.00  0.00    -0.330 N 
HETATM   10  H   UNL     1      39.296 -15.747   3.715  1.00  0.00     0.168 HD
BRANCH   9  11
HETATM   11  C   UNL     1      41.293 -16.136   3.557  1.00  0.00     0.068 A 
HETATM   12  C   UNL     1      41.911 -16.288   4.817  1.00  0.00     0.097 A 
HETATM   13  C   UNL     1      43.012 -17.143   4.960  1.00  0.00     0.075 A 
HETATM   14  C   UNL     1      43.493 -17.859   3.862  1.00  0.00     0.070 A 
HETATM   15  C   UNL     1      42.866 -17.719   2.623  1.00  0.00     0.039 A 
HETATM   16  C   UNL     1      41.766 -16.873   2.470  1.00  0.00     0.035 A 
BRANCH  12  17
HETATM   17  O   UNL     1      41.360 -15.539   5.832  1.00  0.00    -0.354 OA
HETATM   18  C   UNL     1      41.986 -15.605   7.108  1.00  0.00     0.210 C 
ENDBRANCH  12  17
BRANCH  14  19
HETATM   19  O   UNL     1      44.552 -18.723   3.864  1.00  0.00    -0.356 OA
HETATM   20  C   UNL     1      44.429 -19.902   4.651  1.00  0.00     0.210 C 
ENDBRANCH  14  19
ENDBRANCH   9  11
ENDBRANCH   7   9
ENDBRANCH   5   7
ENDBRANCH   2   5
BRANCH   1  21
HETATM   21  C   UNL     1      40.972 -11.099   6.368  1.00  0.00     0.098 A 
HETATM   22  C   UNL     1      42.283 -11.162   6.802  1.00  0.00     0.138 A 
HETATM   23  N   UNL     1      43.204 -12.160   6.841  1.00  0.00    -0.370 N 
HETATM   24  N   UNL     1      42.576  -9.912   7.296  1.00  0.00    -0.240 N 
HETATM   25  C   UNL     1      44.588 -11.898   7.221  1.00  0.00     0.081 C 
HETATM   26  H   UNL     1      42.933 -13.144   6.821  1.00  0.00     0.161 HD
HETATM   27  C   UNL     1      45.406 -11.569   5.975  1.00  0.00     0.032 C 
HETATM   28  C   UNL     1      44.638 -10.797   8.283  1.00  0.00     0.061 C 
HETATM   29  C   UNL     1      43.860  -9.536   7.861  1.00  0.00     0.221 C 
HETATM   30  N   UNL     1      41.574  -9.031   7.157  1.00  0.00    -0.181 NA
HETATM   31  C   UNL     1      40.585  -9.766   6.638  1.00  0.00     0.160 A 
BRANCH  29  32
HETATM   32  C   UNL     1      43.721  -8.610   9.051  1.00  0.00     0.409 C 
HETATM   33  F   UNL     1      42.645  -8.902   9.816  1.00  0.00    -0.169 F 
HETATM   34  F   UNL     1      44.811  -8.747   9.857  1.00  0.00    -0.169 F 
HETATM   35  F   UNL     1      43.670  -7.303   8.720  1.00  0.00    -0.169 F 
ENDBRANCH  29  32
ENDBRANCH   1  21
TORSDOF 8
ENDMDL
MODEL 9
REMARK VINA RESULT:      -7.5      4.610      9.295
REMARK  8 active torsions:
REMARK  status: ('A' for Active; 'I' for Inactive)
REMARK    1  A    between atoms: C_8  and  C_9 
REMARK       I    between atoms: C_9  and  N_10 
REMARK    2  A    between atoms: N_10  and  N_11 
REMARK    3  A    between atoms: N_11  and  C_12 
REMARK    4  A    between atoms: C_12  and  N_13 
REMARK    5  A    between atoms: N_13  and  C_14 
REMARK    6  A    between atoms: C_15  and  O_16 
REMARK    7  A    between atoms: C_19  and  O_20 
REMARK    8  A    between atoms: C_26  and  C_27 
ROOT
HETATM    1  C   UNL     1      42.658 -13.760   6.331  1.00  0.00     0.275 C 
HETATM    2  N   UNL     1      43.557 -12.942   6.982  1.00  0.00    -0.263 N 
HETATM    3  O   UNL     1      41.477 -13.461   6.165  1.00  0.00    -0.266 OA
HETATM    4  H   UNL     1      44.460 -13.309   7.272  1.00  0.00     0.190 HD
ENDROOT
BRANCH   2   5
HETATM    5  N   UNL     1      43.114 -11.736   7.563  1.00  0.00    -0.273 N 
HETATM    6  H   UNL     1      42.178 -11.466   7.248  1.00  0.00     0.189 HD
BRANCH   5   7
HETATM    7  C   UNL     1      44.008 -10.712   7.678  1.00  0.00     0.191 C 
HETATM    8  S   UNL     1      45.594 -10.941   7.216  1.00  0.00    -0.039 SA
BRANCH   7   9
HETATM    9  N   UNL     1      43.636  -9.532   8.245  1.00  0.00    -0.330 N 
HETATM   10  H   UNL     1      43.435  -8.789   7.581  1.00  0.00     0.168 HD
BRANCH   9  11
HETATM   11  C   UNL     1      43.233  -9.219   9.566  1.00  0.00     0.068 A 
HETATM   12  C   UNL     1      41.848  -9.223   9.839  1.00  0.00     0.097 A 
HETATM   13  C   UNL     1      41.388  -8.948  11.134  1.00  0.00     0.075 A 
HETATM   14  C   UNL     1      42.296  -8.683  12.161  1.00  0.00     0.070 A 
HETATM   15  C   UNL     1      43.664  -8.699  11.888  1.00  0.00     0.039 A 
HETATM   16  C   UNL     1      44.134  -8.977  10.603  1.00  0.00     0.035 A 
BRANCH  12  17
HETATM   17  O   UNL     1      41.040  -9.497   8.759  1.00  0.00    -0.354 OA
HETATM   18  C   UNL     1      40.105  -8.497   8.371  1.00  0.00     0.210 C 
ENDBRANCH  12  17
BRANCH  14  19
HETATM   19  O   UNL     1      41.982  -8.403  13.461  1.00  0.00    -0.356 OA
HETATM   20  C   UNL     1      40.769  -8.944  13.971  1.00  0.00     0.210 C 
ENDBRANCH  14  19
ENDBRANCH   9  11
ENDBRANCH   7   9
ENDBRANCH   5   7
ENDBRANCH   2   5
BRANCH   1  21
HETATM   21  C   UNL     1      43.219 -15.019   5.890  1.00  0.00     0.098 A 
HETATM   22  C   UNL     1      43.030 -15.690   4.696  1.00  0.00     0.138 A 
HETATM   23  N   UNL     1      42.267 -15.445   3.600  1.00  0.00    -0.370 N 
HETATM   24  N   UNL     1      43.799 -16.829   4.780  1.00  0.00    -0.240 N 
HETATM   25  C   UNL     1      42.382 -16.264   2.399  1.00  0.00     0.081 C 
HETATM   26  H   UNL     1      41.450 -14.834   3.638  1.00  0.00     0.161 HD
HETATM   27  C   UNL     1      43.426 -15.658   1.465  1.00  0.00     0.032 C 
HETATM   28  C   UNL     1      42.686 -17.715   2.783  1.00  0.00     0.061 C 
HETATM   29  C   UNL     1      43.893 -17.830   3.732  1.00  0.00     0.221 C 
HETATM   30  N   UNL     1      44.516 -16.911   5.911  1.00  0.00    -0.181 NA
HETATM   31  C   UNL     1      44.125 -15.837   6.604  1.00  0.00     0.160 A 
BRANCH  29  32
HETATM   32  C   UNL     1      43.966 -19.240   4.283  1.00  0.00     0.409 C 
HETATM   33  F   UNL     1      43.546 -20.169   3.395  1.00  0.00    -0.169 F 
HETATM   34  F   UNL     1      45.263 -19.543   4.570  1.00  0.00    -0.169 F 
HETATM   35  F   UNL     1      43.285 -19.408   5.436  1.00  0.00    -0.169 F 
ENDBRANCH  29  32
ENDBRANCH   1  21
TORSDOF 8
ENDMDL
MODEL 10
REMARK VINA RESULT:      -7.5      4.786      9.275
REMARK  8 active torsions:
REMARK  status: ('A' for Active; 'I' for Inactive)
REMARK    1  A    between atoms: C_8  and  C_9 
REMARK       I    between atoms: C_9  and  N_10 
REMARK    2  A    between atoms: N_10  and  N_11 
REMARK    3  A    between atoms: N_11  and  C_12 
REMARK    4  A    between atoms: C_12  and  N_13 
REMARK    5  A    between atoms: N_13  and  C_14 
REMARK    6  A    between atoms: C_15  and  O_16 
REMARK    7  A    between atoms: C_19  and  O_20 
REMARK    8  A    between atoms: C_26  and  C_27 
ROOT
HETATM    1  C   UNL     1      43.351 -12.666   6.398  1.00  0.00     0.275 C 
HETATM    2  N   UNL     1      42.360 -11.814   6.837  1.00  0.00    -0.263 N 
HETATM    3  O   UNL     1      44.528 -12.557   6.735  1.00  0.00    -0.266 OA
HETATM    4  H   UNL     1      41.450 -11.815   6.383  1.00  0.00     0.190 HD
ENDROOT
BRANCH   2   5
HETATM    5  N   UNL     1      42.695 -10.710   7.649  1.00  0.00    -0.273 N 
HETATM    6  H   UNL     1      43.089 -10.988   8.551  1.00  0.00     0.189 HD
BRANCH   5   7
HETATM    7  C   UNL     1      41.829  -9.657   7.690  1.00  0.00     0.191 C 
HETATM    8  S   UNL     1      40.705  -9.460   6.473  1.00  0.00    -0.039 SA
BRANCH   7   9
HETATM    9  N   UNL     1      41.929  -8.720   8.671  1.00  0.00    -0.330 N 
HETATM   10  H   UNL     1      41.747  -7.767   8.366  1.00  0.00     0.168 HD
BRANCH   9  11
HETATM   11  C   UNL     1      41.991  -8.847  10.080  1.00  0.00     0.068 A 
HETATM   12  C   UNL     1      43.272  -8.886  10.671  1.00  0.00     0.097 A 
HETATM   13  C   UNL     1      43.399  -8.984  12.063  1.00  0.00     0.075 A 
HETATM   14  C   UNL     1      42.261  -9.029  12.872  1.00  0.00     0.070 A 
HETATM   15  C   UNL     1      40.998  -8.972  12.282  1.00  0.00     0.039 A 
HETATM   16  C   UNL     1      40.860  -8.870  10.897  1.00  0.00     0.035 A 
BRANCH  12  17
HETATM   17  O   UNL     1      44.326  -8.834   9.787  1.00  0.00    -0.354 OA
HETATM   18  C   UNL     1      45.416  -9.720  10.015  1.00  0.00     0.210 C 
ENDBRANCH  12  17
BRANCH  14  19
HETATM   19  O   UNL     1      42.244  -9.123  14.235  1.00  0.00    -0.356 OA
HETATM   20  C   UNL     1      41.210  -8.431  14.923  1.00  0.00     0.210 C 
ENDBRANCH  14  19
ENDBRANCH   9  11
ENDBRANCH   7   9
ENDBRANCH   5   7
ENDBRANCH   2   5
BRANCH   1  21
HETATM   21  C   UNL     1      42.888 -13.682   5.477  1.00  0.00     0.098 A 
HETATM   22  C   UNL     1      43.257 -15.011   5.383  1.00  0.00     0.138 A 
HETATM   23  N   UNL     1      44.157 -15.777   6.051  1.00  0.00    -0.370 N 
HETATM   24  N   UNL     1      42.513 -15.535   4.350  1.00  0.00    -0.240 N 
HETATM   25  C   UNL     1      44.231 -17.219   5.838  1.00  0.00     0.081 C 
HETATM   26  H   UNL     1      44.946 -15.368   6.553  1.00  0.00     0.161 HD
HETATM   27  C   UNL     1      43.310 -17.928   6.828  1.00  0.00     0.032 C 
HETATM   28  C   UNL     1      43.913 -17.548   4.377  1.00  0.00     0.061 C 
HETATM   29  C   UNL     1      42.589 -16.916   3.907  1.00  0.00     0.221 C 
HETATM   30  N   UNL     1      41.649 -14.661   3.813  1.00  0.00    -0.181 NA
HETATM   31  C   UNL     1      41.913 -13.525   4.465  1.00  0.00     0.160 A 
BRANCH  29  32
HETATM   32  C   UNL     1      42.477 -17.048   2.402  1.00  0.00     0.409 C 
HETATM   33  F   UNL     1      43.337 -16.239   1.742  1.00  0.00    -0.169 F 
HETATM   34  F   UNL     1      42.796 -18.322   2.038  1.00  0.00    -0.169 F 
HETATM   35  F   UNL     1      41.233 -16.830   1.928  1.00  0.00    -0.169 F 
ENDBRANCH  29  32
ENDBRANCH   1  21
TORSDOF 8
ENDMDL
