MODEL 1
REMARK VINA RESULT:      -8.3      0.000      0.000
REMARK  6 active torsions:
REMARK  status: ('A' for Active; 'I' for Inactive)
REMARK    1  A    between atoms: C_5  and  N_6 
REMARK    2  A    between atoms: N_6  and  C_7 
REMARK    3  A    between atoms: C_7  and  C_8 
REMARK    4  A    between atoms: N_10  and  C_12 
REMARK    5  A    between atoms: C_12  and  C_13 
REMARK    6  A    between atoms: C_14  and  O_15 
ROOT
HETATM    1  C   UNL     1      41.750 -15.021   5.900  1.00  0.00     0.031 C 
HETATM    2  C   UNL     1      42.788 -14.671   6.965  1.00  0.00     0.241 C 
HETATM    3  N   UNL     1      42.909 -13.167   6.932  1.00  0.00    -0.067 N 
HETATM    4  H   UNL     1      42.830 -12.840   7.915  1.00  0.00     0.280 HD
HETATM    5  C   UNL     1      41.753 -12.611   6.149  1.00  0.00     0.235 C 
HETATM    6  C   UNL     1      40.827 -13.803   5.945  1.00  0.00     0.035 C 
ENDROOT
BRANCH   1   7
HETATM    7  C   UNL     1      42.357 -15.262   4.506  1.00  0.00     0.127 C 
BRANCH   7   8
HETATM    8  N   UNL     1      43.497 -16.166   4.595  1.00  0.00    -0.376 N 
HETATM    9  H   UNL     1      44.393 -15.697   4.420  1.00  0.00     0.161 HD
BRANCH   8  10
HETATM   10  C   UNL     1      43.558 -17.465   4.097  1.00  0.00     0.101 A 
HETATM   11  N   UNL     1      43.957 -18.520   4.827  1.00  0.00    -0.347 N 
HETATM   12  C   UNL     1      44.024 -19.779   4.345  1.00  0.00     0.007 A 
HETATM   13  H   UNL     1      44.196 -18.376   5.800  1.00  0.00     0.167 HD
HETATM   14  C   UNL     1      44.433 -20.887   5.263  1.00  0.00     0.068 C 
HETATM   15  C   UNL     1      43.694 -20.020   3.013  1.00  0.00     0.025 A 
HETATM   16  C   UNL     1      43.302 -18.962   2.208  1.00  0.00     0.006 A 
HETATM   17  C   UNL     1      43.234 -17.684   2.750  1.00  0.00     0.048 A 
ENDBRANCH   8  10
ENDBRANCH   7   8
ENDBRANCH   1   7
BRANCH   3  18
HETATM   18  C   UNL     1      44.255 -12.618   6.522  1.00  0.00     0.276 C 
BRANCH  18  19
HETATM   19  C   UNL     1      44.736 -11.500   7.403  1.00  0.00     0.002 A 
HETATM   20  C   UNL     1      45.919 -10.809   7.111  1.00  0.00     0.073 A 
HETATM   21  C   UNL     1      46.369  -9.769   7.922  1.00  0.00     0.038 A 
HETATM   22  C   UNL     1      45.626  -9.401   9.045  1.00  0.00     0.022 A 
HETATM   23  C   UNL     1      44.449 -10.081   9.349  1.00  0.00     0.011 A 
HETATM   24 BR   UNL     1      43.425  -9.569  10.852  1.00  0.00    -0.051 Br
HETATM   25  C   UNL     1      44.006 -11.132   8.544  1.00  0.00     0.030 A 
BRANCH  20  26
HETATM   26  O   UNL     1      46.610 -11.161   5.984  1.00  0.00    -0.360 OA
HETATM   27  H   UNL     1      46.956 -12.069   6.117  1.00  0.00     0.217 HD
ENDBRANCH  20  26
ENDBRANCH  18  19
ENDBRANCH   3  18
TORSDOF 6
ENDMDL
MODEL 2
REMARK VINA RESULT:      -8.1      5.114      7.747
REMARK  6 active torsions:
REMARK  status: ('A' for Active; 'I' for Inactive)
REMARK    1  A    between atoms: C_5  and  N_6 
REMARK    2  A    between atoms: N_6  and  C_7 
REMARK    3  A    between atoms: C_7  and  C_8 
REMARK    4  A    between atoms: N_10  and  C_12 
REMARK    5  A    between atoms: C_12  and  C_13 
REMARK    6  A    between atoms: C_14  and  O_15 
ROOT
HETATM    1  C   UNL     1      40.420 -15.643   3.836  1.00  0.00     0.031 C 
HETATM    2  C   UNL     1      41.117 -16.420   4.953  1.00  0.00     0.241 C 
HETATM    3  N   UNL     1      42.268 -15.548   5.393  1.00  0.00    -0.067 N 
HETATM    4  H   UNL     1      42.220 -15.491   6.428  1.00  0.00     0.280 HD
HETATM    5  C   UNL     1      42.068 -14.169   4.828  1.00  0.00     0.235 C 
HETATM    6  C   UNL     1      40.654 -14.194   4.264  1.00  0.00     0.035 C 
ENDROOT
BRANCH   1   7
HETATM    7  C   UNL     1      40.978 -15.952   2.434  1.00  0.00     0.127 C 
BRANCH   7   8
HETATM    8  N   UNL     1      39.924 -15.849   1.432  1.00  0.00    -0.376 N 
HETATM    9  H   UNL     1      39.560 -16.763   1.141  1.00  0.00     0.161 HD
BRANCH   8  10
HETATM   10  C   UNL     1      39.907 -14.982   0.343  1.00  0.00     0.101 A 
HETATM   11  N   UNL     1      39.252 -15.243  -0.801  1.00  0.00    -0.347 N 
HETATM   12  C   UNL     1      39.240 -14.408  -1.862  1.00  0.00     0.007 A 
HETATM   13  H   UNL     1      38.714 -16.097  -0.869  1.00  0.00     0.167 HD
HETATM   14  C   UNL     1      38.434 -14.777  -3.067  1.00  0.00     0.068 C 
HETATM   15  C   UNL     1      39.961 -13.218  -1.804  1.00  0.00     0.025 A 
HETATM   16  C   UNL     1      40.677 -12.912  -0.656  1.00  0.00     0.006 A 
HETATM   17  C   UNL     1      40.650 -13.795   0.417  1.00  0.00     0.048 A 
ENDBRANCH   8  10
ENDBRANCH   7   8
ENDBRANCH   1   7
BRANCH   3  18
HETATM   18  C   UNL     1      43.651 -16.114   5.170  1.00  0.00     0.276 C 
BRANCH  18  19
HETATM   19  C   UNL     1      43.672 -17.613   5.069  1.00  0.00     0.002 A 
HETATM   20  C   UNL     1      43.571 -18.415   6.212  1.00  0.00     0.073 A 
HETATM   21  C   UNL     1      43.586 -19.806   6.125  1.00  0.00     0.038 A 
HETATM   22  C   UNL     1      43.698 -20.416   4.875  1.00  0.00     0.022 A 
HETATM   23  C   UNL     1      43.802 -19.631   3.729  1.00  0.00     0.011 A 
HETATM   24 BR   UNL     1      43.927 -20.451   2.032  1.00  0.00    -0.051 Br
HETATM   25  C   UNL     1      43.800 -18.238   3.819  1.00  0.00     0.030 A 
BRANCH  20  26
HETATM   26  O   UNL     1      43.422 -17.796   7.423  1.00  0.00    -0.360 OA
HETATM   27  H   UNL     1      43.205 -18.485   8.087  1.00  0.00     0.217 HD
ENDBRANCH  20  26
ENDBRANCH  18  19
ENDBRANCH   3  18
TORSDOF 6
ENDMDL
MODEL 3
REMARK VINA RESULT:      -8.0      5.467      7.420
REMARK  6 active torsions:
REMARK  status: ('A' for Active; 'I' for Inactive)
REMARK    1  A    between atoms: C_5  and  N_6 
REMARK    2  A    between atoms: N_6  and  C_7 
REMARK    3  A    between atoms: C_7  and  C_8 
REMARK    4  A    between atoms: N_10  and  C_12 
REMARK    5  A    between atoms: C_12  and  C_13 
REMARK    6  A    between atoms: C_14  and  O_15 
ROOT
HETATM    1  C   UNL     1      41.859 -15.220   4.321  1.00  0.00     0.031 C 
HETATM    2  C   UNL     1      41.430 -13.894   3.692  1.00  0.00     0.241 C 
HETATM    3  N   UNL     1      40.543 -14.268   2.529  1.00  0.00    -0.067 N 
HETATM    4  H   UNL     1      39.683 -13.692   2.613  1.00  0.00     0.280 HD
HETATM    5  C   UNL     1      40.164 -15.717   2.662  1.00  0.00     0.235 C 
HETATM    6  C   UNL     1      40.641 -16.105   4.055  1.00  0.00     0.035 C 
ENDROOT
BRANCH   1   7
HETATM    7  C   UNL     1      43.158 -15.791   3.723  1.00  0.00     0.127 C 
BRANCH   7   8
HETATM    8  N   UNL     1      43.736 -16.787   4.618  1.00  0.00    -0.376 N 
HETATM    9  H   UNL     1      44.619 -16.477   5.041  1.00  0.00     0.161 HD
BRANCH   8  10
HETATM   10  C   UNL     1      43.794 -18.159   4.394  1.00  0.00     0.101 A 
HETATM   11  N   UNL     1      43.655 -18.718   3.180  1.00  0.00    -0.347 N 
HETATM   12  C   UNL     1      43.703 -20.049   2.961  1.00  0.00     0.007 A 
HETATM   13  H   UNL     1      43.535 -18.114   2.377  1.00  0.00     0.167 HD
HETATM   14  C   UNL     1      43.587 -20.559   1.559  1.00  0.00     0.068 C 
HETATM   15  C   UNL     1      43.877 -20.914   4.039  1.00  0.00     0.025 A 
HETATM   16  C   UNL     1      43.998 -20.391   5.317  1.00  0.00     0.006 A 
HETATM   17  C   UNL     1      43.956 -19.013   5.495  1.00  0.00     0.048 A 
ENDBRANCH   8  10
ENDBRANCH   7   8
ENDBRANCH   1   7
BRANCH   3  18
HETATM   18  C   UNL     1      41.050 -13.885   1.159  1.00  0.00     0.276 C 
BRANCH  18  19
HETATM   19  C   UNL     1      39.961 -13.440   0.224  1.00  0.00     0.002 A 
HETATM   20  C   UNL     1      39.215 -12.283   0.482  1.00  0.00     0.073 A 
HETATM   21  C   UNL     1      38.206 -11.864  -0.383  1.00  0.00     0.038 A 
HETATM   22  C   UNL     1      37.935 -12.604  -1.534  1.00  0.00     0.022 A 
HETATM   23  C   UNL     1      38.667 -13.758  -1.803  1.00  0.00     0.011 A 
HETATM   24 BR   UNL     1      38.322 -14.750  -3.374  1.00  0.00    -0.051 Br
HETATM   25  C   UNL     1      39.668 -14.185  -0.929  1.00  0.00     0.030 A 
BRANCH  20  26
HETATM   26  O   UNL     1      39.525 -11.552   1.596  1.00  0.00    -0.360 OA
HETATM   27  H   UNL     1      39.144 -12.015   2.373  1.00  0.00     0.217 HD
ENDBRANCH  20  26
ENDBRANCH  18  19
ENDBRANCH   3  18
TORSDOF 6
ENDMDL
MODEL 4
REMARK VINA RESULT:      -8.0      5.816      8.184
REMARK  6 active torsions:
REMARK  status: ('A' for Active; 'I' for Inactive)
REMARK    1  A    between atoms: C_5  and  N_6 
REMARK    2  A    between atoms: N_6  and  C_7 
REMARK    3  A    between atoms: C_7  and  C_8 
REMARK    4  A    between atoms: N_10  and  C_12 
REMARK    5  A    between atoms: C_12  and  C_13 
REMARK    6  A    between atoms: C_14  and  O_15 
ROOT
HETATM    1  C   UNL     1      39.578 -13.503   2.730  1.00  0.00     0.031 C 
HETATM    2  C   UNL     1      40.136 -14.904   2.978  1.00  0.00     0.241 C 
HETATM    3  N   UNL     1      41.448 -14.694   3.696  1.00  0.00    -0.067 N 
HETATM    4  H   UNL     1      41.437 -15.322   4.523  1.00  0.00     0.280 HD
HETATM    5  C   UNL     1      41.508 -13.271   4.177  1.00  0.00     0.235 C 
HETATM    6  C   UNL     1      40.102 -12.734   3.943  1.00  0.00     0.035 C 
ENDROOT
BRANCH   1   7
HETATM    7  C   UNL     1      40.028 -12.891   1.391  1.00  0.00     0.127 C 
BRANCH   7   8
HETATM    8  N   UNL     1      40.054 -13.908   0.347  1.00  0.00    -0.376 N 
HETATM    9  H   UNL     1      41.003 -14.241   0.139  1.00  0.00     0.161 HD
BRANCH   8  10
HETATM   10  C   UNL     1      39.305 -13.903  -0.825  1.00  0.00     0.101 A 
HETATM   11  N   UNL     1      38.470 -12.908  -1.166  1.00  0.00    -0.347 N 
HETATM   12  C   UNL     1      37.736 -12.904  -2.299  1.00  0.00     0.007 A 
HETATM   13  H   UNL     1      38.401 -12.101  -0.560  1.00  0.00     0.167 HD
HETATM   14  C   UNL     1      36.876 -11.718  -2.604  1.00  0.00     0.068 C 
HETATM   15  C   UNL     1      37.809 -13.992  -3.166  1.00  0.00     0.025 A 
HETATM   16  C   UNL     1      38.636 -15.059  -2.849  1.00  0.00     0.006 A 
HETATM   17  C   UNL     1      39.384 -15.014  -1.678  1.00  0.00     0.048 A 
ENDBRANCH   8  10
ENDBRANCH   7   8
ENDBRANCH   1   7
BRANCH   3  18
HETATM   18  C   UNL     1      42.686 -15.152   2.964  1.00  0.00     0.276 C 
BRANCH  18  19
HETATM   19  C   UNL     1      43.208 -16.477   3.446  1.00  0.00     0.002 A 
HETATM   20  C   UNL     1      43.706 -16.627   4.746  1.00  0.00     0.073 A 
HETATM   21  C   UNL     1      44.189 -17.852   5.200  1.00  0.00     0.038 A 
HETATM   22  C   UNL     1      44.170 -18.957   4.348  1.00  0.00     0.022 A 
HETATM   23  C   UNL     1      43.679 -18.823   3.051  1.00  0.00     0.011 A 
HETATM   24 BR   UNL     1      43.627 -20.322   1.903  1.00  0.00    -0.051 Br
HETATM   25  C   UNL     1      43.209 -17.591   2.593  1.00  0.00     0.030 A 
BRANCH  20  26
HETATM   26  O   UNL     1      43.678 -15.539   5.576  1.00  0.00    -0.360 OA
HETATM   27  H   UNL     1      42.772 -15.163   5.546  1.00  0.00     0.217 HD
ENDBRANCH  20  26
ENDBRANCH  18  19
ENDBRANCH   3  18
TORSDOF 6
ENDMDL
MODEL 5
REMARK VINA RESULT:      -7.9      3.606      8.537
REMARK  6 active torsions:
REMARK  status: ('A' for Active; 'I' for Inactive)
REMARK    1  A    between atoms: C_5  and  N_6 
REMARK    2  A    between atoms: N_6  and  C_7 
REMARK    3  A    between atoms: C_7  and  C_8 
REMARK    4  A    between atoms: N_10  and  C_12 
REMARK    5  A    between atoms: C_12  and  C_13 
REMARK    6  A    between atoms: C_14  and  O_15 
ROOT
HETATM    1  C   UNL     1      41.894 -13.417   5.235  1.00  0.00     0.031 C 
HETATM    2  C   UNL     1      42.207 -14.604   4.326  1.00  0.00     0.241 C 
HETATM    3  N   UNL     1      42.379 -15.786   5.250  1.00  0.00    -0.067 N 
HETATM    4  H   UNL     1      41.795 -16.553   4.864  1.00  0.00     0.280 HD
HETATM    5  C   UNL     1      41.846 -15.415   6.606  1.00  0.00     0.235 C 
HETATM    6  C   UNL     1      41.134 -14.087   6.381  1.00  0.00     0.035 C 
ENDROOT
BRANCH   1   7
HETATM    7  C   UNL     1      43.147 -12.658   5.709  1.00  0.00     0.127 C 
BRANCH   7   8
HETATM    8  N   UNL     1      42.904 -12.027   7.000  1.00  0.00    -0.376 N 
HETATM    9  H   UNL     1      41.985 -11.574   7.056  1.00  0.00     0.161 HD
BRANCH   8  10
HETATM   10  C   UNL     1      43.822 -11.289   7.740  1.00  0.00     0.101 A 
HETATM   11  N   UNL     1      43.543 -10.743   8.935  1.00  0.00    -0.347 N 
HETATM   12  C   UNL     1      44.429 -10.019   9.652  1.00  0.00     0.007 A 
HETATM   13  H   UNL     1      42.629 -10.900   9.340  1.00  0.00     0.167 HD
HETATM   14  C   UNL     1      44.026  -9.501  10.997  1.00  0.00     0.068 C 
HETATM   15  C   UNL     1      45.702  -9.788   9.134  1.00  0.00     0.025 A 
HETATM   16  C   UNL     1      46.034 -10.306   7.891  1.00  0.00     0.006 A 
HETATM   17  C   UNL     1      45.094 -11.056   7.194  1.00  0.00     0.048 A 
ENDBRANCH   8  10
ENDBRANCH   7   8
ENDBRANCH   1   7
BRANCH   3  18
HETATM   18  C   UNL     1      43.752 -16.413   5.276  1.00  0.00     0.276 C 
BRANCH  18  19
HETATM   19  C   UNL     1      43.732 -17.901   5.059  1.00  0.00     0.002 A 
HETATM   20  C   UNL     1      43.614 -18.786   6.137  1.00  0.00     0.073 A 
HETATM   21  C   UNL     1      43.592 -20.166   5.942  1.00  0.00     0.038 A 
HETATM   22  C   UNL     1      43.681 -20.679   4.648  1.00  0.00     0.022 A 
HETATM   23  C   UNL     1      43.801 -19.811   3.565  1.00  0.00     0.011 A 
HETATM   24 BR   UNL     1      43.896 -20.499   1.808  1.00  0.00    -0.051 Br
HETATM   25  C   UNL     1      43.838 -18.429   3.763  1.00  0.00     0.030 A 
BRANCH  20  26
HETATM   26  O   UNL     1      43.488 -18.259   7.393  1.00  0.00    -0.360 OA
HETATM   27  H   UNL     1      43.196 -18.980   7.992  1.00  0.00     0.217 HD
ENDBRANCH  20  26
ENDBRANCH  18  19
ENDBRANCH   3  18
TORSDOF 6
ENDMDL
MODEL 6
REMARK VINA RESULT:      -7.8      4.069      6.195
REMARK  6 active torsions:
REMARK  status: ('A' for Active; 'I' for Inactive)
REMARK    1  A    between atoms: C_5  and  N_6 
REMARK    2  A    between atoms: N_6  and  C_7 
REMARK    3  A    between atoms: C_7  and  C_8 
REMARK    4  A    between atoms: N_10  and  C_12 
REMARK    5  A    between atoms: C_12  and  C_13 
REMARK    6  A    between atoms: C_14  and  O_15 
ROOT
HETATM    1  C   UNL     1      43.086 -13.409   5.311  1.00  0.00     0.031 C 
HETATM    2  C   UNL     1      42.396 -13.057   3.994  1.00  0.00     0.241 C 
HETATM    3  N   UNL     1      41.127 -12.337   4.384  1.00  0.00    -0.067 N 
HETATM    4  H   UNL     1      41.091 -11.468   3.816  1.00  0.00     0.280 HD
HETATM    5  C   UNL     1      41.218 -11.956   5.835  1.00  0.00     0.235 C 
HETATM    6  C   UNL     1      42.666 -12.246   6.210  1.00  0.00     0.035 C 
ENDROOT
BRANCH   1   7
HETATM    7  C   UNL     1      42.672 -14.782   5.874  1.00  0.00     0.127 C 
BRANCH   7   8
HETATM    8  N   UNL     1      43.735 -15.758   5.672  1.00  0.00    -0.376 N 
HETATM    9  H   UNL     1      44.668 -15.330   5.634  1.00  0.00     0.161 HD
BRANCH   8  10
HETATM   10  C   UNL     1      43.698 -16.847   4.807  1.00  0.00     0.101 A 
HETATM   11  N   UNL     1      44.012 -18.099   5.179  1.00  0.00    -0.347 N 
HETATM   12  C   UNL     1      43.984 -19.157   4.340  1.00  0.00     0.007 A 
HETATM   13  H   UNL     1      44.257 -18.273   6.145  1.00  0.00     0.167 HD
HETATM   14  C   UNL     1      44.304 -20.517   4.875  1.00  0.00     0.068 C 
HETATM   15  C   UNL     1      43.642 -18.961   3.004  1.00  0.00     0.025 A 
HETATM   16  C   UNL     1      43.336 -17.684   2.561  1.00  0.00     0.006 A 
HETATM   17  C   UNL     1      43.364 -16.626   3.462  1.00  0.00     0.048 A 
ENDBRANCH   8  10
ENDBRANCH   7   8
ENDBRANCH   1   7
BRANCH   3  18
HETATM   18  C   UNL     1      39.834 -13.019   4.004  1.00  0.00     0.276 C 
BRANCH  18  19
HETATM   19  C   UNL     1      39.899 -13.721   2.676  1.00  0.00     0.002 A 
HETATM   20  C   UNL     1      39.980 -15.117   2.601  1.00  0.00     0.073 A 
HETATM   21  C   UNL     1      40.037 -15.774   1.373  1.00  0.00     0.038 A 
HETATM   22  C   UNL     1      40.006 -15.030   0.193  1.00  0.00     0.022 A 
HETATM   23  C   UNL     1      39.928 -13.641   0.252  1.00  0.00     0.011 A 
HETATM   24 BR   UNL     1      39.859 -12.631  -1.343  1.00  0.00    -0.051 Br
HETATM   25  C   UNL     1      39.885 -12.983   1.482  1.00  0.00     0.030 A 
BRANCH  20  26
HETATM   26  O   UNL     1      39.969 -15.828   3.770  1.00  0.00    -0.360 OA
HETATM   27  H   UNL     1      39.110 -16.299   3.825  1.00  0.00     0.217 HD
ENDBRANCH  20  26
ENDBRANCH  18  19
ENDBRANCH   3  18
TORSDOF 6
ENDMDL
MODEL 7
REMARK VINA RESULT:      -7.7      3.774      8.946
REMARK  6 active torsions:
REMARK  status: ('A' for Active; 'I' for Inactive)
REMARK    1  A    between atoms: C_5  and  N_6 
REMARK    2  A    between atoms: N_6  and  C_7 
REMARK    3  A    between atoms: C_7  and  C_8 
REMARK    4  A    between atoms: N_10  and  C_12 
REMARK    5  A    between atoms: C_12  and  C_13 
REMARK    6  A    between atoms: C_14  and  O_15 
ROOT
HETATM    1  C   UNL     1      44.304 -10.948   7.257  1.00  0.00     0.031 C 
HETATM    2  C   UNL     1      44.780 -12.263   6.640  1.00  0.00     0.241 C 
HETATM    3  N   UNL     1      43.523 -13.006   6.255  1.00  0.00    -0.067 N 
HETATM    4  H   UNL     1      43.651 -13.318   5.273  1.00  0.00     0.280 HD
HETATM    5  C   UNL     1      42.366 -12.047   6.304  1.00  0.00     0.235 C 
HETATM    6  C   UNL     1      43.016 -10.680   6.479  1.00  0.00     0.035 C 
ENDROOT
BRANCH   1   7
HETATM    7  C   UNL     1      44.080 -11.030   8.779  1.00  0.00     0.127 C 
BRANCH   7   8
HETATM    8  N   UNL     1      43.074 -10.062   9.199  1.00  0.00    -0.376 N 
HETATM    9  H   UNL     1      43.046  -9.230   8.599  1.00  0.00     0.161 HD
BRANCH   8  10
HETATM   10  C   UNL     1      42.787  -9.690  10.509  1.00  0.00     0.101 A 
HETATM   11  N   UNL     1      41.697 -10.104  11.175  1.00  0.00    -0.347 N 
HETATM   12  C   UNL     1      41.412  -9.739  12.443  1.00  0.00     0.007 A 
HETATM   13  H   UNL     1      41.062 -10.746  10.718  1.00  0.00     0.167 HD
HETATM   14  C   UNL     1      40.195 -10.302  13.106  1.00  0.00     0.068 C 
HETATM   15  C   UNL     1      42.266  -8.863  13.111  1.00  0.00     0.025 A 
HETATM   16  C   UNL     1      43.392  -8.384  12.459  1.00  0.00     0.006 A 
HETATM   17  C   UNL     1      43.653  -8.797  11.158  1.00  0.00     0.048 A 
ENDBRANCH   8  10
ENDBRANCH   7   8
ENDBRANCH   1   7
BRANCH   3  18
HETATM   18  C   UNL     1      43.276 -14.310   6.975  1.00  0.00     0.276 C 
BRANCH  18  19
HETATM   19  C   UNL     1      43.384 -15.513   6.082  1.00  0.00     0.002 A 
HETATM   20  C   UNL     1      43.626 -16.787   6.612  1.00  0.00     0.073 A 
HETATM   21  C   UNL     1      43.724 -17.907   5.789  1.00  0.00     0.038 A 
HETATM   22  C   UNL     1      43.572 -17.763   4.410  1.00  0.00     0.022 A 
HETATM   23  C   UNL     1      43.334 -16.502   3.867  1.00  0.00     0.011 A 
HETATM   24 BR   UNL     1      43.102 -16.306   2.003  1.00  0.00    -0.051 Br
HETATM   25  C   UNL     1      43.250 -15.379   4.691  1.00  0.00     0.030 A 
BRANCH  20  26
HETATM   26  O   UNL     1      43.731 -16.910   7.970  1.00  0.00    -0.360 OA
HETATM   27  H   UNL     1      42.828 -16.848   8.347  1.00  0.00     0.217 HD
ENDBRANCH  20  26
ENDBRANCH  18  19
ENDBRANCH   3  18
TORSDOF 6
ENDMDL
MODEL 8
REMARK VINA RESULT:      -7.6      3.318      8.363
REMARK  6 active torsions:
REMARK  status: ('A' for Active; 'I' for Inactive)
REMARK    1  A    between atoms: C_5  and  N_6 
REMARK    2  A    between atoms: N_6  and  C_7 
REMARK    3  A    between atoms: C_7  and  C_8 
REMARK    4  A    between atoms: N_10  and  C_12 
REMARK    5  A    between atoms: C_12  and  C_13 
REMARK    6  A    between atoms: C_14  and  O_15 
ROOT
HETATM    1  C   UNL     1      41.586 -12.802   5.095  1.00  0.00     0.031 C 
HETATM    2  C   UNL     1      41.816 -13.765   3.931  1.00  0.00     0.241 C 
HETATM    3  N   UNL     1      42.123 -15.100   4.568  1.00  0.00    -0.067 N 
HETATM    4  H   UNL     1      41.514 -15.799   4.100  1.00  0.00     0.280 HD
HETATM    5  C   UNL     1      41.746 -15.035   6.021  1.00  0.00     0.235 C 
HETATM    6  C   UNL     1      40.984 -13.724   6.156  1.00  0.00     0.035 C 
ENDROOT
BRANCH   1   7
HETATM    7  C   UNL     1      42.870 -12.097   5.572  1.00  0.00     0.127 C 
BRANCH   7   8
HETATM    8  N   UNL     1      42.967 -12.141   7.026  1.00  0.00    -0.376 N 
HETATM    9  H   UNL     1      42.050 -12.187   7.485  1.00  0.00     0.161 HD
BRANCH   8  10
HETATM   10  C   UNL     1      43.836 -11.394   7.815  1.00  0.00     0.101 A 
HETATM   11  N   UNL     1      43.507 -10.909   9.024  1.00  0.00    -0.347 N 
HETATM   12  C   UNL     1      44.345 -10.177   9.789  1.00  0.00     0.007 A 
HETATM   13  H   UNL     1      42.592 -11.121   9.401  1.00  0.00     0.167 HD
HETATM   14  C   UNL     1      43.890  -9.731  11.142  1.00  0.00     0.068 C 
HETATM   15  C   UNL     1      45.617  -9.870   9.309  1.00  0.00     0.025 A 
HETATM   16  C   UNL     1      45.998 -10.324   8.055  1.00  0.00     0.006 A 
HETATM   17  C   UNL     1      45.107 -11.085   7.308  1.00  0.00     0.048 A 
ENDBRANCH   8  10
ENDBRANCH   7   8
ENDBRANCH   1   7
BRANCH   3  18
HETATM   18  C   UNL     1      43.503 -15.655   4.310  1.00  0.00     0.276 C 
BRANCH  18  19
HETATM   19  C   UNL     1      43.491 -17.069   3.798  1.00  0.00     0.002 A 
HETATM   20  C   UNL     1      43.124 -17.356   2.478  1.00  0.00     0.073 A 
HETATM   21  C   UNL     1      43.113 -18.663   1.996  1.00  0.00     0.038 A 
HETATM   22  C   UNL     1      43.482 -19.710   2.842  1.00  0.00     0.022 A 
HETATM   23  C   UNL     1      43.847 -19.441   4.159  1.00  0.00     0.011 A 
HETATM   24 BR   UNL     1      44.372 -20.852   5.300  1.00  0.00    -0.051 Br
HETATM   25  C   UNL     1      43.843 -18.132   4.644  1.00  0.00     0.030 A 
BRANCH  20  26
HETATM   26  O   UNL     1      42.804 -16.309   1.656  1.00  0.00    -0.360 OA
HETATM   27  H   UNL     1      42.933 -16.607   0.730  1.00  0.00     0.217 HD
ENDBRANCH  20  26
ENDBRANCH  18  19
ENDBRANCH   3  18
TORSDOF 6
ENDMDL
MODEL 9
REMARK VINA RESULT:      -7.5      3.175      4.346
REMARK  6 active torsions:
REMARK  status: ('A' for Active; 'I' for Inactive)
REMARK    1  A    between atoms: C_5  and  N_6 
REMARK    2  A    between atoms: N_6  and  C_7 
REMARK    3  A    between atoms: C_7  and  C_8 
REMARK    4  A    between atoms: N_10  and  C_12 
REMARK    5  A    between atoms: C_12  and  C_13 
REMARK    6  A    between atoms: C_14  and  O_15 
ROOT
HETATM    1  C   UNL     1      39.979 -14.148   1.983  1.00  0.00     0.031 C 
HETATM    2  C   UNL     1      39.078 -13.195   2.767  1.00  0.00     0.241 C 
HETATM    3  N   UNL     1      40.006 -12.401   3.655  1.00  0.00    -0.067 N 
HETATM    4  H   UNL     1      39.757 -11.401   3.527  1.00  0.00     0.280 HD
HETATM    5  C   UNL     1      41.417 -12.607   3.178  1.00  0.00     0.235 C 
HETATM    6  C   UNL     1      41.264 -13.330   1.847  1.00  0.00     0.035 C 
ENDROOT
BRANCH   1   7
HETATM    7  C   UNL     1      40.201 -15.501   2.686  1.00  0.00     0.127 C 
BRANCH   7   8
HETATM    8  N   UNL     1      41.228 -16.272   1.996  1.00  0.00    -0.376 N 
HETATM    9  H   UNL     1      40.871 -16.757   1.165  1.00  0.00     0.161 HD
BRANCH   8  10
HETATM   10  C   UNL     1      42.210 -17.055   2.596  1.00  0.00     0.101 A 
HETATM   11  N   UNL     1      42.566 -18.269   2.146  1.00  0.00    -0.347 N 
HETATM   12  C   UNL     1      43.512 -19.035   2.729  1.00  0.00     0.007 A 
HETATM   13  H   UNL     1      42.124 -18.626   1.308  1.00  0.00     0.167 HD
HETATM   14  C   UNL     1      43.865 -20.351   2.112  1.00  0.00     0.068 C 
HETATM   15  C   UNL     1      44.150 -18.575   3.880  1.00  0.00     0.025 A 
HETATM   16  C   UNL     1      43.801 -17.339   4.402  1.00  0.00     0.006 A 
HETATM   17  C   UNL     1      42.830 -16.579   3.760  1.00  0.00     0.048 A 
ENDBRANCH   8  10
ENDBRANCH   7   8
ENDBRANCH   1   7
BRANCH   3  18
HETATM   18  C   UNL     1      39.822 -12.588   5.142  1.00  0.00     0.276 C 
BRANCH  18  19
HETATM   19  C   UNL     1      41.022 -13.188   5.820  1.00  0.00     0.002 A 
HETATM   20  C   UNL     1      41.001 -14.505   6.295  1.00  0.00     0.073 A 
HETATM   21  C   UNL     1      42.111 -15.067   6.921  1.00  0.00     0.038 A 
HETATM   22  C   UNL     1      43.272 -14.308   7.075  1.00  0.00     0.022 A 
HETATM   23  C   UNL     1      43.308 -12.995   6.610  1.00  0.00     0.011 A 
HETATM   24 BR   UNL     1      44.886 -11.973   6.791  1.00  0.00    -0.051 Br
HETATM   25  C   UNL     1      42.190 -12.429   5.995  1.00  0.00     0.030 A 
BRANCH  20  26
HETATM   26  O   UNL     1      39.866 -15.242   6.098  1.00  0.00    -0.360 OA
HETATM   27  H   UNL     1      40.138 -16.136   5.798  1.00  0.00     0.217 HD
ENDBRANCH  20  26
ENDBRANCH  18  19
ENDBRANCH   3  18
TORSDOF 6
ENDMDL
MODEL 10
REMARK VINA RESULT:      -7.5      5.578      7.408
REMARK  6 active torsions:
REMARK  status: ('A' for Active; 'I' for Inactive)
REMARK    1  A    between atoms: C_5  and  N_6 
REMARK    2  A    between atoms: N_6  and  C_7 
REMARK    3  A    between atoms: C_7  and  C_8 
REMARK    4  A    between atoms: N_10  and  C_12 
REMARK    5  A    between atoms: C_12  and  C_13 
REMARK    6  A    between atoms: C_14  and  O_15 
ROOT
HETATM    1  C   UNL     1      41.801 -14.715   3.308  1.00  0.00     0.031 C 
HETATM    2  C   UNL     1      41.297 -13.639   2.347  1.00  0.00     0.241 C 
HETATM    3  N   UNL     1      40.319 -14.340   1.435  1.00  0.00    -0.067 N 
HETATM    4  H   UNL     1      39.460 -13.757   1.416  1.00  0.00     0.280 HD
HETATM    5  C   UNL     1      39.977 -15.675   2.034  1.00  0.00     0.235 C 
HETATM    6  C   UNL     1      40.579 -15.627   3.432  1.00  0.00     0.035 C 
ENDROOT
BRANCH   1   7
HETATM    7  C   UNL     1      43.053 -15.454   2.801  1.00  0.00     0.127 C 
BRANCH   7   8
HETATM    8  N   UNL     1      43.475 -16.463   3.765  1.00  0.00    -0.376 N 
HETATM    9  H   UNL     1      44.299 -16.176   4.307  1.00  0.00     0.161 HD
BRANCH   8  10
HETATM   10  C   UNL     1      43.527 -17.836   3.549  1.00  0.00     0.101 A 
HETATM   11  N   UNL     1      43.936 -18.717   4.477  1.00  0.00    -0.347 N 
HETATM   12  C   UNL     1      43.995 -20.050   4.268  1.00  0.00     0.007 A 
HETATM   13  H   UNL     1      44.190 -18.375   5.395  1.00  0.00     0.167 HD
HETATM   14  C   UNL     1      44.417 -20.943   5.391  1.00  0.00     0.068 C 
HETATM   15  C   UNL     1      43.645 -20.562   3.021  1.00  0.00     0.025 A 
HETATM   16  C   UNL     1      43.241 -19.694   2.018  1.00  0.00     0.006 A 
HETATM   17  C   UNL     1      43.183 -18.330   2.282  1.00  0.00     0.048 A 
ENDBRANCH   8  10
ENDBRANCH   7   8
ENDBRANCH   1   7
BRANCH   3  18
HETATM   18  C   UNL     1      40.698 -14.396  -0.026  1.00  0.00     0.276 C 
BRANCH  18  19
HETATM   19  C   UNL     1      40.197 -13.221  -0.817  1.00  0.00     0.002 A 
HETATM   20  C   UNL     1      39.048 -13.321  -1.611  1.00  0.00     0.073 A 
HETATM   21  C   UNL     1      38.577 -12.234  -2.345  1.00  0.00     0.038 A 
HETATM   22  C   UNL     1      39.257 -11.017  -2.285  1.00  0.00     0.022 A 
HETATM   23  C   UNL     1      40.403 -10.902  -1.501  1.00  0.00     0.011 A 
HETATM   24 BR   UNL     1      41.312  -9.250  -1.396  1.00  0.00    -0.051 Br
HETATM   25  C   UNL     1      40.882 -11.996  -0.778  1.00  0.00     0.030 A 
BRANCH  20  26
HETATM   26  O   UNL     1      38.376 -14.512  -1.623  1.00  0.00    -0.360 OA
HETATM   27  H   UNL     1      37.417 -14.314  -1.689  1.00  0.00     0.217 HD
ENDBRANCH  20  26
ENDBRANCH  18  19
ENDBRANCH   3  18
TORSDOF 6
ENDMDL
