MODEL 1
REMARK VINA RESULT:      -8.7      0.000      0.000
REMARK  4 active torsions:
REMARK  status: ('A' for Active; 'I' for Inactive)
REMARK    1  A    between atoms: C_4  and  C_5 
REMARK    2  A    between atoms: C_9  and  C_10 
REMARK       I    between atoms: C_10  and  N_11 
REMARK    3  A    between atoms: C_17  and  O_18 
REMARK    4  A    between atoms: C_25  and  O_26 
ROOT
HETATM    1  C   UNL     1      41.658 -16.106   2.415  1.00  0.00     0.065 A 
HETATM    2  N   UNL     1      40.456 -15.775   2.984  1.00  0.00    -0.277 N 
HETATM    3  H   UNL     1      40.038 -16.167   3.821  1.00  0.00     0.189 HD
HETATM    4  N   UNL     1      39.798 -14.796   2.345  1.00  0.00    -0.169 NA
HETATM    5  C   UNL     1      40.582 -14.485   1.295  1.00  0.00     0.149 A 
HETATM    6  C   UNL     1      41.759 -15.287   1.309  1.00  0.00     0.071 A 
ENDROOT
BRANCH   5   7
HETATM    7  C   UNL     1      40.264 -13.441   0.299  1.00  0.00     0.299 C 
HETATM    8  N   UNL     1      40.777 -12.210   0.620  1.00  0.00    -0.183 NA
HETATM    9  C   UNL     1      40.934 -11.372  -0.338  1.00  0.00     0.175 A 
HETATM   10  S   UNL     1      41.589  -9.752   0.062  1.00  0.00    -0.050 SA
HETATM   11  N   UNL     1      40.673 -11.458  -1.687  1.00  0.00    -0.334 N 
HETATM   12  C   UNL     1      41.369  -9.219  -1.624  1.00  0.00     0.037 A 
HETATM   13  C   UNL     1      40.838 -10.264  -2.392  1.00  0.00     0.051 A 
HETATM   14  C   UNL     1      41.651  -7.981  -2.175  1.00  0.00     0.058 A 
HETATM   15  C   UNL     1      40.626 -10.086  -3.747  1.00  0.00     0.034 A 
HETATM   16  C   UNL     1      40.909  -8.839  -4.320  1.00  0.00     0.039 A 
HETATM   17  C   UNL     1      41.417  -7.786  -3.539  1.00  0.00     0.069 A 
HETATM   18  H   UNL     1      40.090 -12.209  -2.034  1.00  0.00     0.168 HD
HETATM   19  O   UNL     1      39.599 -13.688  -0.707  1.00  0.00    -0.263 OA
BRANCH  17  20
HETATM   20  O   UNL     1      41.728  -6.533  -3.993  1.00  0.00    -0.356 OA
HETATM   21  C   UNL     1      42.787  -6.431  -4.938  1.00  0.00     0.210 C 
ENDBRANCH  17  20
ENDBRANCH   5   7
BRANCH   1  22
HETATM   22  C   UNL     1      42.544 -17.133   2.955  1.00  0.00     0.026 A 
HETATM   23  C   UNL     1      42.742 -18.322   2.232  1.00  0.00     0.023 A 
HETATM   24  C   UNL     1      43.588 -19.333   2.711  1.00  0.00    -0.061 A 
HETATM   25  C   UNL     1      43.813 -20.583   1.911  1.00  0.00     0.048 C 
HETATM   26  C   UNL     1      44.273 -19.136   3.914  1.00  0.00     0.009 A 
HETATM   27  C   UNL     1      44.090 -17.961   4.642  1.00  0.00     0.038 A 
HETATM   28  C   UNL     1      43.227 -16.975   4.171  1.00  0.00     0.078 A 
BRANCH  28  29
HETATM   29  O   UNL     1      43.078 -15.879   4.978  1.00  0.00    -0.360 OA
HETATM   30  H   UNL     1      43.888 -15.346   4.924  1.00  0.00     0.217 HD
ENDBRANCH  28  29
ENDBRANCH   1  22
TORSDOF 4
ENDMDL
MODEL 2
REMARK VINA RESULT:      -8.6      3.371      3.904
REMARK  4 active torsions:
REMARK  status: ('A' for Active; 'I' for Inactive)
REMARK    1  A    between atoms: C_4  and  C_5 
REMARK    2  A    between atoms: C_9  and  C_10 
REMARK       I    between atoms: C_10  and  N_11 
REMARK    3  A    between atoms: C_17  and  O_18 
REMARK    4  A    between atoms: C_25  and  O_26 
ROOT
HETATM    1  C   UNL     1      42.861 -15.741   2.869  1.00  0.00     0.065 A 
HETATM    2  N   UNL     1      43.255 -14.601   3.518  1.00  0.00    -0.277 N 
HETATM    3  H   UNL     1      43.873 -14.526   4.320  1.00  0.00     0.189 HD
HETATM    4  N   UNL     1      42.767 -13.470   2.987  1.00  0.00    -0.169 NA
HETATM    5  C   UNL     1      41.996 -13.879   1.961  1.00  0.00     0.149 A 
HETATM    6  C   UNL     1      42.033 -15.299   1.857  1.00  0.00     0.071 A 
ENDROOT
BRANCH   5   7
HETATM    7  C   UNL     1      41.249 -12.970   1.067  1.00  0.00     0.299 C 
HETATM    8  N   UNL     1      40.594 -13.622   0.054  1.00  0.00    -0.183 NA
HETATM    9  C   UNL     1      39.605 -13.013  -0.493  1.00  0.00     0.175 A 
HETATM   10  S   UNL     1      38.745 -13.841  -1.830  1.00  0.00    -0.050 SA
HETATM   11  N   UNL     1      39.046 -11.777  -0.263  1.00  0.00    -0.334 N 
HETATM   12  C   UNL     1      37.724 -12.405  -2.095  1.00  0.00     0.037 A 
HETATM   13  C   UNL     1      38.063 -11.400  -1.179  1.00  0.00     0.051 A 
HETATM   14  C   UNL     1      36.728 -12.225  -3.039  1.00  0.00     0.058 A 
HETATM   15  C   UNL     1      37.363 -10.207  -1.174  1.00  0.00     0.034 A 
HETATM   16  C   UNL     1      36.350 -10.010  -2.122  1.00  0.00     0.039 A 
HETATM   17  C   UNL     1      36.033 -11.012  -3.056  1.00  0.00     0.069 A 
HETATM   18  H   UNL     1      39.553 -11.097   0.290  1.00  0.00     0.168 HD
HETATM   19  O   UNL     1      41.240 -11.752   1.244  1.00  0.00    -0.263 OA
BRANCH  17  20
HETATM   20  O   UNL     1      35.066 -10.927  -4.021  1.00  0.00    -0.356 OA
HETATM   21  C   UNL     1      34.227 -12.062  -4.197  1.00  0.00     0.210 C 
ENDBRANCH  17  20
ENDBRANCH   5   7
BRANCH   1  22
HETATM   22  C   UNL     1      43.287 -17.079   3.269  1.00  0.00     0.026 A 
HETATM   23  C   UNL     1      43.207 -18.132   2.341  1.00  0.00     0.023 A 
HETATM   24  C   UNL     1      43.610 -19.433   2.680  1.00  0.00    -0.061 A 
HETATM   25  C   UNL     1      43.548 -20.540   1.669  1.00  0.00     0.048 C 
HETATM   26  C   UNL     1      44.132 -19.674   3.955  1.00  0.00     0.009 A 
HETATM   27  C   UNL     1      44.220 -18.640   4.886  1.00  0.00     0.038 A 
HETATM   28  C   UNL     1      43.792 -17.358   4.548  1.00  0.00     0.078 A 
BRANCH  28  29
HETATM   29  O   UNL     1      43.876 -16.421   5.542  1.00  0.00    -0.360 OA
HETATM   30  H   UNL     1      44.155 -15.579   5.147  1.00  0.00     0.217 HD
ENDBRANCH  28  29
ENDBRANCH   1  22
TORSDOF 4
ENDMDL
MODEL 3
REMARK VINA RESULT:      -8.5     16.438     20.133
REMARK  4 active torsions:
REMARK  status: ('A' for Active; 'I' for Inactive)
REMARK    1  A    between atoms: C_4  and  C_5 
REMARK    2  A    between atoms: C_9  and  C_10 
REMARK       I    between atoms: C_10  and  N_11 
REMARK    3  A    between atoms: C_17  and  O_18 
REMARK    4  A    between atoms: C_25  and  O_26 
ROOT
HETATM    1  C   UNL     1      43.407 -29.383   0.421  1.00  0.00     0.065 A 
HETATM    2  N   UNL     1      42.687 -28.488   1.167  1.00  0.00    -0.277 N 
HETATM    3  H   UNL     1      42.786 -27.478   1.188  1.00  0.00     0.189 HD
HETATM    4  N   UNL     1      41.733 -29.046   1.925  1.00  0.00    -0.169 NA
HETATM    5  C   UNL     1      41.843 -30.369   1.694  1.00  0.00     0.149 A 
HETATM    6  C   UNL     1      42.883 -30.616   0.752  1.00  0.00     0.071 A 
ENDROOT
BRANCH   5   7
HETATM    7  C   UNL     1      40.981 -31.397   2.314  1.00  0.00     0.299 C 
HETATM    8  N   UNL     1      41.129 -31.481   3.675  1.00  0.00    -0.183 NA
HETATM    9  C   UNL     1      40.163 -32.001   4.339  1.00  0.00     0.175 A 
HETATM   10  S   UNL     1      40.343 -32.134   6.118  1.00  0.00    -0.050 SA
HETATM   11  N   UNL     1      38.953 -32.525   3.945  1.00  0.00    -0.334 N 
HETATM   12  C   UNL     1      38.795 -33.010   6.234  1.00  0.00     0.037 A 
HETATM   13  C   UNL     1      38.225 -33.146   4.961  1.00  0.00     0.051 A 
HETATM   14  C   UNL     1      38.179 -33.514   7.366  1.00  0.00     0.058 A 
HETATM   15  C   UNL     1      36.992 -33.758   4.819  1.00  0.00     0.034 A 
HETATM   16  C   UNL     1      36.355 -34.272   5.957  1.00  0.00     0.039 A 
HETATM   17  C   UNL     1      36.945 -34.156   7.227  1.00  0.00     0.069 A 
HETATM   18  H   UNL     1      38.798 -32.739   2.967  1.00  0.00     0.168 HD
HETATM   19  O   UNL     1      40.219 -32.092   1.643  1.00  0.00    -0.263 OA
BRANCH  17  20
HETATM   20  O   UNL     1      36.413 -34.618   8.401  1.00  0.00    -0.356 OA
HETATM   21  C   UNL     1      35.073 -35.094   8.360  1.00  0.00     0.210 C 
ENDBRANCH  17  20
ENDBRANCH   5   7
BRANCH   1  22
HETATM   22  C   UNL     1      44.482 -28.991  -0.486  1.00  0.00     0.026 A 
HETATM   23  C   UNL     1      44.299 -29.133  -1.872  1.00  0.00     0.023 A 
HETATM   24  C   UNL     1      45.303 -28.765  -2.781  1.00  0.00    -0.061 A 
HETATM   25  C   UNL     1      45.081 -28.894  -4.259  1.00  0.00     0.048 C 
HETATM   26  C   UNL     1      46.493 -28.214  -2.294  1.00  0.00     0.009 A 
HETATM   27  C   UNL     1      46.689 -28.064  -0.922  1.00  0.00     0.038 A 
HETATM   28  C   UNL     1      45.697 -28.458  -0.028  1.00  0.00     0.078 A 
BRANCH  28  29
HETATM   29  O   UNL     1      45.999 -28.313   1.299  1.00  0.00    -0.360 OA
HETATM   30  H   UNL     1      45.471 -28.952   1.806  1.00  0.00     0.217 HD
ENDBRANCH  28  29
ENDBRANCH   1  22
TORSDOF 4
ENDMDL
MODEL 4
REMARK VINA RESULT:      -8.5      7.773      9.800
REMARK  4 active torsions:
REMARK  status: ('A' for Active; 'I' for Inactive)
REMARK    1  A    between atoms: C_4  and  C_5 
REMARK    2  A    between atoms: C_9  and  C_10 
REMARK       I    between atoms: C_10  and  N_11 
REMARK    3  A    between atoms: C_17  and  O_18 
REMARK    4  A    between atoms: C_25  and  O_26 
ROOT
HETATM    1  C   UNL     1      43.018 -14.256   4.741  1.00  0.00     0.065 A 
HETATM    2  N   UNL     1      42.157 -13.254   4.378  1.00  0.00    -0.277 N 
HETATM    3  H   UNL     1      41.512 -13.245   3.595  1.00  0.00     0.189 HD
HETATM    4  N   UNL     1      42.180 -12.188   5.192  1.00  0.00    -0.169 NA
HETATM    5  C   UNL     1      43.115 -12.484   6.117  1.00  0.00     0.149 A 
HETATM    6  C   UNL     1      43.660 -13.776   5.865  1.00  0.00     0.071 A 
ENDROOT
BRANCH   5   7
HETATM    7  C   UNL     1      43.486 -11.597   7.238  1.00  0.00     0.299 C 
HETATM    8  N   UNL     1      42.774 -10.424   7.262  1.00  0.00    -0.183 NA
HETATM    9  C   UNL     1      42.700  -9.805   8.383  1.00  0.00     0.175 A 
HETATM   10  S   UNL     1      41.787  -8.263   8.431  1.00  0.00    -0.050 SA
HETATM   11  N   UNL     1      43.221 -10.087   9.625  1.00  0.00    -0.334 N 
HETATM   12  C   UNL     1      42.256  -8.010  10.132  1.00  0.00     0.037 A 
HETATM   13  C   UNL     1      43.047  -9.079  10.575  1.00  0.00     0.051 A 
HETATM   14  C   UNL     1      41.934  -6.950  10.961  1.00  0.00     0.058 A 
HETATM   15  C   UNL     1      43.489  -9.114  11.885  1.00  0.00     0.034 A 
HETATM   16  C   UNL     1      43.169  -8.048  12.737  1.00  0.00     0.039 A 
HETATM   17  C   UNL     1      42.397  -6.966  12.280  1.00  0.00     0.069 A 
HETATM   18  H   UNL     1      43.947 -10.787   9.713  1.00  0.00     0.168 HD
HETATM   19  O   UNL     1      44.354 -11.911   8.051  1.00  0.00    -0.263 OA
BRANCH  17  20
HETATM   20  O   UNL     1      42.026  -5.878  13.023  1.00  0.00    -0.356 OA
HETATM   21  C   UNL     1      40.705  -5.875  13.551  1.00  0.00     0.210 C 
ENDBRANCH  17  20
ENDBRANCH   5   7
BRANCH   1  22
HETATM   22  C   UNL     1      43.144 -15.511   4.006  1.00  0.00     0.026 A 
HETATM   23  C   UNL     1      43.562 -16.668   4.686  1.00  0.00     0.023 A 
HETATM   24  C   UNL     1      43.693 -17.896   4.021  1.00  0.00    -0.061 A 
HETATM   25  C   UNL     1      44.110 -19.129   4.768  1.00  0.00     0.048 C 
HETATM   26  C   UNL     1      43.366 -17.974   2.663  1.00  0.00     0.009 A 
HETATM   27  C   UNL     1      42.948 -16.836   1.975  1.00  0.00     0.038 A 
HETATM   28  C   UNL     1      42.847 -15.616   2.639  1.00  0.00     0.078 A 
BRANCH  28  29
HETATM   29  O   UNL     1      42.472 -14.548   1.868  1.00  0.00    -0.360 OA
HETATM   30  H   UNL     1      41.838 -14.014   2.373  1.00  0.00     0.217 HD
ENDBRANCH  28  29
ENDBRANCH   1  22
TORSDOF 4
ENDMDL
MODEL 5
REMARK VINA RESULT:      -8.5      6.623      8.502
REMARK  4 active torsions:
REMARK  status: ('A' for Active; 'I' for Inactive)
REMARK    1  A    between atoms: C_4  and  C_5 
REMARK    2  A    between atoms: C_9  and  C_10 
REMARK       I    between atoms: C_10  and  N_11 
REMARK    3  A    between atoms: C_17  and  O_18 
REMARK    4  A    between atoms: C_25  and  O_26 
ROOT
HETATM    1  C   UNL     1      43.813 -10.487   7.806  1.00  0.00     0.065 A 
HETATM    2  N   UNL     1      44.703 -11.526   7.742  1.00  0.00    -0.277 N 
HETATM    3  H   UNL     1      45.304 -11.874   8.483  1.00  0.00     0.189 HD
HETATM    4  N   UNL     1      44.738 -12.147   6.554  1.00  0.00    -0.169 NA
HETATM    5  C   UNL     1      43.854 -11.474   5.791  1.00  0.00     0.149 A 
HETATM    6  C   UNL     1      43.253 -10.427   6.546  1.00  0.00     0.071 A 
ENDROOT
BRANCH   5   7
HETATM    7  C   UNL     1      43.546 -11.808   4.385  1.00  0.00     0.299 C 
HETATM    8  N   UNL     1      42.885 -13.002   4.242  1.00  0.00    -0.183 NA
HETATM    9  C   UNL     1      42.209 -13.174   3.166  1.00  0.00     0.175 A 
HETATM   10  S   UNL     1      41.351 -14.733   2.953  1.00  0.00    -0.050 SA
HETATM   11  N   UNL     1      42.008 -12.368   2.068  1.00  0.00    -0.334 N 
HETATM   12  C   UNL     1      40.845 -14.258   1.311  1.00  0.00     0.037 A 
HETATM   13  C   UNL     1      41.323 -12.975   1.014  1.00  0.00     0.051 A 
HETATM   14  C   UNL     1      40.095 -14.985   0.403  1.00  0.00     0.058 A 
HETATM   15  C   UNL     1      41.010 -12.385  -0.197  1.00  0.00     0.034 A 
HETATM   16  C   UNL     1      40.250 -13.108  -1.127  1.00  0.00     0.039 A 
HETATM   17  C   UNL     1      39.795 -14.405  -0.833  1.00  0.00     0.069 A 
HETATM   18  H   UNL     1      42.605 -11.562   1.927  1.00  0.00     0.168 HD
HETATM   19  O   UNL     1      43.867 -11.065   3.459  1.00  0.00    -0.263 OA
BRANCH  17  20
HETATM   20  O   UNL     1      39.048 -15.197  -1.663  1.00  0.00    -0.356 OA
HETATM   21  C   UNL     1      38.434 -14.565  -2.780  1.00  0.00     0.210 C 
ENDBRANCH  17  20
ENDBRANCH   5   7
BRANCH   1  22
HETATM   22  C   UNL     1      43.602  -9.685   9.008  1.00  0.00     0.026 A 
HETATM   23  C   UNL     1      43.444  -8.294   8.888  1.00  0.00     0.023 A 
HETATM   24  C   UNL     1      43.235  -7.484  10.015  1.00  0.00    -0.061 A 
HETATM   25  C   UNL     1      43.036  -6.005   9.866  1.00  0.00     0.048 C 
HETATM   26  C   UNL     1      43.148  -8.082  11.276  1.00  0.00     0.009 A 
HETATM   27  C   UNL     1      43.300  -9.461  11.412  1.00  0.00     0.038 A 
HETATM   28  C   UNL     1      43.535 -10.252  10.290  1.00  0.00     0.078 A 
BRANCH  28  29
HETATM   29  O   UNL     1      43.716 -11.588  10.530  1.00  0.00    -0.360 OA
HETATM   30  H   UNL     1      42.903 -11.940  10.929  1.00  0.00     0.217 HD
ENDBRANCH  28  29
ENDBRANCH   1  22
TORSDOF 4
ENDMDL
MODEL 6
REMARK VINA RESULT:      -8.4      5.348      7.145
REMARK  4 active torsions:
REMARK  status: ('A' for Active; 'I' for Inactive)
REMARK    1  A    between atoms: C_4  and  C_5 
REMARK    2  A    between atoms: C_9  and  C_10 
REMARK       I    between atoms: C_10  and  N_11 
REMARK    3  A    between atoms: C_17  and  O_18 
REMARK    4  A    between atoms: C_25  and  O_26 
ROOT
HETATM    1  C   UNL     1      43.639 -12.169   6.974  1.00  0.00     0.065 A 
HETATM    2  N   UNL     1      43.414 -13.434   7.449  1.00  0.00    -0.277 N 
HETATM    3  H   UNL     1      43.740 -13.835   8.322  1.00  0.00     0.189 HD
HETATM    4  N   UNL     1      42.647 -14.191   6.652  1.00  0.00    -0.169 NA
HETATM    5  C   UNL     1      42.376 -13.406   5.591  1.00  0.00     0.149 A 
HETATM    6  C   UNL     1      42.982 -12.128   5.761  1.00  0.00     0.071 A 
ENDROOT
BRANCH   5   7
HETATM    7  C   UNL     1      41.544 -13.818   4.441  1.00  0.00     0.299 C 
HETATM    8  N   UNL     1      40.843 -12.782   3.878  1.00  0.00    -0.183 NA
HETATM    9  C   UNL     1      40.453 -12.928   2.665  1.00  0.00     0.175 A 
HETATM   10  S   UNL     1      39.522 -11.591   1.916  1.00  0.00    -0.050 SA
HETATM   11  N   UNL     1      40.596 -13.965   1.772  1.00  0.00    -0.334 N 
HETATM   12  C   UNL     1      39.267 -12.562   0.444  1.00  0.00     0.037 A 
HETATM   13  C   UNL     1      39.891 -13.810   0.577  1.00  0.00     0.051 A 
HETATM   14  C   UNL     1      38.572 -12.214  -0.702  1.00  0.00     0.058 A 
HETATM   15  C   UNL     1      39.860 -14.713  -0.470  1.00  0.00     0.034 A 
HETATM   16  C   UNL     1      39.161 -14.374  -1.637  1.00  0.00     0.039 A 
HETATM   17  C   UNL     1      38.515 -13.131  -1.755  1.00  0.00     0.069 A 
HETATM   18  H   UNL     1      40.887 -14.875   2.108  1.00  0.00     0.168 HD
HETATM   19  O   UNL     1      41.508 -14.986   4.055  1.00  0.00    -0.263 OA
BRANCH  17  20
HETATM   20  O   UNL     1      37.809 -12.698  -2.845  1.00  0.00    -0.356 OA
HETATM   21  C   UNL     1      36.936 -11.592  -2.651  1.00  0.00     0.210 C 
ENDBRANCH  17  20
ENDBRANCH   5   7
BRANCH   1  22
HETATM   22  C   UNL     1      44.433 -11.174   7.689  1.00  0.00     0.026 A 
HETATM   23  C   UNL     1      43.968 -10.676   8.918  1.00  0.00     0.023 A 
HETATM   24  C   UNL     1      44.700  -9.721   9.641  1.00  0.00    -0.061 A 
HETATM   25  C   UNL     1      44.204  -9.223  10.967  1.00  0.00     0.048 C 
HETATM   26  C   UNL     1      45.932  -9.287   9.142  1.00  0.00     0.009 A 
HETATM   27  C   UNL     1      46.409  -9.773   7.926  1.00  0.00     0.038 A 
HETATM   28  C   UNL     1      45.661 -10.700   7.203  1.00  0.00     0.078 A 
BRANCH  28  29
HETATM   29  O   UNL     1      46.191 -11.083   6.000  1.00  0.00    -0.360 OA
HETATM   30  H   UNL     1      47.123 -11.319   6.136  1.00  0.00     0.217 HD
ENDBRANCH  28  29
ENDBRANCH   1  22
TORSDOF 4
ENDMDL
MODEL 7
REMARK VINA RESULT:      -8.3      6.997     10.704
REMARK  4 active torsions:
REMARK  status: ('A' for Active; 'I' for Inactive)
REMARK    1  A    between atoms: C_4  and  C_5 
REMARK    2  A    between atoms: C_9  and  C_10 
REMARK       I    between atoms: C_10  and  N_11 
REMARK    3  A    between atoms: C_17  and  O_18 
REMARK    4  A    between atoms: C_25  and  O_26 
ROOT
HETATM    1  C   UNL     1      42.705 -10.156   8.300  1.00  0.00     0.065 A 
HETATM    2  N   UNL     1      41.656  -9.930   7.449  1.00  0.00    -0.277 N 
HETATM    3  H   UNL     1      40.922  -9.235   7.542  1.00  0.00     0.189 HD
HETATM    4  N   UNL     1      41.645 -10.721   6.367  1.00  0.00    -0.169 NA
HETATM    5  C   UNL     1      42.717 -11.524   6.520  1.00  0.00     0.149 A 
HETATM    6  C   UNL     1      43.407 -11.195   7.722  1.00  0.00     0.071 A 
ENDROOT
BRANCH   5   7
HETATM    7  C   UNL     1      43.118 -12.569   5.556  1.00  0.00     0.299 C 
HETATM    8  N   UNL     1      43.483 -13.749   6.153  1.00  0.00    -0.183 NA
HETATM    9  C   UNL     1      43.429 -14.811   5.436  1.00  0.00     0.175 A 
HETATM   10  S   UNL     1      43.917 -16.361   6.194  1.00  0.00    -0.050 SA
HETATM   11  N   UNL     1      43.068 -15.017   4.125  1.00  0.00    -0.334 N 
HETATM   12  C   UNL     1      43.714 -17.211   4.641  1.00  0.00     0.037 A 
HETATM   13  C   UNL     1      43.287 -16.313   3.654  1.00  0.00     0.051 A 
HETATM   14  C   UNL     1      43.926 -18.551   4.365  1.00  0.00     0.058 A 
HETATM   15  C   UNL     1      43.022 -16.768   2.375  1.00  0.00     0.034 A 
HETATM   16  C   UNL     1      43.230 -18.123   2.081  1.00  0.00     0.039 A 
HETATM   17  C   UNL     1      43.683 -19.014   3.068  1.00  0.00     0.069 A 
HETATM   18  H   UNL     1      42.994 -14.225   3.498  1.00  0.00     0.168 HD
HETATM   19  O   UNL     1      43.115 -12.365   4.342  1.00  0.00    -0.263 OA
BRANCH  17  20
HETATM   20  O   UNL     1      43.918 -20.351   2.892  1.00  0.00    -0.356 OA
HETATM   21  C   UNL     1      43.978 -21.157   4.062  1.00  0.00     0.210 C 
ENDBRANCH  17  20
ENDBRANCH   5   7
BRANCH   1  22
HETATM   22  C   UNL     1      42.919  -9.398   9.529  1.00  0.00     0.026 A 
HETATM   23  C   UNL     1      42.725  -8.006   9.521  1.00  0.00     0.023 A 
HETATM   24  C   UNL     1      42.915  -7.238  10.681  1.00  0.00    -0.061 A 
HETATM   25  C   UNL     1      42.673  -5.757  10.664  1.00  0.00     0.048 C 
HETATM   26  C   UNL     1      43.270  -7.879  11.872  1.00  0.00     0.009 A 
HETATM   27  C   UNL     1      43.464  -9.259  11.896  1.00  0.00     0.038 A 
HETATM   28  C   UNL     1      43.300 -10.008  10.734  1.00  0.00     0.078 A 
BRANCH  28  29
HETATM   29  O   UNL     1      43.557 -11.348  10.848  1.00  0.00    -0.360 OA
HETATM   30  H   UNL     1      44.074 -11.628  10.075  1.00  0.00     0.217 HD
ENDBRANCH  28  29
ENDBRANCH   1  22
TORSDOF 4
ENDMDL
MODEL 8
REMARK VINA RESULT:      -8.3      6.980      8.020
REMARK  4 active torsions:
REMARK  status: ('A' for Active; 'I' for Inactive)
REMARK    1  A    between atoms: C_4  and  C_5 
REMARK    2  A    between atoms: C_9  and  C_10 
REMARK       I    between atoms: C_10  and  N_11 
REMARK    3  A    between atoms: C_17  and  O_18 
REMARK    4  A    between atoms: C_25  and  O_26 
ROOT
HETATM    1  C   UNL     1      43.224 -16.482   5.148  1.00  0.00     0.065 A 
HETATM    2  N   UNL     1      42.198 -15.783   4.569  1.00  0.00    -0.277 N 
HETATM    3  H   UNL     1      41.478 -16.140   3.949  1.00  0.00     0.189 HD
HETATM    4  N   UNL     1      42.157 -14.486   4.906  1.00  0.00    -0.169 NA
HETATM    5  C   UNL     1      43.217 -14.311   5.720  1.00  0.00     0.149 A 
HETATM    6  C   UNL     1      43.908 -15.544   5.895  1.00  0.00     0.071 A 
ENDROOT
BRANCH   5   7
HETATM    7  C   UNL     1      43.577 -13.025   6.352  1.00  0.00     0.299 C 
HETATM    8  N   UNL     1      42.843 -11.965   5.883  1.00  0.00    -0.183 NA
HETATM    9  C   UNL     1      42.763 -10.928   6.634  1.00  0.00     0.175 A 
HETATM   10  S   UNL     1      41.822  -9.526   6.032  1.00  0.00    -0.050 SA
HETATM   11  N   UNL     1      43.296 -10.646   7.871  1.00  0.00    -0.334 N 
HETATM   12  C   UNL     1      42.295  -8.566   7.458  1.00  0.00     0.037 A 
HETATM   13  C   UNL     1      43.108  -9.332   8.304  1.00  0.00     0.051 A 
HETATM   14  C   UNL     1      41.957  -7.258   7.760  1.00  0.00     0.058 A 
HETATM   15  C   UNL     1      43.557  -8.799   9.499  1.00  0.00     0.034 A 
HETATM   16  C   UNL     1      43.221  -7.476   9.820  1.00  0.00     0.039 A 
HETATM   17  C   UNL     1      42.427  -6.704   8.955  1.00  0.00     0.069 A 
HETATM   18  H   UNL     1      44.035 -11.232   8.240  1.00  0.00     0.168 HD
HETATM   19  O   UNL     1      44.455 -12.950   7.211  1.00  0.00    -0.263 OA
BRANCH  17  20
HETATM   20  O   UNL     1      42.040  -5.409   9.168  1.00  0.00    -0.356 OA
HETATM   21  C   UNL     1      42.484  -4.790  10.369  1.00  0.00     0.210 C 
ENDBRANCH  17  20
ENDBRANCH   5   7
BRANCH   1  22
HETATM   22  C   UNL     1      43.446 -17.908   4.932  1.00  0.00     0.026 A 
HETATM   23  C   UNL     1      43.580 -18.393   3.619  1.00  0.00     0.023 A 
HETATM   24  C   UNL     1      43.798 -19.755   3.364  1.00  0.00    -0.061 A 
HETATM   25  C   UNL     1      43.971 -20.252   1.959  1.00  0.00     0.048 C 
HETATM   26  C   UNL     1      43.918 -20.639   4.441  1.00  0.00     0.009 A 
HETATM   27  C   UNL     1      43.790 -20.174   5.750  1.00  0.00     0.038 A 
HETATM   28  C   UNL     1      43.547 -18.824   5.990  1.00  0.00     0.078 A 
BRANCH  28  29
HETATM   29  O   UNL     1      43.391 -18.472   7.304  1.00  0.00    -0.360 OA
HETATM   30  H   UNL     1      42.454 -18.269   7.458  1.00  0.00     0.217 HD
ENDBRANCH  28  29
ENDBRANCH   1  22
TORSDOF 4
ENDMDL
MODEL 9
REMARK VINA RESULT:      -8.0      7.775     10.909
REMARK  4 active torsions:
REMARK  status: ('A' for Active; 'I' for Inactive)
REMARK    1  A    between atoms: C_4  and  C_5 
REMARK    2  A    between atoms: C_9  and  C_10 
REMARK       I    between atoms: C_10  and  N_11 
REMARK    3  A    between atoms: C_17  and  O_18 
REMARK    4  A    between atoms: C_25  and  O_26 
ROOT
HETATM    1  C   UNL     1      43.266  -9.529   9.277  1.00  0.00     0.065 A 
HETATM    2  N   UNL     1      44.455 -10.103   9.641  1.00  0.00    -0.277 N 
HETATM    3  H   UNL     1      44.995  -9.929  10.483  1.00  0.00     0.189 HD
HETATM    4  N   UNL     1      44.914 -11.014   8.771  1.00  0.00    -0.169 NA
HETATM    5  C   UNL     1      44.006 -11.025   7.776  1.00  0.00     0.149 A 
HETATM    6  C   UNL     1      42.956 -10.106   8.062  1.00  0.00     0.071 A 
ENDROOT
BRANCH   5   7
HETATM    7  C   UNL     1      44.089 -11.892   6.582  1.00  0.00     0.299 C 
HETATM    8  N   UNL     1      44.035 -13.231   6.878  1.00  0.00    -0.183 NA
HETATM    9  C   UNL     1      43.671 -14.025   5.939  1.00  0.00     0.175 A 
HETATM   10  S   UNL     1      43.609 -15.780   6.301  1.00  0.00    -0.050 SA
HETATM   11  N   UNL     1      43.315 -13.798   4.629  1.00  0.00    -0.334 N 
HETATM   12  C   UNL     1      43.205 -16.140   4.603  1.00  0.00     0.037 A 
HETATM   13  C   UNL     1      43.126 -14.951   3.866  1.00  0.00     0.051 A 
HETATM   14  C   UNL     1      42.988 -17.376   4.018  1.00  0.00     0.058 A 
HETATM   15  C   UNL     1      42.779 -14.991   2.527  1.00  0.00     0.034 A 
HETATM   16  C   UNL     1      42.555 -16.235   1.922  1.00  0.00     0.039 A 
HETATM   17  C   UNL     1      42.661 -17.426   2.660  1.00  0.00     0.069 A 
HETATM   18  H   UNL     1      43.522 -12.902   4.206  1.00  0.00     0.168 HD
HETATM   19  O   UNL     1      44.198 -11.424   5.449  1.00  0.00    -0.263 OA
BRANCH  17  20
HETATM   20  O   UNL     1      42.463 -18.689   2.172  1.00  0.00    -0.356 OA
HETATM   21  C   UNL     1      43.533 -19.615   2.319  1.00  0.00     0.210 C 
ENDBRANCH  17  20
ENDBRANCH   5   7
BRANCH   1  22
HETATM   22  C   UNL     1      42.579  -8.525  10.085  1.00  0.00     0.026 A 
HETATM   23  C   UNL     1      42.920  -7.170   9.933  1.00  0.00     0.023 A 
HETATM   24  C   UNL     1      42.283  -6.171  10.685  1.00  0.00    -0.061 A 
HETATM   25  C   UNL     1      42.635  -4.726  10.489  1.00  0.00     0.048 C 
HETATM   26  C   UNL     1      41.268  -6.532  11.577  1.00  0.00     0.009 A 
HETATM   27  C   UNL     1      40.917  -7.872  11.737  1.00  0.00     0.038 A 
HETATM   28  C   UNL     1      41.574  -8.858  11.005  1.00  0.00     0.078 A 
BRANCH  28  29
HETATM   29  O   UNL     1      41.191 -10.146  11.264  1.00  0.00    -0.360 OA
HETATM   30  H   UNL     1      41.756 -10.744  10.749  1.00  0.00     0.217 HD
ENDBRANCH  28  29
ENDBRANCH   1  22
TORSDOF 4
ENDMDL
MODEL 10
REMARK VINA RESULT:      -7.9      9.707     12.175
REMARK  4 active torsions:
REMARK  status: ('A' for Active; 'I' for Inactive)
REMARK    1  A    between atoms: C_4  and  C_5 
REMARK    2  A    between atoms: C_9  and  C_10 
REMARK       I    between atoms: C_10  and  N_11 
REMARK    3  A    between atoms: C_17  and  O_18 
REMARK    4  A    between atoms: C_25  and  O_26 
ROOT
HETATM    1  C   UNL     1      43.953 -11.696   6.122  1.00  0.00     0.065 A 
HETATM    2  N   UNL     1      45.257 -11.329   6.330  1.00  0.00    -0.277 N 
HETATM    3  H   UNL     1      46.075 -11.630   5.810  1.00  0.00     0.189 HD
HETATM    4  N   UNL     1      45.427 -10.450   7.327  1.00  0.00    -0.169 NA
HETATM    5  C   UNL     1      44.190 -10.246   7.819  1.00  0.00     0.149 A 
HETATM    6  C   UNL     1      43.239 -11.011   7.084  1.00  0.00     0.071 A 
ENDROOT
BRANCH   5   7
HETATM    7  C   UNL     1      43.880  -9.334   8.940  1.00  0.00     0.299 C 
HETATM    8  N   UNL     1      42.692  -9.624   9.563  1.00  0.00    -0.183 NA
HETATM    9  C   UNL     1      42.541  -9.200  10.765  1.00  0.00     0.175 A 
HETATM   10  S   UNL     1      40.991  -9.555  11.591  1.00  0.00    -0.050 SA
HETATM   11  N   UNL     1      43.365  -8.473  11.593  1.00  0.00    -0.334 N 
HETATM   12  C   UNL     1      41.494  -8.589  13.002  1.00  0.00     0.037 A 
HETATM   13  C   UNL     1      42.779  -8.069  12.793  1.00  0.00     0.051 A 
HETATM   14  C   UNL     1      40.786  -8.338  14.165  1.00  0.00     0.058 A 
HETATM   15  C   UNL     1      43.389  -7.321  13.784  1.00  0.00     0.034 A 
HETATM   16  C   UNL     1      42.686  -7.060  14.968  1.00  0.00     0.039 A 
HETATM   17  C   UNL     1      41.387  -7.562  15.160  1.00  0.00     0.069 A 
HETATM   18  H   UNL     1      44.169  -7.998  11.202  1.00  0.00     0.168 HD
HETATM   19  O   UNL     1      44.635  -8.415   9.254  1.00  0.00    -0.263 OA
BRANCH  17  20
HETATM   20  O   UNL     1      40.613  -7.371  16.272  1.00  0.00    -0.356 OA
HETATM   21  C   UNL     1      41.190  -7.708  17.528  1.00  0.00     0.210 C 
ENDBRANCH  17  20
ENDBRANCH   5   7
BRANCH   1  22
HETATM   22  C   UNL     1      43.539 -12.630   5.079  1.00  0.00     0.026 A 
HETATM   23  C   UNL     1      43.230 -13.956   5.426  1.00  0.00     0.023 A 
HETATM   24  C   UNL     1      42.823 -14.886   4.456  1.00  0.00    -0.061 A 
HETATM   25  C   UNL     1      42.466 -16.290   4.847  1.00  0.00     0.048 C 
HETATM   26  C   UNL     1      42.692 -14.472   3.127  1.00  0.00     0.009 A 
HETATM   27  C   UNL     1      42.993 -13.159   2.767  1.00  0.00     0.038 A 
HETATM   28  C   UNL     1      43.422 -12.251   3.733  1.00  0.00     0.078 A 
BRANCH  28  29
HETATM   29  O   UNL     1      43.736 -11.000   3.275  1.00  0.00    -0.360 OA
HETATM   30  H   UNL     1      43.381 -10.346   3.900  1.00  0.00     0.217 HD
ENDBRANCH  28  29
ENDBRANCH   1  22
TORSDOF 4
ENDMDL
