MODEL 1
REMARK VINA RESULT:      -9.1      0.000      0.000
REMARK  10 active torsions:
REMARK  status: ('A' for Active; 'I' for Inactive)
REMARK    1  A    between atoms: C_6  and  N_7 
REMARK    2  A    between atoms: C_6  and  C_29 
REMARK       I    between atoms: N_7  and  C_8 
REMARK    3  A    between atoms: N_7  and  C_23 
REMARK    4  A    between atoms: C_8  and  C_9 
REMARK    5  A    between atoms: C_9  and  N_10 
REMARK    6  A    between atoms: C_14  and  C_15 
REMARK    7  A    between atoms: C_23  and  C_24 
REMARK       I    between atoms: C_29  and  N_30 
REMARK    8  A    between atoms: N_30  and  C_31 
REMARK    9  A    between atoms: C_32  and  O_33 
REMARK   10  A    between atoms: C_36  and  O_37 
ROOT
HETATM    1  N   UNL     1      40.671 -13.322   1.520  1.00  0.00    -0.326 N 
HETATM    2  C   UNL     1      40.210 -14.413   2.298  1.00  0.00     0.239 C 
HETATM    3  O   UNL     1      39.464 -15.267   1.821  1.00  0.00    -0.271 OA
ENDROOT
BRANCH   1   4
HETATM    4  C   UNL     1      39.979 -13.037   0.206  1.00  0.00     0.120 C 
HETATM    5  C   UNL     1      39.853 -14.316  -0.660  1.00  0.00     0.069 C 
HETATM    6  C   UNL     1      39.062 -14.127  -1.951  1.00  0.00     0.237 C 
HETATM    7  N   UNL     1      37.741 -13.456  -1.685  1.00  0.00    -0.075 N 
HETATM    8  C   UNL     1      36.971 -13.262  -2.968  1.00  0.00     0.269 C 
HETATM    9  H   UNL     1      37.181 -14.096  -1.100  1.00  0.00     0.279 HD
HETATM   10  C   UNL     1      37.872 -12.158  -0.935  1.00  0.00     0.237 C 
HETATM   11  C   UNL     1      38.564 -12.415   0.397  1.00  0.00     0.069 C 
BRANCH   4  12
HETATM   12  C   UNL     1      40.806 -11.937  -0.550  1.00  0.00     0.251 C 
HETATM   13  N   UNL     1      40.727 -10.697   0.045  1.00  0.00    -0.323 N 
HETATM   14  H   UNL     1      40.309 -10.635   0.970  1.00  0.00     0.169 HD
HETATM   15  O   UNL     1      41.307 -12.174  -1.645  1.00  0.00    -0.270 OA
BRANCH  13  16
HETATM   16  C   UNL     1      41.130  -9.444  -0.468  1.00  0.00     0.068 A 
HETATM   17  C   UNL     1      40.194  -8.391  -0.376  1.00  0.00     0.097 A 
HETATM   18  C   UNL     1      40.508  -7.126  -0.888  1.00  0.00     0.075 A 
HETATM   19  C   UNL     1      41.747  -6.905  -1.491  1.00  0.00     0.070 A 
HETATM   20  C   UNL     1      42.665  -7.952  -1.582  1.00  0.00     0.039 A 
HETATM   21  C   UNL     1      42.365  -9.216  -1.071  1.00  0.00     0.035 A 
BRANCH  17  22
HETATM   22  O   UNL     1      38.994  -8.729   0.212  1.00  0.00    -0.354 OA
HETATM   23  C   UNL     1      37.810  -8.479  -0.541  1.00  0.00     0.210 C 
ENDBRANCH  17  22
BRANCH  19  24
HETATM   24  O   UNL     1      42.178  -5.729  -2.039  1.00  0.00    -0.356 OA
HETATM   25  C   UNL     1      42.353  -5.693  -3.450  1.00  0.00     0.210 C 
ENDBRANCH  19  24
ENDBRANCH  13  16
ENDBRANCH   4  12
ENDBRANCH   1   4
BRANCH   1  26
HETATM   26  C   UNL     1      42.138 -13.143   1.532  1.00  0.00     0.192 C 
BRANCH  26  27
HETATM   27  C   UNL     1      42.642 -12.292   2.638  1.00  0.00     0.070 A 
HETATM   28  O   UNL     1      41.847 -11.218   2.922  1.00  0.00    -0.325 OA
HETATM   29  C   UNL     1      42.427 -10.539   3.943  1.00  0.00     0.142 A 
HETATM   30  C   UNL     1      43.595 -11.155   4.321  1.00  0.00     0.027 A 
HETATM   31  C   UNL     1      43.738 -12.286   3.479  1.00  0.00     0.036 A 
ENDBRANCH  26  27
ENDBRANCH   1  26
BRANCH   2  32
HETATM   32  C   UNL     1      40.625 -14.394   3.788  1.00  0.00     0.228 C 
BRANCH  32  33
HETATM   33  N   UNL     1      41.720 -15.292   4.123  1.00  0.00    -0.347 N 
HETATM   34  C   UNL     1      42.525 -15.273   5.261  1.00  0.00     0.171 C 
HETATM   35  S   UNL     1      42.510 -14.201   6.521  1.00  0.00    -0.041 SA
HETATM   36  N   UNL     1      43.417 -16.338   5.169  1.00  0.00    -0.357 N 
HETATM   37  C   UNL     1      43.394 -16.892   3.835  1.00  0.00     0.135 C 
HETATM   38  H   UNL     1      44.212 -16.404   5.793  1.00  0.00     0.162 HD
HETATM   39  C   UNL     1      42.015 -16.466   3.319  1.00  0.00     0.155 C 
BRANCH  37  40
HETATM   40  C   UNL     1      43.651 -18.369   3.745  1.00  0.00    -0.034 A 
HETATM   41  C   UNL     1      44.011 -19.131   4.867  1.00  0.00     0.009 A 
HETATM   42  C   UNL     1      44.198 -20.511   4.758  1.00  0.00     0.001 A 
HETATM   43  C   UNL     1      44.020 -21.147   3.530  1.00  0.00     0.000 A 
HETATM   44  C   UNL     1      43.657 -20.405   2.409  1.00  0.00     0.001 A 
HETATM   45  C   UNL     1      43.472 -19.026   2.517  1.00  0.00     0.009 A 
ENDBRANCH  37  40
ENDBRANCH  32  33
ENDBRANCH   2  32
TORSDOF 10
ENDMDL
MODEL 2
REMARK VINA RESULT:      -9.0      2.125      4.540
REMARK  10 active torsions:
REMARK  status: ('A' for Active; 'I' for Inactive)
REMARK    1  A    between atoms: C_6  and  N_7 
REMARK    2  A    between atoms: C_6  and  C_29 
REMARK       I    between atoms: N_7  and  C_8 
REMARK    3  A    between atoms: N_7  and  C_23 
REMARK    4  A    between atoms: C_8  and  C_9 
REMARK    5  A    between atoms: C_9  and  N_10 
REMARK    6  A    between atoms: C_14  and  C_15 
REMARK    7  A    between atoms: C_23  and  C_24 
REMARK       I    between atoms: C_29  and  N_30 
REMARK    8  A    between atoms: N_30  and  C_31 
REMARK    9  A    between atoms: C_32  and  O_33 
REMARK   10  A    between atoms: C_36  and  O_37 
ROOT
HETATM    1  N   UNL     1      41.517 -12.522   4.931  1.00  0.00    -0.326 N 
HETATM    2  C   UNL     1      40.724 -13.695   4.942  1.00  0.00     0.239 C 
HETATM    3  O   UNL     1      39.820 -13.863   4.124  1.00  0.00    -0.271 OA
ENDROOT
BRANCH   1   4
HETATM    4  C   UNL     1      41.034 -11.338   4.123  1.00  0.00     0.120 C 
HETATM    5  C   UNL     1      39.532 -11.052   4.375  1.00  0.00     0.069 C 
HETATM    6  C   UNL     1      39.005  -9.799   3.681  1.00  0.00     0.237 C 
HETATM    7  N   UNL     1      39.890  -8.613   3.957  1.00  0.00    -0.075 N 
HETATM    8  C   UNL     1      39.368  -7.382   3.257  1.00  0.00     0.269 C 
HETATM    9  H   UNL     1      39.841  -8.419   4.969  1.00  0.00     0.279 HD
HETATM   10  C   UNL     1      41.335  -8.855   3.613  1.00  0.00     0.237 C 
HETATM   11  C   UNL     1      41.850 -10.043   4.415  1.00  0.00     0.069 C 
BRANCH   4  12
HETATM   12  C   UNL     1      41.293 -11.646   2.606  1.00  0.00     0.251 C 
HETATM   13  N   UNL     1      40.149 -11.996   1.922  1.00  0.00    -0.323 N 
HETATM   14  H   UNL     1      39.254 -11.863   2.386  1.00  0.00     0.169 HD
HETATM   15  O   UNL     1      42.438 -11.720   2.170  1.00  0.00    -0.270 OA
BRANCH  13  16
HETATM   16  C   UNL     1      40.029 -12.560   0.633  1.00  0.00     0.068 A 
HETATM   17  C   UNL     1      39.971 -11.658  -0.451  1.00  0.00     0.097 A 
HETATM   18  C   UNL     1      39.822 -12.138  -1.758  1.00  0.00     0.075 A 
HETATM   19  C   UNL     1      39.730 -13.512  -1.990  1.00  0.00     0.070 A 
HETATM   20  C   UNL     1      39.784 -14.397  -0.913  1.00  0.00     0.039 A 
HETATM   21  C   UNL     1      39.936 -13.929   0.394  1.00  0.00     0.035 A 
BRANCH  17  22
HETATM   22  O   UNL     1      40.041 -10.325  -0.104  1.00  0.00    -0.354 OA
HETATM   23  C   UNL     1      41.170  -9.592  -0.572  1.00  0.00     0.210 C 
ENDBRANCH  17  22
BRANCH  19  24
HETATM   24  O   UNL     1      39.573 -14.114  -3.207  1.00  0.00    -0.356 OA
HETATM   25  C   UNL     1      38.367 -14.836  -3.426  1.00  0.00     0.210 C 
ENDBRANCH  19  24
ENDBRANCH  13  16
ENDBRANCH   4  12
ENDBRANCH   1   4
BRANCH   1  26
HETATM   26  C   UNL     1      42.974 -12.772   4.904  1.00  0.00     0.192 C 
BRANCH  26  27
HETATM   27  C   UNL     1      43.724 -12.133   6.013  1.00  0.00     0.070 A 
HETATM   28  O   UNL     1      44.880 -11.517   5.623  1.00  0.00    -0.325 OA
HETATM   29  C   UNL     1      45.453 -10.984   6.731  1.00  0.00     0.142 A 
HETATM   30  C   UNL     1      44.687 -11.253   7.839  1.00  0.00     0.027 A 
HETATM   31  C   UNL     1      43.572 -11.997   7.379  1.00  0.00     0.036 A 
ENDBRANCH  26  27
ENDBRANCH   1  26
BRANCH   2  32
HETATM   32  C   UNL     1      41.006 -14.683   6.097  1.00  0.00     0.228 C 
BRANCH  32  33
HETATM   33  N   UNL     1      42.057 -15.653   5.822  1.00  0.00    -0.347 N 
HETATM   34  C   UNL     1      43.039 -16.122   6.692  1.00  0.00     0.171 C 
HETATM   35  S   UNL     1      43.331 -15.676   8.258  1.00  0.00    -0.041 SA
HETATM   36  N   UNL     1      43.803 -17.061   6.007  1.00  0.00    -0.357 N 
HETATM   37  C   UNL     1      43.508 -17.005   4.592  1.00  0.00     0.135 C 
HETATM   38  H   UNL     1      44.682 -17.392   6.386  1.00  0.00     0.162 HD
HETATM   39  C   UNL     1      42.106 -16.385   4.567  1.00  0.00     0.155 C 
BRANCH  37  40
HETATM   40  C   UNL     1      43.612 -18.312   3.860  1.00  0.00    -0.034 A 
HETATM   41  C   UNL     1      44.020 -19.492   4.498  1.00  0.00     0.009 A 
HETATM   42  C   UNL     1      44.062 -20.700   3.798  1.00  0.00     0.001 A 
HETATM   43  C   UNL     1      43.690 -20.745   2.455  1.00  0.00     0.000 A 
HETATM   44  C   UNL     1      43.277 -19.583   1.809  1.00  0.00     0.001 A 
HETATM   45  C   UNL     1      43.237 -18.375   2.508  1.00  0.00     0.009 A 
ENDBRANCH  37  40
ENDBRANCH  32  33
ENDBRANCH   2  32
TORSDOF 10
ENDMDL
MODEL 3
REMARK VINA RESULT:      -8.8      4.447      9.117
REMARK  10 active torsions:
REMARK  status: ('A' for Active; 'I' for Inactive)
REMARK    1  A    between atoms: C_6  and  N_7 
REMARK    2  A    between atoms: C_6  and  C_29 
REMARK       I    between atoms: N_7  and  C_8 
REMARK    3  A    between atoms: N_7  and  C_23 
REMARK    4  A    between atoms: C_8  and  C_9 
REMARK    5  A    between atoms: C_9  and  N_10 
REMARK    6  A    between atoms: C_14  and  C_15 
REMARK    7  A    between atoms: C_23  and  C_24 
REMARK       I    between atoms: C_29  and  N_30 
REMARK    8  A    between atoms: N_30  and  C_31 
REMARK    9  A    between atoms: C_32  and  O_33 
REMARK   10  A    between atoms: C_36  and  O_37 
ROOT
HETATM    1  N   UNL     1      42.232 -12.108   5.541  1.00  0.00    -0.326 N 
HETATM    2  C   UNL     1      43.565 -11.769   5.878  1.00  0.00     0.239 C 
HETATM    3  O   UNL     1      44.306 -11.210   5.070  1.00  0.00    -0.271 OA
ENDROOT
BRANCH   1   4
HETATM    4  C   UNL     1      41.832 -12.077   4.082  1.00  0.00     0.120 C 
HETATM    5  C   UNL     1      40.292 -12.112   3.914  1.00  0.00     0.069 C 
HETATM    6  C   UNL     1      39.813 -11.967   2.472  1.00  0.00     0.237 C 
HETATM    7  N   UNL     1      40.457 -10.782   1.803  1.00  0.00    -0.075 N 
HETATM    8  C   UNL     1      39.987 -10.653   0.375  1.00  0.00     0.269 C 
HETATM    9  H   UNL     1      40.135  -9.935   2.296  1.00  0.00     0.279 HD
HETATM   10  C   UNL     1      41.960 -10.802   1.875  1.00  0.00     0.237 C 
HETATM   11  C   UNL     1      42.393 -10.830   3.335  1.00  0.00     0.069 C 
BRANCH   4  12
HETATM   12  C   UNL     1      42.495 -13.308   3.370  1.00  0.00     0.251 C 
HETATM   13  N   UNL     1      41.990 -14.517   3.796  1.00  0.00    -0.323 N 
HETATM   14  H   UNL     1      41.153 -14.509   4.375  1.00  0.00     0.169 HD
HETATM   15  O   UNL     1      43.475 -13.158   2.646  1.00  0.00    -0.270 OA
BRANCH  13  16
HETATM   16  C   UNL     1      42.493 -15.816   3.565  1.00  0.00     0.068 A 
HETATM   17  C   UNL     1      43.346 -16.351   4.556  1.00  0.00     0.097 A 
HETATM   18  C   UNL     1      43.909 -17.621   4.386  1.00  0.00     0.075 A 
HETATM   19  C   UNL     1      43.628 -18.361   3.236  1.00  0.00     0.070 A 
HETATM   20  C   UNL     1      42.789 -17.823   2.259  1.00  0.00     0.039 A 
HETATM   21  C   UNL     1      42.219 -16.560   2.420  1.00  0.00     0.035 A 
BRANCH  17  22
HETATM   22  O   UNL     1      43.576 -15.523   5.634  1.00  0.00    -0.354 OA
HETATM   23  C   UNL     1      44.269 -16.083   6.746  1.00  0.00     0.210 C 
ENDBRANCH  17  22
BRANCH  19  24
HETATM   24  O   UNL     1      44.116 -19.603   2.938  1.00  0.00    -0.356 OA
HETATM   25  C   UNL     1      43.477 -20.321   1.889  1.00  0.00     0.210 C 
ENDBRANCH  19  24
ENDBRANCH  13  16
ENDBRANCH   4  12
ENDBRANCH   1   4
BRANCH   1  26
HETATM   26  C   UNL     1      41.218 -11.620   6.500  1.00  0.00     0.192 C 
BRANCH  26  27
HETATM   27  C   UNL     1      41.013 -10.151   6.479  1.00  0.00     0.070 A 
HETATM   28  O   UNL     1      39.703  -9.770   6.414  1.00  0.00    -0.325 OA
HETATM   29  C   UNL     1      39.670  -8.415   6.402  1.00  0.00     0.142 A 
HETATM   30  C   UNL     1      40.947  -7.908   6.451  1.00  0.00     0.027 A 
HETATM   31  C   UNL     1      41.816  -9.027   6.498  1.00  0.00     0.036 A 
ENDBRANCH  26  27
ENDBRANCH   1  26
BRANCH   2  32
HETATM   32  C   UNL     1      44.041 -12.236   7.273  1.00  0.00     0.228 C 
BRANCH  32  33
HETATM   33  N   UNL     1      44.397 -11.157   8.184  1.00  0.00    -0.347 N 
HETATM   34  C   UNL     1      45.551 -10.376   8.176  1.00  0.00     0.171 C 
HETATM   35  S   UNL     1      46.865 -10.482   7.176  1.00  0.00    -0.041 SA
HETATM   36  N   UNL     1      45.446  -9.450   9.210  1.00  0.00    -0.357 N 
HETATM   37  C   UNL     1      44.351  -9.804  10.084  1.00  0.00     0.135 C 
HETATM   38  H   UNL     1      46.248  -8.907   9.503  1.00  0.00     0.162 HD
HETATM   39  C   UNL     1      43.460 -10.659   9.177  1.00  0.00     0.155 C 
BRANCH  37  40
HETATM   40  C   UNL     1      43.640  -8.648  10.727  1.00  0.00    -0.034 A 
HETATM   41  C   UNL     1      43.449  -8.570  12.114  1.00  0.00     0.009 A 
HETATM   42  C   UNL     1      42.823  -7.459  12.684  1.00  0.00     0.001 A 
HETATM   43  C   UNL     1      42.389  -6.409  11.876  1.00  0.00     0.000 A 
HETATM   44  C   UNL     1      42.577  -6.469  10.498  1.00  0.00     0.001 A 
HETATM   45  C   UNL     1      43.200  -7.580   9.928  1.00  0.00     0.009 A 
ENDBRANCH  37  40
ENDBRANCH  32  33
ENDBRANCH   2  32
TORSDOF 10
ENDMDL
MODEL 4
REMARK VINA RESULT:      -8.8      2.659      4.839
REMARK  10 active torsions:
REMARK  status: ('A' for Active; 'I' for Inactive)
REMARK    1  A    between atoms: C_6  and  N_7 
REMARK    2  A    between atoms: C_6  and  C_29 
REMARK       I    between atoms: N_7  and  C_8 
REMARK    3  A    between atoms: N_7  and  C_23 
REMARK    4  A    between atoms: C_8  and  C_9 
REMARK    5  A    between atoms: C_9  and  N_10 
REMARK    6  A    between atoms: C_14  and  C_15 
REMARK    7  A    between atoms: C_23  and  C_24 
REMARK       I    between atoms: C_29  and  N_30 
REMARK    8  A    between atoms: N_30  and  C_31 
REMARK    9  A    between atoms: C_32  and  O_33 
REMARK   10  A    between atoms: C_36  and  O_37 
ROOT
HETATM    1  N   UNL     1      39.696 -12.032   4.581  1.00  0.00    -0.326 N 
HETATM    2  C   UNL     1      40.776 -12.921   4.363  1.00  0.00     0.239 C 
HETATM    3  O   UNL     1      41.669 -12.656   3.559  1.00  0.00    -0.271 OA
ENDROOT
BRANCH   1   4
HETATM    4  C   UNL     1      39.474 -10.916   3.584  1.00  0.00     0.120 C 
HETATM    5  C   UNL     1      38.589  -9.791   4.178  1.00  0.00     0.069 C 
HETATM    6  C   UNL     1      38.420  -8.578   3.268  1.00  0.00     0.237 C 
HETATM    7  N   UNL     1      39.751  -8.085   2.766  1.00  0.00    -0.075 N 
HETATM    8  C   UNL     1      39.572  -6.894   1.858  1.00  0.00     0.269 C 
HETATM    9  H   UNL     1      40.287  -7.755   3.583  1.00  0.00     0.279 HD
HETATM   10  C   UNL     1      40.567  -9.156   2.094  1.00  0.00     0.237 C 
HETATM   11  C   UNL     1      40.809 -10.294   3.076  1.00  0.00     0.069 C 
BRANCH   4  12
HETATM   12  C   UNL     1      38.802 -11.531   2.306  1.00  0.00     0.251 C 
HETATM   13  N   UNL     1      39.700 -12.159   1.471  1.00  0.00    -0.323 N 
HETATM   14  H   UNL     1      40.644 -12.319   1.816  1.00  0.00     0.169 HD
HETATM   15  O   UNL     1      37.625 -11.297   2.044  1.00  0.00    -0.270 OA
BRANCH  13  16
HETATM   16  C   UNL     1      39.509 -12.608   0.146  1.00  0.00     0.068 A 
HETATM   17  C   UNL     1      39.901 -13.935  -0.137  1.00  0.00     0.097 A 
HETATM   18  C   UNL     1      39.771 -14.444  -1.435  1.00  0.00     0.075 A 
HETATM   19  C   UNL     1      39.253 -13.640  -2.451  1.00  0.00     0.070 A 
HETATM   20  C   UNL     1      38.873 -12.328  -2.165  1.00  0.00     0.039 A 
HETATM   21  C   UNL     1      38.994 -11.811  -0.874  1.00  0.00     0.035 A 
BRANCH  17  22
HETATM   22  O   UNL     1      40.425 -14.627   0.934  1.00  0.00    -0.354 OA
HETATM   23  C   UNL     1      39.886 -15.921   1.196  1.00  0.00     0.210 C 
ENDBRANCH  17  22
BRANCH  19  24
HETATM   24  O   UNL     1      39.082 -14.003  -3.758  1.00  0.00    -0.356 OA
HETATM   25  C   UNL     1      37.970 -14.836  -4.063  1.00  0.00     0.210 C 
ENDBRANCH  19  24
ENDBRANCH  13  16
ENDBRANCH   4  12
ENDBRANCH   1   4
BRANCH   1  26
HETATM   26  C   UNL     1      39.467 -11.687   6.000  1.00  0.00     0.192 C 
BRANCH  26  27
HETATM   27  C   UNL     1      40.511 -10.815   6.593  1.00  0.00     0.070 A 
HETATM   28  O   UNL     1      40.046  -9.963   7.554  1.00  0.00    -0.325 OA
HETATM   29  C   UNL     1      41.100  -9.235   8.000  1.00  0.00     0.142 A 
HETATM   30  C   UNL     1      42.245  -9.598   7.333  1.00  0.00     0.027 A 
HETATM   31  C   UNL     1      41.867 -10.616   6.422  1.00  0.00     0.036 A 
ENDBRANCH  26  27
ENDBRANCH   1  26
BRANCH   2  32
HETATM   32  C   UNL     1      40.698 -14.267   5.120  1.00  0.00     0.228 C 
BRANCH  32  33
HETATM   33  N   UNL     1      41.865 -15.122   4.957  1.00  0.00    -0.347 N 
HETATM   34  C   UNL     1      43.080 -15.052   5.637  1.00  0.00     0.171 C 
HETATM   35  S   UNL     1      43.568 -13.952   6.773  1.00  0.00    -0.041 SA
HETATM   36  N   UNL     1      43.886 -16.089   5.178  1.00  0.00    -0.357 N 
HETATM   37  C   UNL     1      43.312 -16.674   3.987  1.00  0.00     0.135 C 
HETATM   38  H   UNL     1      44.874 -16.116   5.398  1.00  0.00     0.162 HD
HETATM   39  C   UNL     1      41.830 -16.304   4.112  1.00  0.00     0.155 C 
BRANCH  37  40
HETATM   40  C   UNL     1      43.562 -18.145   3.806  1.00  0.00    -0.034 A 
HETATM   41  C   UNL     1      43.968 -18.966   4.867  1.00  0.00     0.009 A 
HETATM   42  C   UNL     1      44.149 -20.338   4.674  1.00  0.00     0.001 A 
HETATM   43  C   UNL     1      43.917 -20.906   3.422  1.00  0.00     0.000 A 
HETATM   44  C   UNL     1      43.507 -20.104   2.361  1.00  0.00     0.001 A 
HETATM   45  C   UNL     1      43.330 -18.733   2.552  1.00  0.00     0.009 A 
ENDBRANCH  37  40
ENDBRANCH  32  33
ENDBRANCH   2  32
TORSDOF 10
ENDMDL
MODEL 5
REMARK VINA RESULT:      -8.7      3.487      7.020
REMARK  10 active torsions:
REMARK  status: ('A' for Active; 'I' for Inactive)
REMARK    1  A    between atoms: C_6  and  N_7 
REMARK    2  A    between atoms: C_6  and  C_29 
REMARK       I    between atoms: N_7  and  C_8 
REMARK    3  A    between atoms: N_7  and  C_23 
REMARK    4  A    between atoms: C_8  and  C_9 
REMARK    5  A    between atoms: C_9  and  N_10 
REMARK    6  A    between atoms: C_14  and  C_15 
REMARK    7  A    between atoms: C_23  and  C_24 
REMARK       I    between atoms: C_29  and  N_30 
REMARK    8  A    between atoms: N_30  and  C_31 
REMARK    9  A    between atoms: C_32  and  O_33 
REMARK   10  A    between atoms: C_36  and  O_37 
ROOT
HETATM    1  N   UNL     1      42.150 -12.652   3.317  1.00  0.00    -0.326 N 
HETATM    2  C   UNL     1      41.285 -12.244   4.362  1.00  0.00     0.239 C 
HETATM    3  O   UNL     1      40.682 -13.066   5.051  1.00  0.00    -0.271 OA
ENDROOT
BRANCH   1   4
HETATM    4  C   UNL     1      42.072 -14.086   2.842  1.00  0.00     0.120 C 
HETATM    5  C   UNL     1      43.332 -14.487   2.034  1.00  0.00     0.069 C 
HETATM    6  C   UNL     1      43.375 -15.955   1.623  1.00  0.00     0.237 C 
HETATM    7  N   UNL     1      43.111 -16.858   2.799  1.00  0.00    -0.075 N 
HETATM    8  C   UNL     1      43.143 -18.306   2.380  1.00  0.00     0.269 C 
HETATM    9  H   UNL     1      43.885 -16.727   3.468  1.00  0.00     0.279 HD
HETATM   10  C   UNL     1      41.831 -16.535   3.521  1.00  0.00     0.237 C 
HETATM   11  C   UNL     1      41.882 -15.095   4.015  1.00  0.00     0.069 C 
BRANCH   4  12
HETATM   12  C   UNL     1      40.780 -14.239   1.964  1.00  0.00     0.251 C 
HETATM   13  N   UNL     1      40.879 -13.610   0.742  1.00  0.00    -0.323 N 
HETATM   14  H   UNL     1      41.793 -13.269   0.451  1.00  0.00     0.169 HD
HETATM   15  O   UNL     1      39.758 -14.728   2.435  1.00  0.00    -0.270 OA
BRANCH  13  16
HETATM   16  C   UNL     1      39.859 -13.333  -0.194  1.00  0.00     0.068 A 
HETATM   17  C   UNL     1      39.163 -12.115  -0.032  1.00  0.00     0.097 A 
HETATM   18  C   UNL     1      38.118 -11.780  -0.902  1.00  0.00     0.075 A 
HETATM   19  C   UNL     1      37.762 -12.653  -1.932  1.00  0.00     0.070 A 
HETATM   20  C   UNL     1      38.451 -13.857  -2.083  1.00  0.00     0.039 A 
HETATM   21  C   UNL     1      39.498 -14.198  -1.224  1.00  0.00     0.035 A 
BRANCH  17  22
HETATM   22  O   UNL     1      39.579 -11.345   1.034  1.00  0.00    -0.354 OA
HETATM   23  C   UNL     1      40.168 -10.083   0.733  1.00  0.00     0.210 C 
ENDBRANCH  17  22
BRANCH  19  24
HETATM   24  O   UNL     1      36.761 -12.459  -2.841  1.00  0.00    -0.356 OA
HETATM   25  C   UNL     1      36.274 -11.132  -3.002  1.00  0.00     0.210 C 
ENDBRANCH  19  24
ENDBRANCH  13  16
ENDBRANCH   4  12
ENDBRANCH   1   4
BRANCH   1  26
HETATM   26  C   UNL     1      43.505 -12.065   3.384  1.00  0.00     0.192 C 
BRANCH  26  27
HETATM   27  C   UNL     1      44.116 -12.088   4.736  1.00  0.00     0.070 A 
HETATM   28  O   UNL     1      45.102 -11.162   4.918  1.00  0.00    -0.325 OA
HETATM   29  C   UNL     1      45.564 -11.299   6.186  1.00  0.00     0.142 A 
HETATM   30  C   UNL     1      44.893 -12.312   6.829  1.00  0.00     0.027 A 
HETATM   31  C   UNL     1      43.959 -12.825   5.894  1.00  0.00     0.036 A 
ENDBRANCH  26  27
ENDBRANCH   1  26
BRANCH   2  32
HETATM   32  C   UNL     1      41.080 -10.718   4.502  1.00  0.00     0.228 C 
BRANCH  32  33
HETATM   33  N   UNL     1      40.994 -10.242   5.875  1.00  0.00    -0.347 N 
HETATM   34  C   UNL     1      39.895 -10.291   6.732  1.00  0.00     0.171 C 
HETATM   35  S   UNL     1      38.368 -10.847   6.423  1.00  0.00    -0.041 SA
HETATM   36  N   UNL     1      40.282  -9.751   7.954  1.00  0.00    -0.357 N 
HETATM   37  C   UNL     1      41.555  -9.079   7.819  1.00  0.00     0.135 C 
HETATM   38  H   UNL     1      39.594  -9.518   8.660  1.00  0.00     0.162 HD
HETATM   39  C   UNL     1      42.165  -9.760   6.589  1.00  0.00     0.155 C 
BRANCH  37  40
HETATM   40  C   UNL     1      42.435  -9.114   9.037  1.00  0.00    -0.034 A 
HETATM   41  C   UNL     1      43.702  -9.714   9.022  1.00  0.00     0.009 A 
HETATM   42  C   UNL     1      44.513  -9.689  10.159  1.00  0.00     0.001 A 
HETATM   43  C   UNL     1      44.071  -9.057  11.321  1.00  0.00     0.000 A 
HETATM   44  C   UNL     1      42.818  -8.452  11.349  1.00  0.00     0.001 A 
HETATM   45  C   UNL     1      42.006  -8.479  10.214  1.00  0.00     0.009 A 
ENDBRANCH  37  40
ENDBRANCH  32  33
ENDBRANCH   2  32
TORSDOF 10
ENDMDL
MODEL 6
REMARK VINA RESULT:      -8.6      3.000      9.423
REMARK  10 active torsions:
REMARK  status: ('A' for Active; 'I' for Inactive)
REMARK    1  A    between atoms: C_6  and  N_7 
REMARK    2  A    between atoms: C_6  and  C_29 
REMARK       I    between atoms: N_7  and  C_8 
REMARK    3  A    between atoms: N_7  and  C_23 
REMARK    4  A    between atoms: C_8  and  C_9 
REMARK    5  A    between atoms: C_9  and  N_10 
REMARK    6  A    between atoms: C_14  and  C_15 
REMARK    7  A    between atoms: C_23  and  C_24 
REMARK       I    between atoms: C_29  and  N_30 
REMARK    8  A    between atoms: N_30  and  C_31 
REMARK    9  A    between atoms: C_32  and  O_33 
REMARK   10  A    between atoms: C_36  and  O_37 
ROOT
HETATM    1  N   UNL     1      40.433 -12.064   3.215  1.00  0.00    -0.326 N 
HETATM    2  C   UNL     1      40.302 -12.759   1.988  1.00  0.00     0.239 C 
HETATM    3  O   UNL     1      41.046 -13.697   1.703  1.00  0.00    -0.271 OA
ENDROOT
BRANCH   1   4
HETATM    4  C   UNL     1      41.697 -12.266   4.022  1.00  0.00     0.120 C 
HETATM    5  C   UNL     1      42.953 -11.820   3.232  1.00  0.00     0.069 C 
HETATM    6  C   UNL     1      44.253 -11.887   4.028  1.00  0.00     0.237 C 
HETATM    7  N   UNL     1      44.112 -11.197   5.359  1.00  0.00    -0.075 N 
HETATM    8  C   UNL     1      45.398 -11.279   6.143  1.00  0.00     0.269 C 
HETATM    9  H   UNL     1      43.944 -10.196   5.172  1.00  0.00     0.279 HD
HETATM   10  C   UNL     1      42.952 -11.705   6.172  1.00  0.00     0.237 C 
HETATM   11  C   UNL     1      41.663 -11.512   5.385  1.00  0.00     0.069 C 
BRANCH   4  12
HETATM   12  C   UNL     1      41.794 -13.785   4.403  1.00  0.00     0.251 C 
HETATM   13  N   UNL     1      42.869 -14.422   3.823  1.00  0.00    -0.323 N 
HETATM   14  H   UNL     1      43.574 -13.849   3.363  1.00  0.00     0.169 HD
HETATM   15  O   UNL     1      40.883 -14.335   5.015  1.00  0.00    -0.270 OA
BRANCH  13  16
HETATM   16  C   UNL     1      43.138 -15.806   3.741  1.00  0.00     0.068 A 
HETATM   17  C   UNL     1      43.712 -16.408   4.882  1.00  0.00     0.097 A 
HETATM   18  C   UNL     1      44.035 -17.770   4.870  1.00  0.00     0.075 A 
HETATM   19  C   UNL     1      43.790 -18.535   3.728  1.00  0.00     0.070 A 
HETATM   20  C   UNL     1      43.227 -17.931   2.603  1.00  0.00     0.039 A 
HETATM   21  C   UNL     1      42.897 -16.575   2.606  1.00  0.00     0.035 A 
BRANCH  17  22
HETATM   22  O   UNL     1      43.936 -15.553   5.940  1.00  0.00    -0.354 OA
HETATM   23  C   UNL     1      43.302 -15.871   7.177  1.00  0.00     0.210 C 
ENDBRANCH  17  22
BRANCH  19  24
HETATM   24  O   UNL     1      44.065 -19.865   3.576  1.00  0.00    -0.356 OA
HETATM   25  C   UNL     1      44.160 -20.651   4.758  1.00  0.00     0.210 C 
ENDBRANCH  19  24
ENDBRANCH  13  16
ENDBRANCH   4  12
ENDBRANCH   1   4
BRANCH   1  26
HETATM   26  C   UNL     1      39.180 -11.958   3.992  1.00  0.00     0.192 C 
BRANCH  26  27
HETATM   27  C   UNL     1      38.746 -10.565   4.265  1.00  0.00     0.070 A 
HETATM   28  O   UNL     1      38.839  -9.730   3.188  1.00  0.00    -0.325 OA
HETATM   29  C   UNL     1      38.414  -8.504   3.583  1.00  0.00     0.142 A 
HETATM   30  C   UNL     1      38.053  -8.531   4.908  1.00  0.00     0.027 A 
HETATM   31  C   UNL     1      38.269  -9.859   5.352  1.00  0.00     0.036 A 
ENDBRANCH  26  27
ENDBRANCH   1  26
BRANCH   2  32
HETATM   32  C   UNL     1      39.243 -12.198   1.012  1.00  0.00     0.228 C 
BRANCH  32  33
HETATM   33  N   UNL     1      39.789 -11.624  -0.210  1.00  0.00    -0.347 N 
HETATM   34  C   UNL     1      39.338 -11.805  -1.517  1.00  0.00     0.171 C 
HETATM   35  S   UNL     1      38.101 -12.759  -2.062  1.00  0.00    -0.041 SA
HETATM   36  N   UNL     1      40.143 -11.039  -2.354  1.00  0.00    -0.357 N 
HETATM   37  C   UNL     1      41.308 -10.574  -1.636  1.00  0.00     0.135 C 
HETATM   38  H   UNL     1      40.113 -11.163  -3.359  1.00  0.00     0.162 HD
HETATM   39  C   UNL     1      40.844 -10.626  -0.176  1.00  0.00     0.155 C 
BRANCH  37  40
HETATM   40  C   UNL     1      41.837  -9.235  -2.063  1.00  0.00    -0.034 A 
HETATM   41  C   UNL     1      42.772  -8.525  -1.296  1.00  0.00     0.009 A 
HETATM   42  C   UNL     1      43.278  -7.303  -1.744  1.00  0.00     0.001 A 
HETATM   43  C   UNL     1      42.862  -6.779  -2.968  1.00  0.00     0.000 A 
HETATM   44  C   UNL     1      41.939  -7.475  -3.744  1.00  0.00     0.001 A 
HETATM   45  C   UNL     1      41.431  -8.695  -3.295  1.00  0.00     0.009 A 
ENDBRANCH  37  40
ENDBRANCH  32  33
ENDBRANCH   2  32
TORSDOF 10
ENDMDL
MODEL 7
REMARK VINA RESULT:      -8.5      2.705      9.720
REMARK  10 active torsions:
REMARK  status: ('A' for Active; 'I' for Inactive)
REMARK    1  A    between atoms: C_6  and  N_7 
REMARK    2  A    between atoms: C_6  and  C_29 
REMARK       I    between atoms: N_7  and  C_8 
REMARK    3  A    between atoms: N_7  and  C_23 
REMARK    4  A    between atoms: C_8  and  C_9 
REMARK    5  A    between atoms: C_9  and  N_10 
REMARK    6  A    between atoms: C_14  and  C_15 
REMARK    7  A    between atoms: C_23  and  C_24 
REMARK       I    between atoms: C_29  and  N_30 
REMARK    8  A    between atoms: N_30  and  C_31 
REMARK    9  A    between atoms: C_32  and  O_33 
REMARK   10  A    between atoms: C_36  and  O_37 
ROOT
HETATM    1  N   UNL     1      41.033 -11.766   2.605  1.00  0.00    -0.326 N 
HETATM    2  C   UNL     1      40.326 -10.541   2.534  1.00  0.00     0.239 C 
HETATM    3  O   UNL     1      40.553  -9.626   3.324  1.00  0.00    -0.271 OA
ENDROOT
BRANCH   1   4
HETATM    4  C   UNL     1      41.831 -12.061   3.855  1.00  0.00     0.120 C 
HETATM    5  C   UNL     1      43.300 -11.588   3.718  1.00  0.00     0.069 C 
HETATM    6  C   UNL     1      44.134 -11.750   4.986  1.00  0.00     0.237 C 
HETATM    7  N   UNL     1      43.429 -11.161   6.178  1.00  0.00    -0.075 N 
HETATM    8  C   UNL     1      44.255 -11.336   7.428  1.00  0.00     0.269 C 
HETATM    9  H   UNL     1      43.347 -10.145   6.019  1.00  0.00     0.279 HD
HETATM   10  C   UNL     1      42.038 -11.700   6.373  1.00  0.00     0.237 C 
HETATM   11  C   UNL     1      41.209 -11.414   5.128  1.00  0.00     0.069 C 
BRANCH   4  12
HETATM   12  C   UNL     1      41.770 -13.608   4.117  1.00  0.00     0.251 C 
HETATM   13  N   UNL     1      42.925 -14.265   3.753  1.00  0.00    -0.323 N 
HETATM   14  H   UNL     1      43.742 -13.705   3.522  1.00  0.00     0.169 HD
HETATM   15  O   UNL     1      40.717 -14.144   4.450  1.00  0.00    -0.270 OA
BRANCH  13  16
HETATM   16  C   UNL     1      43.147 -15.653   3.619  1.00  0.00     0.068 A 
HETATM   17  C   UNL     1      43.595 -16.337   4.771  1.00  0.00     0.097 A 
HETATM   18  C   UNL     1      43.866 -17.710   4.712  1.00  0.00     0.075 A 
HETATM   19  C   UNL     1      43.693 -18.404   3.513  1.00  0.00     0.070 A 
HETATM   20  C   UNL     1      43.254 -17.720   2.378  1.00  0.00     0.039 A 
HETATM   21  C   UNL     1      42.977 -16.353   2.427  1.00  0.00     0.035 A 
BRANCH  17  22
HETATM   22  O   UNL     1      43.759 -15.548   5.889  1.00  0.00    -0.354 OA
HETATM   23  C   UNL     1      42.990 -15.887   7.041  1.00  0.00     0.210 C 
ENDBRANCH  17  22
BRANCH  19  24
HETATM   24  O   UNL     1      43.929 -19.735   3.312  1.00  0.00    -0.356 OA
HETATM   25  C   UNL     1      43.559 -20.280   2.051  1.00  0.00     0.210 C 
ENDBRANCH  19  24
ENDBRANCH  13  16
ENDBRANCH   4  12
ENDBRANCH   1   4
BRANCH   1  26
HETATM   26  C   UNL     1      41.651 -12.187   1.329  1.00  0.00     0.192 C 
BRANCH  26  27
HETATM   27  C   UNL     1      40.897 -13.240   0.604  1.00  0.00     0.070 A 
HETATM   28  O   UNL     1      40.723 -12.985  -0.727  1.00  0.00    -0.325 OA
HETATM   29  C   UNL     1      40.024 -14.021  -1.254  1.00  0.00     0.142 A 
HETATM   30  C   UNL     1      39.736 -14.944  -0.279  1.00  0.00     0.027 A 
HETATM   31  C   UNL     1      40.296 -14.442   0.922  1.00  0.00     0.036 A 
ENDBRANCH  26  27
ENDBRANCH   1  26
BRANCH   2  32
HETATM   32  C   UNL     1      39.200 -10.480   1.476  1.00  0.00     0.228 C 
BRANCH  32  33
HETATM   33  N   UNL     1      39.342  -9.409   0.501  1.00  0.00    -0.347 N 
HETATM   34  C   UNL     1      38.871  -8.100   0.590  1.00  0.00     0.171 C 
HETATM   35  S   UNL     1      37.972  -7.405   1.793  1.00  0.00    -0.041 SA
HETATM   36  N   UNL     1      39.269  -7.424  -0.559  1.00  0.00    -0.357 N 
HETATM   37  C   UNL     1      39.757  -8.362  -1.544  1.00  0.00     0.135 C 
HETATM   38  H   UNL     1      38.880  -6.518  -0.789  1.00  0.00     0.162 HD
HETATM   39  C   UNL     1      40.167  -9.565  -0.686  1.00  0.00     0.155 C 
BRANCH  37  40
HETATM   40  C   UNL     1      40.849  -7.849  -2.438  1.00  0.00    -0.034 A 
HETATM   41  C   UNL     1      42.049  -7.334  -1.927  1.00  0.00     0.009 A 
HETATM   42  C   UNL     1      43.063  -6.906  -2.788  1.00  0.00     0.001 A 
HETATM   43  C   UNL     1      42.893  -6.996  -4.169  1.00  0.00     0.000 A 
HETATM   44  C   UNL     1      41.709  -7.510  -4.691  1.00  0.00     0.001 A 
HETATM   45  C   UNL     1      40.695  -7.935  -3.832  1.00  0.00     0.009 A 
ENDBRANCH  37  40
ENDBRANCH  32  33
ENDBRANCH   2  32
TORSDOF 10
ENDMDL
MODEL 8
REMARK VINA RESULT:      -8.3      4.403      7.450
REMARK  10 active torsions:
REMARK  status: ('A' for Active; 'I' for Inactive)
REMARK    1  A    between atoms: C_6  and  N_7 
REMARK    2  A    between atoms: C_6  and  C_29 
REMARK       I    between atoms: N_7  and  C_8 
REMARK    3  A    between atoms: N_7  and  C_23 
REMARK    4  A    between atoms: C_8  and  C_9 
REMARK    5  A    between atoms: C_9  and  N_10 
REMARK    6  A    between atoms: C_14  and  C_15 
REMARK    7  A    between atoms: C_23  and  C_24 
REMARK       I    between atoms: C_29  and  N_30 
REMARK    8  A    between atoms: N_30  and  C_31 
REMARK    9  A    between atoms: C_32  and  O_33 
REMARK   10  A    between atoms: C_36  and  O_37 
ROOT
HETATM    1  N   UNL     1      39.491 -11.287   4.265  1.00  0.00    -0.326 N 
HETATM    2  C   UNL     1      39.638 -11.711   2.921  1.00  0.00     0.239 C 
HETATM    3  O   UNL     1      40.161 -10.984   2.076  1.00  0.00    -0.271 OA
ENDROOT
BRANCH   1   4
HETATM    4  C   UNL     1      39.678  -9.819   4.578  1.00  0.00     0.120 C 
HETATM    5  C   UNL     1      41.141  -9.368   4.335  1.00  0.00     0.069 C 
HETATM    6  C   UNL     1      41.376  -7.872   4.520  1.00  0.00     0.237 C 
HETATM    7  N   UNL     1      40.368  -7.063   3.748  1.00  0.00    -0.075 N 
HETATM    8  C   UNL     1      40.601  -5.586   3.946  1.00  0.00     0.269 C 
HETATM    9  H   UNL     1      40.522  -7.253   2.745  1.00  0.00     0.279 HD
HETATM   10  C   UNL     1      38.943  -7.430   4.063  1.00  0.00     0.237 C 
HETATM   11  C   UNL     1      38.723  -8.905   3.754  1.00  0.00     0.069 C 
BRANCH   4  12
HETATM   12  C   UNL     1      39.269  -9.586   6.076  1.00  0.00     0.251 C 
HETATM   13  N   UNL     1      40.348  -9.372   6.905  1.00  0.00    -0.323 N 
HETATM   14  H   UNL     1      41.258  -9.215   6.477  1.00  0.00     0.169 HD
HETATM   15  O   UNL     1      38.110  -9.759   6.441  1.00  0.00    -0.270 OA
BRANCH  13  16
HETATM   16  C   UNL     1      40.389  -9.364   8.317  1.00  0.00     0.068 A 
HETATM   17  C   UNL     1      41.621  -9.015   8.913  1.00  0.00     0.097 A 
HETATM   18  C   UNL     1      41.751  -9.013  10.307  1.00  0.00     0.075 A 
HETATM   19  C   UNL     1      40.661  -9.356  11.110  1.00  0.00     0.070 A 
HETATM   20  C   UNL     1      39.449  -9.704  10.512  1.00  0.00     0.039 A 
HETATM   21  C   UNL     1      39.307  -9.705   9.124  1.00  0.00     0.035 A 
BRANCH  17  22
HETATM   22  O   UNL     1      42.635  -8.724   8.025  1.00  0.00    -0.354 OA
HETATM   23  C   UNL     1      43.971  -8.927   8.477  1.00  0.00     0.210 C 
ENDBRANCH  17  22
BRANCH  19  24
HETATM   24  O   UNL     1      40.652  -9.405  12.475  1.00  0.00    -0.356 OA
HETATM   25  C   UNL     1      39.848 -10.408  13.086  1.00  0.00     0.210 C 
ENDBRANCH  19  24
ENDBRANCH  13  16
ENDBRANCH   4  12
ENDBRANCH   1   4
BRANCH   1  26
HETATM   26  C   UNL     1      40.026 -12.235   5.264  1.00  0.00     0.192 C 
BRANCH  26  27
HETATM   27  C   UNL     1      41.507 -12.318   5.298  1.00  0.00     0.070 A 
HETATM   28  O   UNL     1      42.068 -11.810   6.435  1.00  0.00    -0.325 OA
HETATM   29  C   UNL     1      43.413 -11.951   6.326  1.00  0.00     0.142 A 
HETATM   30  C   UNL     1      43.733 -12.537   5.125  1.00  0.00     0.027 A 
HETATM   31  C   UNL     1      42.505 -12.773   4.459  1.00  0.00     0.036 A 
ENDBRANCH  26  27
ENDBRANCH   1  26
BRANCH   2  32
HETATM   32  C   UNL     1      39.015 -13.084   2.580  1.00  0.00     0.228 C 
BRANCH  32  33
HETATM   33  N   UNL     1      39.976 -14.107   2.196  1.00  0.00    -0.347 N 
HETATM   34  C   UNL     1      40.681 -14.213   0.998  1.00  0.00     0.171 C 
HETATM   35  S   UNL     1      40.590 -13.250  -0.344  1.00  0.00    -0.041 SA
HETATM   36  N   UNL     1      41.508 -15.329   1.088  1.00  0.00    -0.357 N 
HETATM   37  C   UNL     1      41.140 -16.129   2.234  1.00  0.00     0.135 C 
HETATM   38  H   UNL     1      41.970 -15.700   0.266  1.00  0.00     0.162 HD
HETATM   39  C   UNL     1      40.434 -15.113   3.139  1.00  0.00     0.155 C 
BRANCH  37  40
HETATM   40  C   UNL     1      42.272 -16.859   2.900  1.00  0.00    -0.034 A 
HETATM   41  C   UNL     1      42.758 -16.486   4.161  1.00  0.00     0.009 A 
HETATM   42  C   UNL     1      43.781 -17.215   4.772  1.00  0.00     0.001 A 
HETATM   43  C   UNL     1      44.324 -18.330   4.134  1.00  0.00     0.000 A 
HETATM   44  C   UNL     1      43.847 -18.716   2.885  1.00  0.00     0.001 A 
HETATM   45  C   UNL     1      42.827 -17.987   2.273  1.00  0.00     0.009 A 
ENDBRANCH  37  40
ENDBRANCH  32  33
ENDBRANCH   2  32
TORSDOF 10
ENDMDL
MODEL 9
REMARK VINA RESULT:      -8.2      4.966      8.453
REMARK  10 active torsions:
REMARK  status: ('A' for Active; 'I' for Inactive)
REMARK    1  A    between atoms: C_6  and  N_7 
REMARK    2  A    between atoms: C_6  and  C_29 
REMARK       I    between atoms: N_7  and  C_8 
REMARK    3  A    between atoms: N_7  and  C_23 
REMARK    4  A    between atoms: C_8  and  C_9 
REMARK    5  A    between atoms: C_9  and  N_10 
REMARK    6  A    between atoms: C_14  and  C_15 
REMARK    7  A    between atoms: C_23  and  C_24 
REMARK       I    between atoms: C_29  and  N_30 
REMARK    8  A    between atoms: N_30  and  C_31 
REMARK    9  A    between atoms: C_32  and  O_33 
REMARK   10  A    between atoms: C_36  and  O_37 
ROOT
HETATM    1  N   UNL     1      42.059 -11.358   5.643  1.00  0.00    -0.326 N 
HETATM    2  C   UNL     1      42.894 -11.097   6.757  1.00  0.00     0.239 C 
HETATM    3  O   UNL     1      43.650 -11.958   7.204  1.00  0.00    -0.271 OA
ENDROOT
BRANCH   1   4
HETATM    4  C   UNL     1      41.863 -12.796   5.216  1.00  0.00     0.120 C 
HETATM    5  C   UNL     1      43.171 -13.406   4.654  1.00  0.00     0.069 C 
HETATM    6  C   UNL     1      43.077 -14.890   4.312  1.00  0.00     0.237 C 
HETATM    7  N   UNL     1      42.497 -15.677   5.458  1.00  0.00    -0.075 N 
HETATM    8  C   UNL     1      42.397 -17.140   5.105  1.00  0.00     0.269 C 
HETATM    9  H   UNL     1      43.159 -15.609   6.246  1.00  0.00     0.279 HD
HETATM   10  C   UNL     1      41.172 -15.146   5.934  1.00  0.00     0.237 C 
HETATM   11  C   UNL     1      41.341 -13.697   6.374  1.00  0.00     0.069 C 
BRANCH   4  12
HETATM   12  C   UNL     1      40.727 -12.831   4.133  1.00  0.00     0.251 C 
HETATM   13  N   UNL     1      41.209 -12.909   2.845  1.00  0.00    -0.323 N 
HETATM   14  H   UNL     1      42.199 -13.106   2.715  1.00  0.00     0.169 HD
HETATM   15  O   UNL     1      39.557 -12.631   4.448  1.00  0.00    -0.270 OA
BRANCH  13  16
HETATM   16  C   UNL     1      40.515 -12.724   1.629  1.00  0.00     0.068 A 
HETATM   17  C   UNL     1      40.389 -13.854   0.792  1.00  0.00     0.097 A 
HETATM   18  C   UNL     1      39.740 -13.744  -0.444  1.00  0.00     0.075 A 
HETATM   19  C   UNL     1      39.216 -12.515  -0.850  1.00  0.00     0.070 A 
HETATM   20  C   UNL     1      39.349 -11.402  -0.019  1.00  0.00     0.039 A 
HETATM   21  C   UNL     1      39.990 -11.501   1.217  1.00  0.00     0.035 A 
BRANCH  17  22
HETATM   22  O   UNL     1      40.969 -15.006   1.279  1.00  0.00    -0.354 OA
HETATM   23  C   UNL     1      40.095 -15.989   1.829  1.00  0.00     0.210 C 
ENDBRANCH  17  22
BRANCH  19  24
HETATM   24  O   UNL     1      38.572 -12.265  -2.029  1.00  0.00    -0.356 OA
HETATM   25  C   UNL     1      38.540 -13.313  -2.991  1.00  0.00     0.210 C 
ENDBRANCH  19  24
ENDBRANCH  13  16
ENDBRANCH   4  12
ENDBRANCH   1   4
BRANCH   1  26
HETATM   26  C   UNL     1      42.174 -10.369   4.550  1.00  0.00     0.192 C 
BRANCH  26  27
HETATM   27  C   UNL     1      41.244  -9.219   4.665  1.00  0.00     0.070 A 
HETATM   28  O   UNL     1      40.011  -9.546   5.155  1.00  0.00    -0.325 OA
HETATM   29  C   UNL     1      39.275  -8.408   5.204  1.00  0.00     0.142 A 
HETATM   30  C   UNL     1      40.014  -7.345   4.743  1.00  0.00     0.027 A 
HETATM   31  C   UNL     1      41.284  -7.866   4.392  1.00  0.00     0.036 A 
ENDBRANCH  26  27
ENDBRANCH   1  26
BRANCH   2  32
HETATM   32  C   UNL     1      42.713  -9.711   7.417  1.00  0.00     0.228 C 
BRANCH  32  33
HETATM   33  N   UNL     1      43.242  -9.611   8.770  1.00  0.00    -0.347 N 
HETATM   34  C   UNL     1      44.567  -9.426   9.160  1.00  0.00     0.171 C 
HETATM   35  S   UNL     1      45.920  -9.325   8.213  1.00  0.00    -0.041 SA
HETATM   36  N   UNL     1      44.597  -9.358  10.550  1.00  0.00    -0.357 N 
HETATM   37  C   UNL     1      43.328  -9.785  11.095  1.00  0.00     0.135 C 
HETATM   38  H   UNL     1      45.474  -9.412  11.053  1.00  0.00     0.162 HD
HETATM   39  C   UNL     1      42.365  -9.549   9.927  1.00  0.00     0.155 C 
BRANCH  37  40
HETATM   40  C   UNL     1      42.917  -9.111  12.374  1.00  0.00    -0.034 A 
HETATM   41  C   UNL     1      43.516  -7.923  12.815  1.00  0.00     0.009 A 
HETATM   42  C   UNL     1      43.079  -7.299  13.985  1.00  0.00     0.001 A 
HETATM   43  C   UNL     1      42.032  -7.849  14.723  1.00  0.00     0.000 A 
HETATM   44  C   UNL     1      41.422  -9.025  14.295  1.00  0.00     0.001 A 
HETATM   45  C   UNL     1      41.861  -9.651  13.127  1.00  0.00     0.009 A 
ENDBRANCH  37  40
ENDBRANCH  32  33
ENDBRANCH   2  32
TORSDOF 10
ENDMDL
MODEL 10
REMARK VINA RESULT:      -8.1      2.905      8.413
REMARK  10 active torsions:
REMARK  status: ('A' for Active; 'I' for Inactive)
REMARK    1  A    between atoms: C_6  and  N_7 
REMARK    2  A    between atoms: C_6  and  C_29 
REMARK       I    between atoms: N_7  and  C_8 
REMARK    3  A    between atoms: N_7  and  C_23 
REMARK    4  A    between atoms: C_8  and  C_9 
REMARK    5  A    between atoms: C_9  and  N_10 
REMARK    6  A    between atoms: C_14  and  C_15 
REMARK    7  A    between atoms: C_23  and  C_24 
REMARK       I    between atoms: C_29  and  N_30 
REMARK    8  A    between atoms: N_30  and  C_31 
REMARK    9  A    between atoms: C_32  and  O_33 
REMARK   10  A    between atoms: C_36  and  O_37 
ROOT
HETATM    1  N   UNL     1      40.131 -12.909   2.285  1.00  0.00    -0.326 N 
HETATM    2  C   UNL     1      39.639 -13.108   0.972  1.00  0.00     0.239 C 
HETATM    3  O   UNL     1      39.743 -14.198   0.409  1.00  0.00    -0.271 OA
ENDROOT
BRANCH   1   4
HETATM    4  C   UNL     1      41.074 -13.942   2.862  1.00  0.00     0.120 C 
HETATM    5  C   UNL     1      40.409 -15.340   2.937  1.00  0.00     0.069 C 
HETATM    6  C   UNL     1      41.341 -16.455   3.401  1.00  0.00     0.237 C 
HETATM    7  N   UNL     1      42.628 -16.449   2.619  1.00  0.00    -0.075 N 
HETATM    8  C   UNL     1      43.547 -17.547   3.093  1.00  0.00     0.269 C 
HETATM    9  H   UNL     1      42.394 -16.664   1.637  1.00  0.00     0.279 HD
HETATM   10  C   UNL     1      43.328 -15.117   2.634  1.00  0.00     0.237 C 
HETATM   11  C   UNL     1      42.402 -14.056   2.055  1.00  0.00     0.069 C 
BRANCH   4  12
HETATM   12  C   UNL     1      41.509 -13.459   4.291  1.00  0.00     0.251 C 
HETATM   13  N   UNL     1      42.272 -12.313   4.266  1.00  0.00    -0.323 N 
HETATM   14  H   UNL     1      42.340 -11.801   3.389  1.00  0.00     0.169 HD
HETATM   15  O   UNL     1      41.308 -14.163   5.276  1.00  0.00    -0.270 OA
BRANCH  13  16
HETATM   16  C   UNL     1      43.027 -11.731   5.308  1.00  0.00     0.068 A 
HETATM   17  C   UNL     1      42.306 -11.025   6.296  1.00  0.00     0.097 A 
HETATM   18  C   UNL     1      42.985 -10.396   7.347  1.00  0.00     0.075 A 
HETATM   19  C   UNL     1      44.378 -10.465   7.418  1.00  0.00     0.070 A 
HETATM   20  C   UNL     1      45.083 -11.161   6.435  1.00  0.00     0.039 A 
HETATM   21  C   UNL     1      44.416 -11.796   5.386  1.00  0.00     0.035 A 
BRANCH  17  22
HETATM   22  O   UNL     1      40.940 -10.997   6.110  1.00  0.00    -0.354 OA
HETATM   23  C   UNL     1      40.183 -10.167   6.987  1.00  0.00     0.210 C 
ENDBRANCH  17  22
BRANCH  19  24
HETATM   24  O   UNL     1      45.164  -9.891   8.377  1.00  0.00    -0.356 OA
HETATM   25  C   UNL     1      46.423  -9.374   7.964  1.00  0.00     0.210 C 
ENDBRANCH  19  24
ENDBRANCH  13  16
ENDBRANCH   4  12
ENDBRANCH   1   4
BRANCH   1  26
HETATM   26  C   UNL     1      39.144 -12.338   3.225  1.00  0.00     0.192 C 
BRANCH  26  27
HETATM   27  C   UNL     1      39.211 -10.862   3.361  1.00  0.00     0.070 A 
HETATM   28  O   UNL     1      40.426 -10.327   3.042  1.00  0.00    -0.325 OA
HETATM   29  C   UNL     1      40.340  -8.984   3.212  1.00  0.00     0.142 A 
HETATM   30  C   UNL     1      39.082  -8.640   3.646  1.00  0.00     0.027 A 
HETATM   31  C   UNL     1      38.352  -9.851   3.746  1.00  0.00     0.036 A 
ENDBRANCH  26  27
ENDBRANCH   1  26
BRANCH   2  32
HETATM   32  C   UNL     1      39.066 -11.853   0.275  1.00  0.00     0.228 C 
BRANCH  32  33
HETATM   33  N   UNL     1      39.953 -11.246  -0.706  1.00  0.00    -0.347 N 
HETATM   34  C   UNL     1      40.141 -11.617  -2.037  1.00  0.00     0.171 C 
HETATM   35  S   UNL     1      39.462 -12.878  -2.864  1.00  0.00    -0.041 SA
HETATM   36  N   UNL     1      41.058 -10.735  -2.600  1.00  0.00    -0.357 N 
HETATM   37  C   UNL     1      41.696  -9.953  -1.564  1.00  0.00     0.135 C 
HETATM   38  H   UNL     1      41.480 -10.929  -3.500  1.00  0.00     0.162 HD
HETATM   39  C   UNL     1      40.679 -10.019  -0.420  1.00  0.00     0.155 C 
BRANCH  37  40
HETATM   40  C   UNL     1      42.084  -8.556  -1.958  1.00  0.00    -0.034 A 
HETATM   41  C   UNL     1      43.245  -7.941  -1.467  1.00  0.00     0.009 A 
HETATM   42  C   UNL     1      43.600  -6.657  -1.888  1.00  0.00     0.001 A 
HETATM   43  C   UNL     1      42.806  -5.978  -2.811  1.00  0.00     0.000 A 
HETATM   44  C   UNL     1      41.655  -6.579  -3.312  1.00  0.00     0.001 A 
HETATM   45  C   UNL     1      41.297  -7.860  -2.890  1.00  0.00     0.009 A 
ENDBRANCH  37  40
ENDBRANCH  32  33
ENDBRANCH   2  32
TORSDOF 10
ENDMDL
