MODEL 1
REMARK VINA RESULT:      -9.5      0.000      0.000
REMARK  2 active torsions:
REMARK  status: ('A' for Active; 'I' for Inactive)
REMARK    1  A    between atoms: C_4  and  C_5 
REMARK       I    between atoms: N_12  and  C_13 
REMARK    2  A    between atoms: C_13  and  C_14 
ROOT
HETATM    1  C   UNL     1      41.320 -15.709   3.133  1.00  0.00     0.097 A 
HETATM    2  N   UNL     1      40.057 -15.946   2.728  1.00  0.00    -0.173 NA
HETATM    3  N   UNL     1      39.450 -14.749   2.746  1.00  0.00    -0.281 N 
HETATM    4  H   UNL     1      38.468 -14.703   2.492  1.00  0.00     0.189 HD
HETATM    5  C   UNL     1      40.271 -13.752   3.152  1.00  0.00     0.039 A 
HETATM    6  C   UNL     1      41.502 -14.319   3.392  1.00  0.00     0.015 A 
HETATM    7  C   UNL     1      42.672 -13.540   3.881  1.00  0.00     0.168 C 
HETATM    8  N   UNL     1      42.210 -12.243   4.427  1.00  0.00    -0.347 N 
HETATM    9  C   UNL     1      42.913 -11.509   5.383  1.00  0.00     0.226 C 
HETATM   10  O   UNL     1      42.690 -10.308   5.545  1.00  0.00    -0.273 OA
HETATM   11  C   UNL     1      41.201 -11.522   3.616  1.00  0.00     0.132 C 
HETATM   12  C   UNL     1      39.909 -12.338   3.395  1.00  0.00     0.079 C 
ENDROOT
BRANCH   9  13
HETATM   13  C   UNL     1      43.995 -12.226   6.198  1.00  0.00     0.106 C 
HETATM   14  C   UNL     1      45.387 -11.666   5.901  1.00  0.00     0.190 C 
HETATM   15  O   UNL     1      45.634 -10.358   6.420  1.00  0.00    -0.350 OA
HETATM   16  C   UNL     1      45.234 -10.157   7.709  1.00  0.00     0.075 A 
HETATM   17  C   UNL     1      44.336 -10.988   8.376  1.00  0.00    -0.024 A 
HETATM   18  C   UNL     1      45.753  -9.029   8.344  1.00  0.00     0.037 A 
HETATM   19  C   UNL     1      43.738 -12.187   7.704  1.00  0.00     0.057 C 
HETATM   20  C   UNL     1      44.000 -10.702   9.709  1.00  0.00     0.010 A 
HETATM   21  C   UNL     1      44.533  -9.584  10.349  1.00  0.00     0.001 A 
HETATM   22  C   UNL     1      45.406  -8.743   9.664  1.00  0.00     0.003 A 
ENDBRANCH   9  13
BRANCH   1  23
HETATM   23  C   UNL     1      42.269 -16.811   3.305  1.00  0.00    -0.005 A 
HETATM   24  C   UNL     1      42.950 -17.015   4.512  1.00  0.00     0.014 A 
HETATM   25  C   UNL     1      43.820 -18.099   4.662  1.00  0.00     0.001 A 
HETATM   26  C   UNL     1      44.026 -18.984   3.605  1.00  0.00     0.000 A 
HETATM   27  C   UNL     1      43.369 -18.782   2.393  1.00  0.00     0.001 A 
HETATM   28  C   UNL     1      42.498 -17.702   2.245  1.00  0.00     0.014 A 
ENDBRANCH   1  23
TORSDOF 2
ENDMDL
MODEL 2
REMARK VINA RESULT:      -9.5      2.743      7.719
REMARK  2 active torsions:
REMARK  status: ('A' for Active; 'I' for Inactive)
REMARK    1  A    between atoms: C_4  and  C_5 
REMARK       I    between atoms: N_12  and  C_13 
REMARK    2  A    between atoms: C_13  and  C_14 
ROOT
HETATM    1  C   UNL     1      42.631 -11.091   6.629  1.00  0.00     0.097 A 
HETATM    2  N   UNL     1      41.738 -10.090   6.505  1.00  0.00    -0.173 NA
HETATM    3  N   UNL     1      40.582 -10.689   6.180  1.00  0.00    -0.281 N 
HETATM    4  H   UNL     1      39.767 -10.106   6.014  1.00  0.00     0.189 HD
HETATM    5  C   UNL     1      40.697 -12.035   6.084  1.00  0.00     0.039 A 
HETATM    6  C   UNL     1      42.003 -12.347   6.389  1.00  0.00     0.015 A 
HETATM    7  C   UNL     1      42.529 -13.739   6.370  1.00  0.00     0.168 C 
HETATM    8  N   UNL     1      41.599 -14.609   5.614  1.00  0.00    -0.347 N 
HETATM    9  C   UNL     1      41.984 -15.792   4.982  1.00  0.00     0.226 C 
HETATM   10  O   UNL     1      41.148 -16.646   4.679  1.00  0.00    -0.273 OA
HETATM   11  C   UNL     1      40.158 -14.429   5.911  1.00  0.00     0.132 C 
HETATM   12  C   UNL     1      39.661 -12.993   5.639  1.00  0.00     0.079 C 
ENDROOT
BRANCH   9  13
HETATM   13  C   UNL     1      43.475 -16.019   4.711  1.00  0.00     0.106 C 
HETATM   14  C   UNL     1      44.176 -16.651   5.915  1.00  0.00     0.190 C 
HETATM   15  O   UNL     1      43.846 -18.020   6.154  1.00  0.00    -0.350 OA
HETATM   16  C   UNL     1      43.841 -18.822   5.050  1.00  0.00     0.075 A 
HETATM   17  C   UNL     1      43.790 -18.336   3.745  1.00  0.00    -0.024 A 
HETATM   18  C   UNL     1      43.856 -20.195   5.288  1.00  0.00     0.037 A 
HETATM   19  C   UNL     1      43.737 -16.864   3.465  1.00  0.00     0.057 C 
HETATM   20  C   UNL     1      43.804 -19.243   2.675  1.00  0.00     0.010 A 
HETATM   21  C   UNL     1      43.837 -20.617   2.913  1.00  0.00     0.001 A 
HETATM   22  C   UNL     1      43.857 -21.094   4.222  1.00  0.00     0.003 A 
ENDBRANCH   9  13
BRANCH   1  23
HETATM   23  C   UNL     1      44.040 -10.804   6.913  1.00  0.00    -0.005 A 
HETATM   24  C   UNL     1      44.420  -9.926   7.936  1.00  0.00     0.014 A 
HETATM   25  C   UNL     1      45.772  -9.701   8.212  1.00  0.00     0.001 A 
HETATM   26  C   UNL     1      46.757 -10.343   7.463  1.00  0.00     0.000 A 
HETATM   27  C   UNL     1      46.392 -11.204   6.431  1.00  0.00     0.001 A 
HETATM   28  C   UNL     1      45.042 -11.431   6.158  1.00  0.00     0.014 A 
ENDBRANCH   1  23
TORSDOF 2
ENDMDL
MODEL 3
REMARK VINA RESULT:      -8.6      4.132      7.292
REMARK  2 active torsions:
REMARK  status: ('A' for Active; 'I' for Inactive)
REMARK    1  A    between atoms: C_4  and  C_5 
REMARK       I    between atoms: N_12  and  C_13 
REMARK    2  A    between atoms: C_13  and  C_14 
ROOT
HETATM    1  C   UNL     1      42.102 -15.684   5.028  1.00  0.00     0.097 A 
HETATM    2  N   UNL     1      42.365 -15.412   6.321  1.00  0.00    -0.173 NA
HETATM    3  N   UNL     1      41.636 -14.322   6.607  1.00  0.00    -0.281 N 
HETATM    4  H   UNL     1      41.705 -13.927   7.540  1.00  0.00     0.189 HD
HETATM    5  C   UNL     1      40.919 -13.879   5.547  1.00  0.00     0.039 A 
HETATM    6  C   UNL     1      41.169 -14.743   4.505  1.00  0.00     0.015 A 
HETATM    7  C   UNL     1      40.574 -14.573   3.152  1.00  0.00     0.168 C 
HETATM    8  N   UNL     1      40.053 -13.194   3.009  1.00  0.00    -0.347 N 
HETATM    9  C   UNL     1      39.898 -12.546   1.783  1.00  0.00     0.226 C 
HETATM   10  O   UNL     1      39.153 -11.570   1.676  1.00  0.00    -0.273 OA
HETATM   11  C   UNL     1      39.283 -12.671   4.162  1.00  0.00     0.132 C 
HETATM   12  C   UNL     1      40.100 -12.649   5.472  1.00  0.00     0.079 C 
ENDROOT
BRANCH   9  13
HETATM   13  C   UNL     1      40.648 -13.103   0.567  1.00  0.00     0.106 C 
HETATM   14  C   UNL     1      39.733 -13.951  -0.318  1.00  0.00     0.190 C 
HETATM   15  O   UNL     1      38.755 -13.215  -1.054  1.00  0.00    -0.350 OA
HETATM   16  C   UNL     1      39.216 -12.090  -1.674  1.00  0.00     0.075 A 
HETATM   17  C   UNL     1      40.422 -11.471  -1.352  1.00  0.00    -0.024 A 
HETATM   18  C   UNL     1      38.387 -11.547  -2.656  1.00  0.00     0.037 A 
HETATM   19  C   UNL     1      41.313 -12.016  -0.277  1.00  0.00     0.057 C 
HETATM   20  C   UNL     1      40.814 -10.325  -2.060  1.00  0.00     0.010 A 
HETATM   21  C   UNL     1      39.993  -9.792  -3.054  1.00  0.00     0.001 A 
HETATM   22  C   UNL     1      38.776 -10.400  -3.348  1.00  0.00     0.003 A 
ENDBRANCH   9  13
BRANCH   1  23
HETATM   23  C   UNL     1      42.786 -16.783   4.342  1.00  0.00    -0.005 A 
HETATM   24  C   UNL     1      42.506 -17.107   3.009  1.00  0.00     0.014 A 
HETATM   25  C   UNL     1      43.202 -18.135   2.366  1.00  0.00     0.001 A 
HETATM   26  C   UNL     1      44.178 -18.856   3.052  1.00  0.00     0.000 A 
HETATM   27  C   UNL     1      44.454 -18.556   4.384  1.00  0.00     0.001 A 
HETATM   28  C   UNL     1      43.760 -17.528   5.024  1.00  0.00     0.014 A 
ENDBRANCH   1  23
TORSDOF 2
ENDMDL
MODEL 4
REMARK VINA RESULT:      -8.3      2.819      8.127
REMARK  2 active torsions:
REMARK  status: ('A' for Active; 'I' for Inactive)
REMARK    1  A    between atoms: C_4  and  C_5 
REMARK       I    between atoms: N_12  and  C_13 
REMARK    2  A    between atoms: C_13  and  C_14 
ROOT
HETATM    1  C   UNL     1      42.621  -7.913   7.660  1.00  0.00     0.097 A 
HETATM    2  N   UNL     1      42.563  -6.595   7.384  1.00  0.00    -0.173 NA
HETATM    3  N   UNL     1      41.779  -6.497   6.299  1.00  0.00    -0.281 N 
HETATM    4  H   UNL     1      41.618  -5.576   5.903  1.00  0.00     0.189 HD
HETATM    5  C   UNL     1      41.334  -7.700   5.863  1.00  0.00     0.039 A 
HETATM    6  C   UNL     1      41.834  -8.648   6.727  1.00  0.00     0.015 A 
HETATM    7  C   UNL     1      41.582 -10.105   6.564  1.00  0.00     0.168 C 
HETATM    8  N   UNL     1      41.100 -10.374   5.189  1.00  0.00    -0.347 N 
HETATM    9  C   UNL     1      41.240 -11.603   4.544  1.00  0.00     0.226 C 
HETATM   10  O   UNL     1      40.536 -11.890   3.575  1.00  0.00    -0.273 OA
HETATM   11  C   UNL     1      40.071  -9.442   4.670  1.00  0.00     0.132 C 
HETATM   12  C   UNL     1      40.548  -7.974   4.640  1.00  0.00     0.079 C 
ENDROOT
BRANCH   9  13
HETATM   13  C   UNL     1      42.264 -12.601   5.097  1.00  0.00     0.106 C 
HETATM   14  C   UNL     1      41.584 -13.759   5.828  1.00  0.00     0.190 C 
HETATM   15  O   UNL     1      40.897 -14.684   4.983  1.00  0.00    -0.350 OA
HETATM   16  C   UNL     1      41.580 -15.075   3.868  1.00  0.00     0.075 A 
HETATM   17  C   UNL     1      42.683 -14.392   3.361  1.00  0.00    -0.024 A 
HETATM   18  C   UNL     1      41.093 -16.207   3.215  1.00  0.00     0.037 A 
HETATM   19  C   UNL     1      43.204 -13.153   4.025  1.00  0.00     0.057 C 
HETATM   20  C   UNL     1      43.326 -14.885   2.215  1.00  0.00     0.010 A 
HETATM   21  C   UNL     1      42.850 -16.027   1.572  1.00  0.00     0.001 A 
HETATM   22  C   UNL     1      41.728 -16.686   2.069  1.00  0.00     0.003 A 
ENDBRANCH   9  13
BRANCH   1  23
HETATM   23  C   UNL     1      43.457  -8.410   8.755  1.00  0.00    -0.005 A 
HETATM   24  C   UNL     1      43.001  -8.432  10.079  1.00  0.00     0.014 A 
HETATM   25  C   UNL     1      43.805  -8.950  11.099  1.00  0.00     0.001 A 
HETATM   26  C   UNL     1      45.077  -9.441  10.807  1.00  0.00     0.000 A 
HETATM   27  C   UNL     1      45.549  -9.409   9.498  1.00  0.00     0.001 A 
HETATM   28  C   UNL     1      44.745  -8.895   8.479  1.00  0.00     0.014 A 
ENDBRANCH   1  23
TORSDOF 2
ENDMDL
MODEL 5
REMARK VINA RESULT:      -8.3      3.042      6.255
REMARK  2 active torsions:
REMARK  status: ('A' for Active; 'I' for Inactive)
REMARK    1  A    between atoms: C_4  and  C_5 
REMARK       I    between atoms: N_12  and  C_13 
REMARK    2  A    between atoms: C_13  and  C_14 
ROOT
HETATM    1  C   UNL     1      43.794 -17.074   5.146  1.00  0.00     0.097 A 
HETATM    2  N   UNL     1      44.763 -17.123   6.081  1.00  0.00    -0.173 NA
HETATM    3  N   UNL     1      44.671 -15.960   6.744  1.00  0.00    -0.281 N 
HETATM    4  H   UNL     1      45.336 -15.777   7.490  1.00  0.00     0.189 HD
HETATM    5  C   UNL     1      43.685 -15.162   6.269  1.00  0.00     0.039 A 
HETATM    6  C   UNL     1      43.071 -15.850   5.246  1.00  0.00     0.015 A 
HETATM    7  C   UNL     1      41.946 -15.287   4.453  1.00  0.00     0.168 C 
HETATM    8  N   UNL     1      41.885 -13.821   4.650  1.00  0.00    -0.347 N 
HETATM    9  C   UNL     1      41.323 -12.937   3.729  1.00  0.00     0.226 C 
HETATM   10  O   UNL     1      40.978 -11.804   4.071  1.00  0.00    -0.273 OA
HETATM   11  C   UNL     1      42.038 -13.348   6.047  1.00  0.00     0.132 C 
HETATM   12  C   UNL     1      43.378 -13.776   6.684  1.00  0.00     0.079 C 
ENDROOT
BRANCH   9  13
HETATM   13  C   UNL     1      41.111 -13.424   2.291  1.00  0.00     0.106 C 
HETATM   14  C   UNL     1      39.646 -13.776   2.027  1.00  0.00     0.190 C 
HETATM   15  O   UNL     1      38.761 -12.657   1.951  1.00  0.00    -0.350 OA
HETATM   16  C   UNL     1      39.209 -11.609   1.200  1.00  0.00     0.075 A 
HETATM   17  C   UNL     1      40.541 -11.440   0.829  1.00  0.00    -0.024 A 
HETATM   18  C   UNL     1      38.251 -10.663   0.833  1.00  0.00     0.037 A 
HETATM   19  C   UNL     1      41.594 -12.424   1.241  1.00  0.00     0.057 C 
HETATM   20  C   UNL     1      40.898 -10.334   0.042  1.00  0.00     0.010 A 
HETATM   21  C   UNL     1      39.937  -9.398  -0.339  1.00  0.00     0.001 A 
HETATM   22  C   UNL     1      38.613  -9.559   0.062  1.00  0.00     0.003 A 
ENDBRANCH   9  13
BRANCH   1  23
HETATM   23  C   UNL     1      43.637 -18.160   4.175  1.00  0.00    -0.005 A 
HETATM   24  C   UNL     1      43.159 -17.926   2.880  1.00  0.00     0.014 A 
HETATM   25  C   UNL     1      43.058 -18.975   1.960  1.00  0.00     0.001 A 
HETATM   26  C   UNL     1      43.423 -20.268   2.329  1.00  0.00     0.000 A 
HETATM   27  C   UNL     1      43.883 -20.518   3.620  1.00  0.00     0.001 A 
HETATM   28  C   UNL     1      43.988 -19.470   4.536  1.00  0.00     0.014 A 
ENDBRANCH   1  23
TORSDOF 2
ENDMDL
MODEL 6
REMARK VINA RESULT:      -8.0      8.487     11.857
REMARK  2 active torsions:
REMARK  status: ('A' for Active; 'I' for Inactive)
REMARK    1  A    between atoms: C_4  and  C_5 
REMARK       I    between atoms: N_12  and  C_13 
REMARK    2  A    between atoms: C_13  and  C_14 
ROOT
HETATM    1  C   UNL     1      40.485  -8.327  11.302  1.00  0.00     0.097 A 
HETATM    2  N   UNL     1      39.526  -8.716  10.440  1.00  0.00    -0.173 NA
HETATM    3  N   UNL     1      38.402  -8.123  10.871  1.00  0.00    -0.281 N 
HETATM    4  H   UNL     1      37.538  -8.303  10.369  1.00  0.00     0.189 HD
HETATM    5  C   UNL     1      38.600  -7.371  11.981  1.00  0.00     0.039 A 
HETATM    6  C   UNL     1      39.940  -7.453  12.287  1.00  0.00     0.015 A 
HETATM    7  C   UNL     1      40.544  -6.774  13.464  1.00  0.00     0.168 C 
HETATM    8  N   UNL     1      39.477  -6.381  14.412  1.00  0.00    -0.347 N 
HETATM    9  C   UNL     1      39.683  -6.195  15.779  1.00  0.00     0.226 C 
HETATM   10  O   UNL     1      38.884  -5.544  16.454  1.00  0.00    -0.273 OA
HETATM   11  C   UNL     1      38.273  -5.759  13.810  1.00  0.00     0.132 C 
HETATM   12  C   UNL     1      37.571  -6.674  12.784  1.00  0.00     0.079 C 
ENDROOT
BRANCH   9  13
HETATM   13  C   UNL     1      40.947  -6.789  16.411  1.00  0.00     0.106 C 
HETATM   14  C   UNL     1      41.738  -5.734  17.185  1.00  0.00     0.190 C 
HETATM   15  O   UNL     1      41.134  -5.304  18.407  1.00  0.00    -0.350 OA
HETATM   16  C   UNL     1      40.645  -6.302  19.199  1.00  0.00     0.075 A 
HETATM   17  C   UNL     1      40.397  -7.595  18.744  1.00  0.00    -0.024 A 
HETATM   18  C   UNL     1      40.362  -5.954  20.519  1.00  0.00     0.037 A 
HETATM   19  C   UNL     1      40.660  -7.983  17.320  1.00  0.00     0.057 C 
HETATM   20  C   UNL     1      39.907  -8.555  19.643  1.00  0.00     0.010 A 
HETATM   21  C   UNL     1      39.641  -8.212  20.969  1.00  0.00     0.001 A 
HETATM   22  C   UNL     1      39.863  -6.908  21.406  1.00  0.00     0.003 A 
ENDBRANCH   9  13
BRANCH   1  23
HETATM   23  C   UNL     1      41.851  -8.843  11.183  1.00  0.00    -0.005 A 
HETATM   24  C   UNL     1      42.243 -10.037  11.802  1.00  0.00     0.014 A 
HETATM   25  C   UNL     1      43.543 -10.527  11.638  1.00  0.00     0.001 A 
HETATM   26  C   UNL     1      44.464  -9.826  10.864  1.00  0.00     0.000 A 
HETATM   27  C   UNL     1      44.092  -8.628  10.257  1.00  0.00     0.001 A 
HETATM   28  C   UNL     1      42.794  -8.140  10.418  1.00  0.00     0.014 A 
ENDBRANCH   1  23
TORSDOF 2
ENDMDL
MODEL 7
REMARK VINA RESULT:      -7.9      7.597     12.826
REMARK  2 active torsions:
REMARK  status: ('A' for Active; 'I' for Inactive)
REMARK    1  A    between atoms: C_4  and  C_5 
REMARK       I    between atoms: N_12  and  C_13 
REMARK    2  A    between atoms: C_13  and  C_14 
ROOT
HETATM    1  C   UNL     1      41.263  -5.361  16.869  1.00  0.00     0.097 A 
HETATM    2  N   UNL     1      41.603  -4.139  17.323  1.00  0.00    -0.173 NA
HETATM    3  N   UNL     1      41.683  -3.367  16.228  1.00  0.00    -0.281 N 
HETATM    4  H   UNL     1      41.953  -2.394  16.342  1.00  0.00     0.189 HD
HETATM    5  C   UNL     1      41.413  -4.045  15.087  1.00  0.00     0.039 A 
HETATM    6  C   UNL     1      41.112  -5.338  15.452  1.00  0.00     0.015 A 
HETATM    7  C   UNL     1      40.781  -6.402  14.466  1.00  0.00     0.168 C 
HETATM    8  N   UNL     1      41.213  -5.977  13.115  1.00  0.00    -0.347 N 
HETATM    9  C   UNL     1      41.518  -6.865  12.083  1.00  0.00     0.226 C 
HETATM   10  O   UNL     1      41.526  -6.488  10.909  1.00  0.00    -0.273 OA
HETATM   11  C   UNL     1      40.891  -4.579  12.743  1.00  0.00     0.132 C 
HETATM   12  C   UNL     1      41.517  -3.541  13.700  1.00  0.00     0.079 C 
ENDROOT
BRANCH   9  13
HETATM   13  C   UNL     1      41.805  -8.327  12.443  1.00  0.00     0.106 C 
HETATM   14  C   UNL     1      40.977  -9.289  11.591  1.00  0.00     0.190 C 
HETATM   15  O   UNL     1      41.378  -9.379  10.222  1.00  0.00    -0.350 OA
HETATM   16  C   UNL     1      42.722  -9.491  10.013  1.00  0.00     0.075 A 
HETATM   17  C   UNL     1      43.680  -9.180  10.976  1.00  0.00    -0.024 A 
HETATM   18  C   UNL     1      43.113  -9.912   8.743  1.00  0.00     0.037 A 
HETATM   19  C   UNL     1      43.285  -8.692  12.337  1.00  0.00     0.057 C 
HETATM   20  C   UNL     1      45.039  -9.343  10.667  1.00  0.00     0.010 A 
HETATM   21  C   UNL     1      45.429  -9.782   9.401  1.00  0.00     0.001 A 
HETATM   22  C   UNL     1      44.465 -10.061   8.436  1.00  0.00     0.003 A 
ENDBRANCH   9  13
BRANCH   1  23
HETATM   23  C   UNL     1      41.152  -6.495  17.790  1.00  0.00    -0.005 A 
HETATM   24  C   UNL     1      42.267  -7.004  18.468  1.00  0.00     0.014 A 
HETATM   25  C   UNL     1      42.126  -8.062  19.372  1.00  0.00     0.001 A 
HETATM   26  C   UNL     1      40.872  -8.627  19.599  1.00  0.00     0.000 A 
HETATM   27  C   UNL     1      39.759  -8.142  18.918  1.00  0.00     0.001 A 
HETATM   28  C   UNL     1      39.899  -7.084  18.018  1.00  0.00     0.014 A 
ENDBRANCH   1  23
TORSDOF 2
ENDMDL
MODEL 8
REMARK VINA RESULT:      -7.8      5.310      7.560
REMARK  2 active torsions:
REMARK  status: ('A' for Active; 'I' for Inactive)
REMARK    1  A    between atoms: C_4  and  C_5 
REMARK       I    between atoms: N_12  and  C_13 
REMARK    2  A    between atoms: C_13  and  C_14 
ROOT
HETATM    1  C   UNL     1      40.468 -13.845   3.025  1.00  0.00     0.097 A 
HETATM    2  N   UNL     1      40.172 -13.691   4.330  1.00  0.00    -0.173 NA
HETATM    3  N   UNL     1      39.325 -12.651   4.378  1.00  0.00    -0.281 N 
HETATM    4  H   UNL     1      38.988 -12.345   5.286  1.00  0.00     0.189 HD
HETATM    5  C   UNL     1      39.069 -12.126   3.156  1.00  0.00     0.039 A 
HETATM    6  C   UNL     1      39.769 -12.881   2.242  1.00  0.00     0.015 A 
HETATM    7  C   UNL     1      39.761 -12.598   0.781  1.00  0.00     0.168 C 
HETATM    8  N   UNL     1      39.259 -11.225   0.546  1.00  0.00    -0.347 N 
HETATM    9  C   UNL     1      39.571 -10.467  -0.583  1.00  0.00     0.226 C 
HETATM   10  O   UNL     1      38.874  -9.504  -0.909  1.00  0.00    -0.273 OA
HETATM   11  C   UNL     1      38.059 -10.832   1.323  1.00  0.00     0.132 C 
HETATM   12  C   UNL     1      38.276 -10.915   2.850  1.00  0.00     0.079 C 
ENDROOT
BRANCH   9  13
HETATM   13  C   UNL     1      40.778 -10.887  -1.429  1.00  0.00     0.106 C 
HETATM   14  C   UNL     1      40.476 -10.800  -2.925  1.00  0.00     0.190 C 
HETATM   15  O   UNL     1      40.370  -9.473  -3.443  1.00  0.00    -0.350 OA
HETATM   16  C   UNL     1      41.346  -8.609  -3.038  1.00  0.00     0.075 A 
HETATM   17  C   UNL     1      42.173  -8.840  -1.940  1.00  0.00    -0.024 A 
HETATM   18  C   UNL     1      41.466  -7.430  -3.772  1.00  0.00     0.037 A 
HETATM   19  C   UNL     1      42.040 -10.084  -1.114  1.00  0.00     0.057 C 
HETATM   20  C   UNL     1      43.158  -7.895  -1.614  1.00  0.00     0.010 A 
HETATM   21  C   UNL     1      43.289  -6.723  -2.359  1.00  0.00     0.001 A 
HETATM   22  C   UNL     1      42.438  -6.488  -3.436  1.00  0.00     0.003 A 
ENDBRANCH   9  13
BRANCH   1  23
HETATM   23  C   UNL     1      41.436 -14.857   2.593  1.00  0.00    -0.005 A 
HETATM   24  C   UNL     1      42.635 -14.506   1.960  1.00  0.00     0.014 A 
HETATM   25  C   UNL     1      43.559 -15.491   1.595  1.00  0.00     0.001 A 
HETATM   26  C   UNL     1      43.289 -16.834   1.850  1.00  0.00     0.000 A 
HETATM   27  C   UNL     1      42.093 -17.198   2.463  1.00  0.00     0.001 A 
HETATM   28  C   UNL     1      41.172 -16.215   2.830  1.00  0.00     0.014 A 
ENDBRANCH   1  23
TORSDOF 2
ENDMDL
MODEL 9
REMARK VINA RESULT:      -7.8      4.523      7.957
REMARK  2 active torsions:
REMARK  status: ('A' for Active; 'I' for Inactive)
REMARK    1  A    between atoms: C_4  and  C_5 
REMARK       I    between atoms: N_12  and  C_13 
REMARK    2  A    between atoms: C_13  and  C_14 
ROOT
HETATM    1  C   UNL     1      41.790 -13.884   3.947  1.00  0.00     0.097 A 
HETATM    2  N   UNL     1      42.351 -13.299   5.023  1.00  0.00    -0.173 NA
HETATM    3  N   UNL     1      41.656 -12.167   5.212  1.00  0.00    -0.281 N 
HETATM    4  H   UNL     1      41.933 -11.552   5.971  1.00  0.00     0.189 HD
HETATM    5  C   UNL     1      40.674 -11.996   4.295  1.00  0.00     0.039 A 
HETATM    6  C   UNL     1      40.704 -13.095   3.466  1.00  0.00     0.015 A 
HETATM    7  C   UNL     1      39.783 -13.264   2.311  1.00  0.00     0.168 C 
HETATM    8  N   UNL     1      39.166 -11.960   1.974  1.00  0.00    -0.347 N 
HETATM    9  C   UNL     1      38.675 -11.638   0.709  1.00  0.00     0.226 C 
HETATM   10  O   UNL     1      37.873 -10.714   0.561  1.00  0.00    -0.273 OA
HETATM   11  C   UNL     1      38.679 -11.159   3.123  1.00  0.00     0.132 C 
HETATM   12  C   UNL     1      39.794 -10.817   4.135  1.00  0.00     0.079 C 
ENDROOT
BRANCH   9  13
HETATM   13  C   UNL     1      39.128 -12.486  -0.484  1.00  0.00     0.106 C 
HETATM   14  C   UNL     1      37.994 -12.694  -1.490  1.00  0.00     0.190 C 
HETATM   15  O   UNL     1      37.637 -11.534  -2.243  1.00  0.00    -0.350 OA
HETATM   16  C   UNL     1      38.684 -10.821  -2.749  1.00  0.00     0.075 A 
HETATM   17  C   UNL     1      39.996 -10.952  -2.298  1.00  0.00    -0.024 A 
HETATM   18  C   UNL     1      38.373  -9.900  -3.749  1.00  0.00     0.037 A 
HETATM   19  C   UNL     1      40.349 -11.911  -1.201  1.00  0.00     0.057 C 
HETATM   20  C   UNL     1      41.005 -10.182  -2.896  1.00  0.00     0.010 A 
HETATM   21  C   UNL     1      40.697  -9.273  -3.908  1.00  0.00     0.001 A 
HETATM   22  C   UNL     1      39.378  -9.128  -4.331  1.00  0.00     0.003 A 
ENDBRANCH   9  13
BRANCH   1  23
HETATM   23  C   UNL     1      42.342 -15.125   3.398  1.00  0.00    -0.005 A 
HETATM   24  C   UNL     1      42.373 -16.310   4.144  1.00  0.00     0.014 A 
HETATM   25  C   UNL     1      42.869 -17.490   3.581  1.00  0.00     0.001 A 
HETATM   26  C   UNL     1      43.347 -17.495   2.272  1.00  0.00     0.000 A 
HETATM   27  C   UNL     1      43.338 -16.320   1.526  1.00  0.00     0.001 A 
HETATM   28  C   UNL     1      42.840 -15.142   2.087  1.00  0.00     0.014 A 
ENDBRANCH   1  23
TORSDOF 2
ENDMDL
MODEL 10
REMARK VINA RESULT:      -7.7      3.757      8.064
REMARK  2 active torsions:
REMARK  status: ('A' for Active; 'I' for Inactive)
REMARK    1  A    between atoms: C_4  and  C_5 
REMARK       I    between atoms: N_12  and  C_13 
REMARK    2  A    between atoms: C_13  and  C_14 
ROOT
HETATM    1  C   UNL     1      43.196 -14.204   5.360  1.00  0.00     0.097 A 
HETATM    2  N   UNL     1      43.347 -15.354   6.045  1.00  0.00    -0.173 NA
HETATM    3  N   UNL     1      43.077 -16.328   5.163  1.00  0.00    -0.281 N 
HETATM    4  H   UNL     1      43.110 -17.292   5.483  1.00  0.00     0.189 HD
HETATM    5  C   UNL     1      42.751 -15.850   3.938  1.00  0.00     0.039 A 
HETATM    6  C   UNL     1      42.837 -14.478   4.008  1.00  0.00     0.015 A 
HETATM    7  C   UNL     1      42.528 -13.588   2.857  1.00  0.00     0.168 C 
HETATM    8  N   UNL     1      41.764 -14.342   1.838  1.00  0.00    -0.347 N 
HETATM    9  C   UNL     1      40.907 -13.747   0.912  1.00  0.00     0.226 C 
HETATM   10  O   UNL     1      40.577 -14.343  -0.115  1.00  0.00    -0.273 OA
HETATM   11  C   UNL     1      42.264 -15.704   1.531  1.00  0.00     0.132 C 
HETATM   12  C   UNL     1      42.291 -16.629   2.767  1.00  0.00     0.079 C 
ENDROOT
BRANCH   9  13
HETATM   13  C   UNL     1      40.420 -12.320   1.186  1.00  0.00     0.106 C 
HETATM   14  C   UNL     1      41.324 -11.279   0.526  1.00  0.00     0.190 C 
HETATM   15  O   UNL     1      41.226 -11.212  -0.898  1.00  0.00    -0.350 OA
HETATM   16  C   UNL     1      39.955 -11.218  -1.397  1.00  0.00     0.075 A 
HETATM   17  C   UNL     1      38.842 -11.623  -0.664  1.00  0.00    -0.024 A 
HETATM   18  C   UNL     1      39.816 -10.821  -2.726  1.00  0.00     0.037 A 
HETATM   19  C   UNL     1      38.972 -12.088   0.756  1.00  0.00     0.057 C 
HETATM   20  C   UNL     1      37.574 -11.579  -1.264  1.00  0.00     0.010 A 
HETATM   21  C   UNL     1      37.432 -11.165  -2.588  1.00  0.00     0.001 A 
HETATM   22  C   UNL     1      38.555 -10.791  -3.322  1.00  0.00     0.003 A 
ENDBRANCH   9  13
BRANCH   1  23
HETATM   23  C   UNL     1      43.345 -12.910   6.030  1.00  0.00    -0.005 A 
HETATM   24  C   UNL     1      42.325 -11.950   6.012  1.00  0.00     0.014 A 
HETATM   25  C   UNL     1      42.479 -10.739   6.694  1.00  0.00     0.001 A 
HETATM   26  C   UNL     1      43.655 -10.472   7.392  1.00  0.00     0.000 A 
HETATM   27  C   UNL     1      44.684 -11.410   7.403  1.00  0.00     0.001 A 
HETATM   28  C   UNL     1      44.529 -12.621   6.725  1.00  0.00     0.014 A 
ENDBRANCH   1  23
TORSDOF 2
ENDMDL
