MODEL 1
REMARK VINA RESULT:      -8.4      0.000      0.000
REMARK  7 active torsions:
REMARK  status: ('A' for Active; 'I' for Inactive)
REMARK    1  A    between atoms: C_3  and  O_4 
REMARK    2  A    between atoms: O_4  and  C_5 
REMARK    3  A    between atoms: C_5  and  C_6 
REMARK       I    between atoms: C_6  and  N_7 
REMARK    4  A    between atoms: N_7  and  C_8 
REMARK    5  A    between atoms: C_9  and  C_10 
REMARK       I    between atoms: C_10  and  N_11 
REMARK    6  A    between atoms: N_11  and  C_12 
REMARK    7  A    between atoms: C_12  and  C_13 
ROOT
HETATM    1  C   UNL     1      43.155 -13.474   6.280  1.00  0.00     0.050 A 
HETATM    2  C   UNL     1      42.225 -12.505   5.838  1.00  0.00     0.058 A 
HETATM    3  C   UNL     1      42.557 -11.138   5.892  1.00  0.00     0.019 A 
HETATM    4  C   UNL     1      43.779 -10.727   6.420  1.00  0.00     0.001 A 
HETATM    5  C   UNL     1      44.681 -11.674   6.889  1.00  0.00     0.002 A 
HETATM    6  C   UNL     1      44.373 -13.035   6.814  1.00  0.00     0.030 A 
ENDROOT
BRANCH   1   7
HETATM    7  N   UNL     1      42.860 -14.854   6.124  1.00  0.00    -0.324 N 
HETATM    8  C   UNL     1      42.918 -15.843   7.090  1.00  0.00     0.246 C 
HETATM    9  O   UNL     1      43.028 -15.646   8.298  1.00  0.00    -0.271 OA
HETATM   10  H   UNL     1      42.577 -15.122   5.179  1.00  0.00     0.169 HD
BRANCH   8  11
HETATM   11  C   UNL     1      42.830 -17.259   6.519  1.00  0.00     0.278 C 
BRANCH  11  12
HETATM   12  O   UNL     1      43.830 -17.357   5.512  1.00  0.00    -0.342 OA
BRANCH  12  13
HETATM   13  C   UNL     1      43.809 -18.438   4.676  1.00  0.00     0.075 A 
HETATM   14  C   UNL     1      43.499 -18.159   3.332  1.00  0.00    -0.029 A 
HETATM   15  C   UNL     1      43.263 -16.749   2.862  1.00  0.00     0.051 C 
HETATM   16  C   UNL     1      43.475 -19.206   2.398  1.00  0.00     0.009 A 
HETATM   17  C   UNL     1      43.726 -20.516   2.798  1.00  0.00     0.001 A 
HETATM   18  C   UNL     1      44.009 -20.791   4.133  1.00  0.00     0.003 A 
HETATM   19  C   UNL     1      44.051 -19.756   5.071  1.00  0.00     0.037 A 
ENDBRANCH  12  13
ENDBRANCH  11  12
ENDBRANCH   8  11
ENDBRANCH   1   7
BRANCH   2  20
HETATM   20  C   UNL     1      40.885 -12.921   5.316  1.00  0.00     0.254 C 
HETATM   21  N   UNL     1      40.590 -12.556   4.025  1.00  0.00    -0.351 N 
HETATM   22  H   UNL     1      41.232 -12.002   3.472  1.00  0.00     0.163 HD
HETATM   23  O   UNL     1      40.091 -13.517   6.040  1.00  0.00    -0.268 OA
BRANCH  21  24
HETATM   24  C   UNL     1      39.355 -12.939   3.381  1.00  0.00     0.187 C 
BRANCH  24  25
HETATM   25  C   UNL     1      39.645 -14.007   2.391  1.00  0.00     0.070 A 
HETATM   26  O   UNL     1      39.807 -13.617   1.089  1.00  0.00    -0.325 OA
HETATM   27  C   UNL     1      40.048 -14.739   0.365  1.00  0.00     0.142 A 
HETATM   28  C   UNL     1      40.042 -15.848   1.177  1.00  0.00     0.027 A 
HETATM   29  C   UNL     1      39.783 -15.377   2.487  1.00  0.00     0.036 A 
ENDBRANCH  24  25
ENDBRANCH  21  24
ENDBRANCH   2  20
TORSDOF 7
ENDMDL
MODEL 2
REMARK VINA RESULT:      -8.3      2.179      5.282
REMARK  7 active torsions:
REMARK  status: ('A' for Active; 'I' for Inactive)
REMARK    1  A    between atoms: C_3  and  O_4 
REMARK    2  A    between atoms: O_4  and  C_5 
REMARK    3  A    between atoms: C_5  and  C_6 
REMARK       I    between atoms: C_6  and  N_7 
REMARK    4  A    between atoms: N_7  and  C_8 
REMARK    5  A    between atoms: C_9  and  C_10 
REMARK       I    between atoms: C_10  and  N_11 
REMARK    6  A    between atoms: N_11  and  C_12 
REMARK    7  A    between atoms: C_12  and  C_13 
ROOT
HETATM    1  C   UNL     1      41.891 -13.848   5.156  1.00  0.00     0.050 A 
HETATM    2  C   UNL     1      42.202 -12.651   5.840  1.00  0.00     0.058 A 
HETATM    3  C   UNL     1      41.299 -11.571   5.809  1.00  0.00     0.019 A 
HETATM    4  C   UNL     1      40.120 -11.654   5.072  1.00  0.00     0.001 A 
HETATM    5  C   UNL     1      39.828 -12.816   4.368  1.00  0.00     0.002 A 
HETATM    6  C   UNL     1      40.703 -13.905   4.415  1.00  0.00     0.030 A 
ENDROOT
BRANCH   1   7
HETATM    7  N   UNL     1      42.750 -14.972   5.279  1.00  0.00    -0.324 N 
HETATM    8  C   UNL     1      42.526 -16.129   6.003  1.00  0.00     0.246 C 
HETATM    9  O   UNL     1      41.446 -16.463   6.488  1.00  0.00    -0.271 OA
HETATM   10  H   UNL     1      43.629 -14.891   4.763  1.00  0.00     0.169 HD
BRANCH   8  11
HETATM   11  C   UNL     1      43.773 -17.000   6.163  1.00  0.00     0.278 C 
BRANCH  11  12
HETATM   12  O   UNL     1      44.314 -17.180   4.859  1.00  0.00    -0.342 OA
BRANCH  12  13
HETATM   13  C   UNL     1      44.068 -18.355   4.207  1.00  0.00     0.075 A 
HETATM   14  C   UNL     1      43.541 -18.231   2.909  1.00  0.00    -0.029 A 
HETATM   15  C   UNL     1      43.323 -16.880   2.282  1.00  0.00     0.051 C 
HETATM   16  C   UNL     1      43.277 -19.386   2.158  1.00  0.00     0.009 A 
HETATM   17  C   UNL     1      43.504 -20.649   2.699  1.00  0.00     0.001 A 
HETATM   18  C   UNL     1      44.003 -20.769   3.994  1.00  0.00     0.003 A 
HETATM   19  C   UNL     1      44.285 -19.626   4.748  1.00  0.00     0.037 A 
ENDBRANCH  12  13
ENDBRANCH  11  12
ENDBRANCH   8  11
ENDBRANCH   1   7
BRANCH   2  20
HETATM   20  C   UNL     1      43.487 -12.520   6.595  1.00  0.00     0.254 C 
HETATM   21  N   UNL     1      44.313 -11.486   6.224  1.00  0.00    -0.351 N 
HETATM   22  H   UNL     1      44.078 -10.871   5.456  1.00  0.00     0.163 HD
HETATM   23  O   UNL     1      43.786 -13.334   7.466  1.00  0.00    -0.268 OA
BRANCH  21  24
HETATM   24  C   UNL     1      45.557 -11.213   6.907  1.00  0.00     0.187 C 
BRANCH  24  25
HETATM   25  C   UNL     1      45.272 -10.387   8.107  1.00  0.00     0.070 A 
HETATM   26  O   UNL     1      45.510 -10.963   9.325  1.00  0.00    -0.325 OA
HETATM   27  C   UNL     1      45.173 -10.048  10.270  1.00  0.00     0.142 A 
HETATM   28  C   UNL     1      44.720  -8.892   9.681  1.00  0.00     0.027 A 
HETATM   29  C   UNL     1      44.783  -9.108   8.283  1.00  0.00     0.036 A 
ENDBRANCH  24  25
ENDBRANCH  21  24
ENDBRANCH   2  20
TORSDOF 7
ENDMDL
MODEL 3
REMARK VINA RESULT:      -8.2      1.905      6.824
REMARK  7 active torsions:
REMARK  status: ('A' for Active; 'I' for Inactive)
REMARK    1  A    between atoms: C_3  and  O_4 
REMARK    2  A    between atoms: O_4  and  C_5 
REMARK    3  A    between atoms: C_5  and  C_6 
REMARK       I    between atoms: C_6  and  N_7 
REMARK    4  A    between atoms: N_7  and  C_8 
REMARK    5  A    between atoms: C_9  and  C_10 
REMARK       I    between atoms: C_10  and  N_11 
REMARK    6  A    between atoms: N_11  and  C_12 
REMARK    7  A    between atoms: C_12  and  C_13 
ROOT
HETATM    1  C   UNL     1      43.494 -18.220   3.280  1.00  0.00     0.050 A 
HETATM    2  C   UNL     1      43.770 -18.464   4.645  1.00  0.00     0.058 A 
HETATM    3  C   UNL     1      44.058 -19.772   5.079  1.00  0.00     0.019 A 
HETATM    4  C   UNL     1      44.029 -20.838   4.183  1.00  0.00     0.001 A 
HETATM    5  C   UNL     1      43.721 -20.608   2.848  1.00  0.00     0.002 A 
HETATM    6  C   UNL     1      43.462 -19.310   2.400  1.00  0.00     0.030 A 
ENDROOT
BRANCH   1   7
HETATM    7  N   UNL     1      43.312 -16.887   2.827  1.00  0.00    -0.324 N 
HETATM    8  C   UNL     1      42.148 -16.139   2.855  1.00  0.00     0.246 C 
HETATM    9  O   UNL     1      41.130 -16.437   3.476  1.00  0.00    -0.271 OA
HETATM   10  H   UNL     1      44.153 -16.453   2.439  1.00  0.00     0.169 HD
BRANCH   8  11
HETATM   11  C   UNL     1      42.226 -14.859   2.021  1.00  0.00     0.278 C 
BRANCH  11  12
HETATM   12  O   UNL     1      40.964 -14.213   2.146  1.00  0.00    -0.342 OA
BRANCH  12  13
HETATM   13  C   UNL     1      40.268 -13.918   1.008  1.00  0.00     0.075 A 
HETATM   14  C   UNL     1      39.657 -12.650   0.982  1.00  0.00    -0.029 A 
HETATM   15  C   UNL     1      39.820 -11.683   2.123  1.00  0.00     0.051 C 
HETATM   16  C   UNL     1      38.939 -12.254  -0.156  1.00  0.00     0.009 A 
HETATM   17  C   UNL     1      38.802 -13.115  -1.242  1.00  0.00     0.001 A 
HETATM   18  C   UNL     1      39.387 -14.378  -1.202  1.00  0.00     0.003 A 
HETATM   19  C   UNL     1      40.118 -14.780  -0.082  1.00  0.00     0.037 A 
ENDBRANCH  12  13
ENDBRANCH  11  12
ENDBRANCH   8  11
ENDBRANCH   1   7
BRANCH   2  20
HETATM   20  C   UNL     1      43.756 -17.342   5.635  1.00  0.00     0.254 C 
HETATM   21  N   UNL     1      42.556 -17.086   6.254  1.00  0.00    -0.351 N 
HETATM   22  H   UNL     1      41.720 -17.606   6.022  1.00  0.00     0.163 HD
HETATM   23  O   UNL     1      44.766 -16.671   5.833  1.00  0.00    -0.268 OA
BRANCH  21  24
HETATM   24  C   UNL     1      42.417 -16.068   7.269  1.00  0.00     0.187 C 
BRANCH  24  25
HETATM   25  C   UNL     1      41.852 -14.845   6.644  1.00  0.00     0.070 A 
HETATM   26  O   UNL     1      40.489 -14.776   6.542  1.00  0.00    -0.325 OA
HETATM   27  C   UNL     1      40.195 -13.597   5.937  1.00  0.00     0.142 A 
HETATM   28  C   UNL     1      41.346 -12.905   5.646  1.00  0.00     0.027 A 
HETATM   29  C   UNL     1      42.418 -13.709   6.103  1.00  0.00     0.036 A 
ENDBRANCH  24  25
ENDBRANCH  21  24
ENDBRANCH   2  20
TORSDOF 7
ENDMDL
MODEL 4
REMARK VINA RESULT:      -7.9      2.308      7.244
REMARK  7 active torsions:
REMARK  status: ('A' for Active; 'I' for Inactive)
REMARK    1  A    between atoms: C_3  and  O_4 
REMARK    2  A    between atoms: O_4  and  C_5 
REMARK    3  A    between atoms: C_5  and  C_6 
REMARK       I    between atoms: C_6  and  N_7 
REMARK    4  A    between atoms: N_7  and  C_8 
REMARK    5  A    between atoms: C_9  and  C_10 
REMARK       I    between atoms: C_10  and  N_11 
REMARK    6  A    between atoms: N_11  and  C_12 
REMARK    7  A    between atoms: C_12  and  C_13 
ROOT
HETATM    1  C   UNL     1      42.406 -17.255   2.954  1.00  0.00     0.050 A 
HETATM    2  C   UNL     1      42.824 -16.971   4.275  1.00  0.00     0.058 A 
HETATM    3  C   UNL     1      43.869 -17.716   4.855  1.00  0.00     0.019 A 
HETATM    4  C   UNL     1      44.466 -18.762   4.156  1.00  0.00     0.001 A 
HETATM    5  C   UNL     1      44.033 -19.068   2.871  1.00  0.00     0.002 A 
HETATM    6  C   UNL     1      43.017 -18.318   2.274  1.00  0.00     0.030 A 
ENDROOT
BRANCH   1   7
HETATM    7  N   UNL     1      41.430 -16.433   2.334  1.00  0.00    -0.324 N 
HETATM    8  C   UNL     1      41.616 -15.187   1.764  1.00  0.00     0.246 C 
HETATM    9  O   UNL     1      42.708 -14.680   1.511  1.00  0.00    -0.271 OA
HETATM   10  H   UNL     1      40.488 -16.831   2.321  1.00  0.00     0.169 HD
BRANCH   8  11
HETATM   11  C   UNL     1      40.309 -14.454   1.456  1.00  0.00     0.278 C 
BRANCH  11  12
HETATM   12  O   UNL     1      40.005 -14.717   0.091  1.00  0.00    -0.342 OA
BRANCH  12  13
HETATM   13  C   UNL     1      40.181 -13.714  -0.820  1.00  0.00     0.075 A 
HETATM   14  C   UNL     1      39.640 -13.953  -2.097  1.00  0.00    -0.029 A 
HETATM   15  C   UNL     1      38.877 -15.214  -2.397  1.00  0.00     0.051 C 
HETATM   16  C   UNL     1      39.755 -12.968  -3.090  1.00  0.00     0.009 A 
HETATM   17  C   UNL     1      40.424 -11.775  -2.829  1.00  0.00     0.001 A 
HETATM   18  C   UNL     1      40.979 -11.553  -1.571  1.00  0.00     0.003 A 
HETATM   19  C   UNL     1      40.859 -12.518  -0.568  1.00  0.00     0.037 A 
ENDBRANCH  12  13
ENDBRANCH  11  12
ENDBRANCH   8  11
ENDBRANCH   1   7
BRANCH   2  20
HETATM   20  C   UNL     1      42.161 -15.887   5.064  1.00  0.00     0.254 C 
HETATM   21  N   UNL     1      42.982 -14.908   5.571  1.00  0.00    -0.351 N 
HETATM   22  H   UNL     1      43.986 -14.943   5.446  1.00  0.00     0.163 HD
HETATM   23  O   UNL     1      40.950 -15.917   5.273  1.00  0.00    -0.268 OA
BRANCH  21  24
HETATM   24  C   UNL     1      42.466 -13.776   6.304  1.00  0.00     0.187 C 
BRANCH  24  25
HETATM   25  C   UNL     1      43.528 -12.743   6.397  1.00  0.00     0.070 A 
HETATM   26  O   UNL     1      44.004 -12.456   7.648  1.00  0.00    -0.325 OA
HETATM   27  C   UNL     1      44.946 -11.489   7.502  1.00  0.00     0.142 A 
HETATM   28  C   UNL     1      45.084 -11.146   6.178  1.00  0.00     0.027 A 
HETATM   29  C   UNL     1      44.170 -11.955   5.463  1.00  0.00     0.036 A 
ENDBRANCH  24  25
ENDBRANCH  21  24
ENDBRANCH   2  20
TORSDOF 7
ENDMDL
MODEL 5
REMARK VINA RESULT:      -7.8      2.604      5.932
REMARK  7 active torsions:
REMARK  status: ('A' for Active; 'I' for Inactive)
REMARK    1  A    between atoms: C_3  and  O_4 
REMARK    2  A    between atoms: O_4  and  C_5 
REMARK    3  A    between atoms: C_5  and  C_6 
REMARK       I    between atoms: C_6  and  N_7 
REMARK    4  A    between atoms: N_7  and  C_8 
REMARK    5  A    between atoms: C_9  and  C_10 
REMARK       I    between atoms: C_10  and  N_11 
REMARK    6  A    between atoms: N_11  and  C_12 
REMARK    7  A    between atoms: C_12  and  C_13 
ROOT
HETATM    1  C   UNL     1      39.483 -13.982  -0.531  1.00  0.00     0.050 A 
HETATM    2  C   UNL     1      39.442 -12.578  -0.695  1.00  0.00     0.058 A 
HETATM    3  C   UNL     1      39.147 -12.028  -1.957  1.00  0.00     0.019 A 
HETATM    4  C   UNL     1      38.938 -12.854  -3.059  1.00  0.00     0.001 A 
HETATM    5  C   UNL     1      39.013 -14.234  -2.909  1.00  0.00     0.002 A 
HETATM    6  C   UNL     1      39.277 -14.792  -1.656  1.00  0.00     0.030 A 
ENDROOT
BRANCH   1   7
HETATM    7  N   UNL     1      39.673 -14.533   0.763  1.00  0.00    -0.324 N 
HETATM    8  C   UNL     1      40.867 -14.704   1.439  1.00  0.00     0.246 C 
HETATM    9  O   UNL     1      41.943 -14.206   1.113  1.00  0.00    -0.271 OA
HETATM   10  H   UNL     1      38.811 -14.831   1.227  1.00  0.00     0.169 HD
BRANCH   8  11
HETATM   11  C   UNL     1      40.746 -15.594   2.677  1.00  0.00     0.278 C 
BRANCH  11  12
HETATM   12  O   UNL     1      42.006 -15.549   3.338  1.00  0.00    -0.342 OA
BRANCH  12  13
HETATM   13  C   UNL     1      42.733 -16.702   3.434  1.00  0.00     0.075 A 
HETATM   14  C   UNL     1      43.507 -16.836   4.601  1.00  0.00    -0.029 A 
HETATM   15  C   UNL     1      43.476 -15.789   5.682  1.00  0.00     0.051 C 
HETATM   16  C   UNL     1      44.269 -17.998   4.794  1.00  0.00     0.009 A 
HETATM   17  C   UNL     1      44.288 -19.000   3.827  1.00  0.00     0.001 A 
HETATM   18  C   UNL     1      43.540 -18.853   2.661  1.00  0.00     0.003 A 
HETATM   19  C   UNL     1      42.764 -17.708   2.463  1.00  0.00     0.037 A 
ENDBRANCH  12  13
ENDBRANCH  11  12
ENDBRANCH   8  11
ENDBRANCH   1   7
BRANCH   2  20
HETATM   20  C   UNL     1      39.715 -11.670   0.462  1.00  0.00     0.254 C 
HETATM   21  N   UNL     1      41.007 -11.219   0.596  1.00  0.00    -0.351 N 
HETATM   22  H   UNL     1      41.739 -11.517  -0.035  1.00  0.00     0.163 HD
HETATM   23  O   UNL     1      38.825 -11.394   1.263  1.00  0.00    -0.268 OA
BRANCH  21  24
HETATM   24  C   UNL     1      41.394 -10.294   1.637  1.00  0.00     0.187 C 
BRANCH  24  25
HETATM   25  C   UNL     1      41.950 -11.066   2.777  1.00  0.00     0.070 A 
HETATM   26  O   UNL     1      43.310 -11.215   2.818  1.00  0.00    -0.325 OA
HETATM   27  C   UNL     1      43.595 -11.953   3.921  1.00  0.00     0.142 A 
HETATM   28  C   UNL     1      42.442 -12.284   4.591  1.00  0.00     0.027 A 
HETATM   29  C   UNL     1      41.378 -11.712   3.854  1.00  0.00     0.036 A 
ENDBRANCH  24  25
ENDBRANCH  21  24
ENDBRANCH   2  20
TORSDOF 7
ENDMDL
MODEL 6
REMARK VINA RESULT:      -7.8      1.545      5.810
REMARK  7 active torsions:
REMARK  status: ('A' for Active; 'I' for Inactive)
REMARK    1  A    between atoms: C_3  and  O_4 
REMARK    2  A    between atoms: O_4  and  C_5 
REMARK    3  A    between atoms: C_5  and  C_6 
REMARK       I    between atoms: C_6  and  N_7 
REMARK    4  A    between atoms: N_7  and  C_8 
REMARK    5  A    between atoms: C_9  and  C_10 
REMARK       I    between atoms: C_10  and  N_11 
REMARK    6  A    between atoms: N_11  and  C_12 
REMARK    7  A    between atoms: C_12  and  C_13 
ROOT
HETATM    1  C   UNL     1      43.768 -17.463   4.341  1.00  0.00     0.050 A 
HETATM    2  C   UNL     1      42.999 -17.123   3.204  1.00  0.00     0.058 A 
HETATM    3  C   UNL     1      42.754 -18.089   2.210  1.00  0.00     0.019 A 
HETATM    4  C   UNL     1      43.301 -19.366   2.312  1.00  0.00     0.001 A 
HETATM    5  C   UNL     1      44.088 -19.692   3.410  1.00  0.00     0.002 A 
HETATM    6  C   UNL     1      44.314 -18.751   4.418  1.00  0.00     0.030 A 
ENDROOT
BRANCH   1   7
HETATM    7  N   UNL     1      43.922 -16.521   5.392  1.00  0.00    -0.324 N 
HETATM    8  C   UNL     1      43.053 -16.281   6.442  1.00  0.00     0.246 C 
HETATM    9  O   UNL     1      42.104 -16.998   6.754  1.00  0.00    -0.271 OA
HETATM   10  H   UNL     1      44.781 -15.969   5.345  1.00  0.00     0.169 HD
BRANCH   8  11
HETATM   11  C   UNL     1      43.375 -15.005   7.221  1.00  0.00     0.278 C 
BRANCH  11  12
HETATM   12  O   UNL     1      43.714 -14.013   6.258  1.00  0.00    -0.342 OA
BRANCH  12  13
HETATM   13  C   UNL     1      42.979 -12.862   6.222  1.00  0.00     0.075 A 
HETATM   14  C   UNL     1      43.672 -11.688   6.570  1.00  0.00    -0.029 A 
HETATM   15  C   UNL     1      45.139 -11.719   6.904  1.00  0.00     0.051 C 
HETATM   16  C   UNL     1      43.001 -10.456   6.540  1.00  0.00     0.009 A 
HETATM   17  C   UNL     1      41.653 -10.393   6.199  1.00  0.00     0.001 A 
HETATM   18  C   UNL     1      40.964 -11.560   5.879  1.00  0.00     0.003 A 
HETATM   19  C   UNL     1      41.623 -12.792   5.890  1.00  0.00     0.037 A 
ENDBRANCH  12  13
ENDBRANCH  11  12
ENDBRANCH   8  11
ENDBRANCH   1   7
BRANCH   2  20
HETATM   20  C   UNL     1      42.445 -15.742   3.047  1.00  0.00     0.254 C 
HETATM   21  N   UNL     1      41.084 -15.642   2.886  1.00  0.00    -0.351 N 
HETATM   22  H   UNL     1      40.495 -16.463   2.839  1.00  0.00     0.163 HD
HETATM   23  O   UNL     1      43.195 -14.768   3.020  1.00  0.00    -0.268 OA
BRANCH  21  24
HETATM   24  C   UNL     1      40.415 -14.366   2.778  1.00  0.00     0.187 C 
BRANCH  24  25
HETATM   25  C   UNL     1      40.076 -14.125   1.353  1.00  0.00     0.070 A 
HETATM   26  O   UNL     1      39.669 -12.861   1.019  1.00  0.00    -0.325 OA
HETATM   27  C   UNL     1      39.402 -12.869  -0.312  1.00  0.00     0.142 A 
HETATM   28  C   UNL     1      39.628 -14.116  -0.842  1.00  0.00     0.027 A 
HETATM   29  C   UNL     1      40.064 -14.929   0.231  1.00  0.00     0.036 A 
ENDBRANCH  24  25
ENDBRANCH  21  24
ENDBRANCH   2  20
TORSDOF 7
ENDMDL
MODEL 7
REMARK VINA RESULT:      -7.7      2.646      5.957
REMARK  7 active torsions:
REMARK  status: ('A' for Active; 'I' for Inactive)
REMARK    1  A    between atoms: C_3  and  O_4 
REMARK    2  A    between atoms: O_4  and  C_5 
REMARK    3  A    between atoms: C_5  and  C_6 
REMARK       I    between atoms: C_6  and  N_7 
REMARK    4  A    between atoms: N_7  and  C_8 
REMARK    5  A    between atoms: C_9  and  C_10 
REMARK       I    between atoms: C_10  and  N_11 
REMARK    6  A    between atoms: N_11  and  C_12 
REMARK    7  A    between atoms: C_12  and  C_13 
ROOT
HETATM    1  C   UNL     1      39.555 -13.960  -0.576  1.00  0.00     0.050 A 
HETATM    2  C   UNL     1      39.580 -12.549  -0.649  1.00  0.00     0.058 A 
HETATM    3  C   UNL     1      39.360 -11.906  -1.882  1.00  0.00     0.019 A 
HETATM    4  C   UNL     1      39.162 -12.650  -3.043  1.00  0.00     0.001 A 
HETATM    5  C   UNL     1      39.173 -14.038  -2.982  1.00  0.00     0.002 A 
HETATM    6  C   UNL     1      39.361 -14.687  -1.758  1.00  0.00     0.030 A 
ENDROOT
BRANCH   1   7
HETATM    7  N   UNL     1      39.668 -14.601   0.686  1.00  0.00    -0.324 N 
HETATM    8  C   UNL     1      40.824 -14.853   1.402  1.00  0.00     0.246 C 
HETATM    9  O   UNL     1      41.927 -14.368   1.160  1.00  0.00    -0.271 OA
HETATM   10  H   UNL     1      38.778 -14.903   1.089  1.00  0.00     0.169 HD
BRANCH   8  11
HETATM   11  C   UNL     1      40.620 -15.819   2.571  1.00  0.00     0.278 C 
BRANCH  11  12
HETATM   12  O   UNL     1      41.590 -16.849   2.423  1.00  0.00    -0.342 OA
BRANCH  12  13
HETATM   13  C   UNL     1      42.532 -17.002   3.400  1.00  0.00     0.075 A 
HETATM   14  C   UNL     1      43.328 -18.159   3.301  1.00  0.00    -0.029 A 
HETATM   15  C   UNL     1      43.167 -19.119   2.154  1.00  0.00     0.051 C 
HETATM   16  C   UNL     1      44.336 -18.386   4.250  1.00  0.00     0.009 A 
HETATM   17  C   UNL     1      44.532 -17.494   5.301  1.00  0.00     0.001 A 
HETATM   18  C   UNL     1      43.726 -16.364   5.410  1.00  0.00     0.003 A 
HETATM   19  C   UNL     1      42.729 -16.117   4.464  1.00  0.00     0.037 A 
ENDBRANCH  12  13
ENDBRANCH  11  12
ENDBRANCH   8  11
ENDBRANCH   1   7
BRANCH   2  20
HETATM   20  C   UNL     1      39.844 -11.730   0.576  1.00  0.00     0.254 C 
HETATM   21  N   UNL     1      41.133 -11.286   0.751  1.00  0.00    -0.351 N 
HETATM   22  H   UNL     1      41.870 -11.534   0.103  1.00  0.00     0.163 HD
HETATM   23  O   UNL     1      38.948 -11.517   1.390  1.00  0.00    -0.268 OA
BRANCH  21  24
HETATM   24  C   UNL     1      41.511 -10.442   1.860  1.00  0.00     0.187 C 
BRANCH  24  25
HETATM   25  C   UNL     1      42.083 -11.293   2.934  1.00  0.00     0.070 A 
HETATM   26  O   UNL     1      41.204 -11.816   3.843  1.00  0.00    -0.325 OA
HETATM   27  C   UNL     1      41.933 -12.540   4.730  1.00  0.00     0.142 A 
HETATM   28  C   UNL     1      43.269 -12.491   4.409  1.00  0.00     0.027 A 
HETATM   29  C   UNL     1      43.368 -11.686   3.249  1.00  0.00     0.036 A 
ENDBRANCH  24  25
ENDBRANCH  21  24
ENDBRANCH   2  20
TORSDOF 7
ENDMDL
MODEL 8
REMARK VINA RESULT:      -7.7      2.389      6.831
REMARK  7 active torsions:
REMARK  status: ('A' for Active; 'I' for Inactive)
REMARK    1  A    between atoms: C_3  and  O_4 
REMARK    2  A    between atoms: O_4  and  C_5 
REMARK    3  A    between atoms: C_5  and  C_6 
REMARK       I    between atoms: C_6  and  N_7 
REMARK    4  A    between atoms: N_7  and  C_8 
REMARK    5  A    between atoms: C_9  and  C_10 
REMARK       I    between atoms: C_10  and  N_11 
REMARK    6  A    between atoms: N_11  and  C_12 
REMARK    7  A    between atoms: C_12  and  C_13 
ROOT
HETATM    1  C   UNL     1      42.332 -17.248   2.895  1.00  0.00     0.050 A 
HETATM    2  C   UNL     1      42.610 -16.906   4.239  1.00  0.00     0.058 A 
HETATM    3  C   UNL     1      43.681 -17.524   4.912  1.00  0.00     0.019 A 
HETATM    4  C   UNL     1      44.444 -18.504   4.281  1.00  0.00     0.001 A 
HETATM    5  C   UNL     1      44.151 -18.869   2.973  1.00  0.00     0.002 A 
HETATM    6  C   UNL     1      43.108 -18.242   2.285  1.00  0.00     0.030 A 
ENDROOT
BRANCH   1   7
HETATM    7  N   UNL     1      41.322 -16.546   2.186  1.00  0.00    -0.324 N 
HETATM    8  C   UNL     1      41.396 -15.270   1.658  1.00  0.00     0.246 C 
HETATM    9  O   UNL     1      42.429 -14.614   1.532  1.00  0.00    -0.271 OA
HETATM   10  H   UNL     1      40.450 -17.066   2.065  1.00  0.00     0.169 HD
BRANCH   8  11
HETATM   11  C   UNL     1      40.041 -14.710   1.222  1.00  0.00     0.278 C 
BRANCH  11  12
HETATM   12  O   UNL     1      40.082 -14.598  -0.196  1.00  0.00    -0.342 OA
BRANCH  12  13
HETATM   13  C   UNL     1      39.340 -13.620  -0.794  1.00  0.00     0.075 A 
HETATM   14  C   UNL     1      38.697 -13.991  -1.989  1.00  0.00    -0.029 A 
HETATM   15  C   UNL     1      38.793 -15.394  -2.523  1.00  0.00     0.051 C 
HETATM   16  C   UNL     1      37.895 -13.055  -2.661  1.00  0.00     0.009 A 
HETATM   17  C   UNL     1      37.758 -11.759  -2.170  1.00  0.00     0.001 A 
HETATM   18  C   UNL     1      38.416 -11.388  -1.000  1.00  0.00     0.003 A 
HETATM   19  C   UNL     1      39.205 -12.314  -0.312  1.00  0.00     0.037 A 
ENDBRANCH  12  13
ENDBRANCH  11  12
ENDBRANCH   8  11
ENDBRANCH   1   7
BRANCH   2  20
HETATM   20  C   UNL     1      41.771 -15.895   4.954  1.00  0.00     0.254 C 
HETATM   21  N   UNL     1      42.349 -14.670   5.183  1.00  0.00    -0.351 N 
HETATM   22  H   UNL     1      43.306 -14.478   4.915  1.00  0.00     0.163 HD
HETATM   23  O   UNL     1      40.642 -16.184   5.346  1.00  0.00    -0.268 OA
BRANCH  21  24
HETATM   24  C   UNL     1      41.632 -13.587   5.815  1.00  0.00     0.187 C 
BRANCH  24  25
HETATM   25  C   UNL     1      40.903 -12.824   4.770  1.00  0.00     0.070 A 
HETATM   26  O   UNL     1      41.662 -12.109   3.883  1.00  0.00    -0.325 OA
HETATM   27  C   UNL     1      40.803 -11.487   3.036  1.00  0.00     0.142 A 
HETATM   28  C   UNL     1      39.502 -11.788   3.362  1.00  0.00     0.027 A 
HETATM   29  C   UNL     1      39.564 -12.651   4.482  1.00  0.00     0.036 A 
ENDBRANCH  24  25
ENDBRANCH  21  24
ENDBRANCH   2  20
TORSDOF 7
ENDMDL
MODEL 9
REMARK VINA RESULT:      -7.6      3.814      6.052
REMARK  7 active torsions:
REMARK  status: ('A' for Active; 'I' for Inactive)
REMARK    1  A    between atoms: C_3  and  O_4 
REMARK    2  A    between atoms: O_4  and  C_5 
REMARK    3  A    between atoms: C_5  and  C_6 
REMARK       I    between atoms: C_6  and  N_7 
REMARK    4  A    between atoms: N_7  and  C_8 
REMARK    5  A    between atoms: C_9  and  C_10 
REMARK       I    between atoms: C_10  and  N_11 
REMARK    6  A    between atoms: N_11  and  C_12 
REMARK    7  A    between atoms: C_12  and  C_13 
ROOT
HETATM    1  C   UNL     1      44.354 -11.103   6.970  1.00  0.00     0.050 A 
HETATM    2  C   UNL     1      43.934  -9.985   7.727  1.00  0.00     0.058 A 
HETATM    3  C   UNL     1      44.891  -9.102   8.262  1.00  0.00     0.019 A 
HETATM    4  C   UNL     1      46.252  -9.344   8.092  1.00  0.00     0.001 A 
HETATM    5  C   UNL     1      46.669 -10.461   7.380  1.00  0.00     0.002 A 
HETATM    6  C   UNL     1      45.728 -11.329   6.819  1.00  0.00     0.030 A 
ENDROOT
BRANCH   1   7
HETATM    7  N   UNL     1      43.386 -11.929   6.340  1.00  0.00    -0.324 N 
HETATM    8  C   UNL     1      43.102 -13.255   6.617  1.00  0.00     0.246 C 
HETATM    9  O   UNL     1      43.496 -13.872   7.604  1.00  0.00    -0.271 OA
HETATM   10  H   UNL     1      42.853 -11.468   5.600  1.00  0.00     0.169 HD
BRANCH   8  11
HETATM   11  C   UNL     1      42.221 -13.923   5.560  1.00  0.00     0.278 C 
BRANCH  11  12
HETATM   12  O   UNL     1      43.061 -14.205   4.447  1.00  0.00    -0.342 OA
BRANCH  12  13
HETATM   13  C   UNL     1      43.218 -15.506   4.062  1.00  0.00     0.075 A 
HETATM   14  C   UNL     1      43.096 -15.750   2.681  1.00  0.00    -0.029 A 
HETATM   15  C   UNL     1      42.862 -14.626   1.709  1.00  0.00     0.051 C 
HETATM   16  C   UNL     1      43.263 -17.055   2.193  1.00  0.00     0.009 A 
HETATM   17  C   UNL     1      43.517 -18.109   3.067  1.00  0.00     0.001 A 
HETATM   18  C   UNL     1      43.613 -17.868   4.435  1.00  0.00     0.003 A 
HETATM   19  C   UNL     1      43.464 -16.571   4.933  1.00  0.00     0.037 A 
ENDBRANCH  12  13
ENDBRANCH  11  12
ENDBRANCH   8  11
ENDBRANCH   1   7
BRANCH   2  20
HETATM   20  C   UNL     1      42.479  -9.734   7.968  1.00  0.00     0.254 C 
HETATM   21  N   UNL     1      42.093  -9.577   9.277  1.00  0.00    -0.351 N 
HETATM   22  H   UNL     1      42.754  -9.665  10.038  1.00  0.00     0.163 HD
HETATM   23  O   UNL     1      41.684  -9.720   7.030  1.00  0.00    -0.268 OA
BRANCH  21  24
HETATM   24  C   UNL     1      40.728  -9.276   9.645  1.00  0.00     0.187 C 
BRANCH  24  25
HETATM   25  C   UNL     1      40.521  -9.660  11.064  1.00  0.00     0.070 A 
HETATM   26  O   UNL     1      41.562  -9.434  11.924  1.00  0.00    -0.325 OA
HETATM   27  C   UNL     1      41.165  -9.865  13.149  1.00  0.00     0.142 A 
HETATM   28  C   UNL     1      39.887 -10.367  13.093  1.00  0.00     0.027 A 
HETATM   29  C   UNL     1      39.468 -10.235  11.747  1.00  0.00     0.036 A 
ENDBRANCH  24  25
ENDBRANCH  21  24
ENDBRANCH   2  20
TORSDOF 7
ENDMDL
MODEL 10
REMARK VINA RESULT:      -7.6      2.415      5.542
REMARK  7 active torsions:
REMARK  status: ('A' for Active; 'I' for Inactive)
REMARK    1  A    between atoms: C_3  and  O_4 
REMARK    2  A    between atoms: O_4  and  C_5 
REMARK    3  A    between atoms: C_5  and  C_6 
REMARK       I    between atoms: C_6  and  N_7 
REMARK    4  A    between atoms: N_7  and  C_8 
REMARK    5  A    between atoms: C_9  and  C_10 
REMARK       I    between atoms: C_10  and  N_11 
REMARK    6  A    between atoms: N_11  and  C_12 
REMARK    7  A    between atoms: C_12  and  C_13 
ROOT
HETATM    1  C   UNL     1      40.959 -11.900   4.166  1.00  0.00     0.050 A 
HETATM    2  C   UNL     1      41.891 -10.855   4.359  1.00  0.00     0.058 A 
HETATM    3  C   UNL     1      41.489  -9.516   4.186  1.00  0.00     0.019 A 
HETATM    4  C   UNL     1      40.191  -9.213   3.781  1.00  0.00     0.001 A 
HETATM    5  C   UNL     1      39.283 -10.240   3.555  1.00  0.00     0.002 A 
HETATM    6  C   UNL     1      39.662 -11.571   3.752  1.00  0.00     0.030 A 
ENDROOT
BRANCH   1   7
HETATM    7  N   UNL     1      41.337 -13.239   4.447  1.00  0.00    -0.324 N 
HETATM    8  C   UNL     1      40.983 -14.002   5.546  1.00  0.00     0.246 C 
HETATM    9  O   UNL     1      40.104 -13.712   6.355  1.00  0.00    -0.271 OA
HETATM   10  H   UNL     1      41.942 -13.666   3.741  1.00  0.00     0.169 HD
BRANCH   8  11
HETATM   11  C   UNL     1      41.799 -15.288   5.685  1.00  0.00     0.278 C 
BRANCH  11  12
HETATM   12  O   UNL     1      42.695 -15.325   4.580  1.00  0.00    -0.342 OA
BRANCH  12  13
HETATM   13  C   UNL     1      43.130 -16.541   4.133  1.00  0.00     0.075 A 
HETATM   14  C   UNL     1      42.602 -16.958   2.897  1.00  0.00    -0.029 A 
HETATM   15  C   UNL     1      41.665 -16.079   2.113  1.00  0.00     0.051 C 
HETATM   16  C   UNL     1      43.010 -18.184   2.352  1.00  0.00     0.009 A 
HETATM   17  C   UNL     1      43.905 -19.001   3.038  1.00  0.00     0.001 A 
HETATM   18  C   UNL     1      44.405 -18.597   4.272  1.00  0.00     0.003 A 
HETATM   19  C   UNL     1      44.020 -17.370   4.820  1.00  0.00     0.037 A 
ENDBRANCH  12  13
ENDBRANCH  11  12
ENDBRANCH   8  11
ENDBRANCH   1   7
BRANCH   2  20
HETATM   20  C   UNL     1      43.305 -11.159   4.743  1.00  0.00     0.254 C 
HETATM   21  N   UNL     1      43.609 -11.075   6.081  1.00  0.00    -0.351 N 
HETATM   22  H   UNL     1      42.919 -10.786   6.762  1.00  0.00     0.163 HD
HETATM   23  O   UNL     1      44.143 -11.422   3.883  1.00  0.00    -0.268 OA
BRANCH  21  24
HETATM   24  C   UNL     1      44.922 -11.395   6.592  1.00  0.00     0.187 C 
BRANCH  24  25
HETATM   25  C   UNL     1      45.128 -10.665   7.868  1.00  0.00     0.070 A 
HETATM   26  O   UNL     1      44.389 -11.077   8.943  1.00  0.00    -0.325 OA
HETATM   27  C   UNL     1      44.722 -10.274   9.986  1.00  0.00     0.142 A 
HETATM   28  C   UNL     1      45.663  -9.349   9.601  1.00  0.00     0.027 A 
HETATM   29  C   UNL     1      45.927  -9.600   8.233  1.00  0.00     0.036 A 
ENDBRANCH  24  25
ENDBRANCH  21  24
ENDBRANCH   2  20
TORSDOF 7
ENDMDL
