MODEL 1
REMARK VINA RESULT:      -7.9      0.000      0.000
REMARK  7 active torsions:
REMARK  status: ('A' for Active; 'I' for Inactive)
REMARK    1  A    between atoms: C_2  and  C_3 
REMARK    2  A    between atoms: C_3  and  N_4 
REMARK       I    between atoms: N_4  and  C_5 
REMARK    3  A    between atoms: C_5  and  C_6 
REMARK    4  A    between atoms: C_7  and  N_8 
REMARK       I    between atoms: N_8  and  C_9 
REMARK    5  A    between atoms: C_9  and  C_10 
REMARK    6  A    between atoms: C_12  and  O_13 
REMARK    7  A    between atoms: O_13  and  C_14 
ROOT
HETATM    1  N   UNL     1      43.357 -16.321   2.886  1.00  0.00    -0.322 N 
HETATM    2  C   UNL     1      42.324 -15.547   3.388  1.00  0.00     0.256 C 
HETATM    3  O   UNL     1      41.462 -15.926   4.173  1.00  0.00    -0.267 OA
HETATM    4  H   UNL     1      44.205 -15.828   2.639  1.00  0.00     0.169 HD
ENDROOT
BRANCH   1   5
HETATM    5  C   UNL     1      43.466 -17.715   3.092  1.00  0.00     0.050 A 
HETATM    6  C   UNL     1      44.012 -18.321   4.238  1.00  0.00     0.058 A 
HETATM    7  C   UNL     1      44.152 -19.718   4.297  1.00  0.00     0.019 A 
HETATM    8  C   UNL     1      43.734 -20.515   3.232  1.00  0.00     0.001 A 
HETATM    9  C   UNL     1      43.145 -19.924   2.117  1.00  0.00     0.002 A 
HETATM   10  C   UNL     1      43.000 -18.535   2.053  1.00  0.00     0.030 A 
BRANCH   6  11
HETATM   11  C   UNL     1      44.267 -17.572   5.495  1.00  0.00     0.254 C 
HETATM   12  N   UNL     1      43.230 -17.596   6.405  1.00  0.00    -0.353 N 
HETATM   13  H   UNL     1      42.570 -18.357   6.314  1.00  0.00     0.163 HD
HETATM   14  O   UNL     1      45.319 -16.962   5.652  1.00  0.00    -0.268 OA
BRANCH  12  15
HETATM   15  C   UNL     1      43.405 -17.001   7.703  1.00  0.00     0.149 C 
BRANCH  15  16
HETATM   16  C   UNL     1      42.676 -15.695   7.714  1.00  0.00    -0.018 C 
HETATM   17  C   UNL     1      43.190 -14.530   7.297  1.00  0.00     0.008 C 
ENDBRANCH  15  16
ENDBRANCH  12  15
ENDBRANCH   6  11
ENDBRANCH   1   5
BRANCH   2  18
HETATM   18  C   UNL     1      42.384 -14.110   3.020  1.00  0.00     0.037 A 
HETATM   19  C   UNL     1      43.153 -13.256   3.807  1.00  0.00     0.075 A 
HETATM   20  C   UNL     1      43.195 -11.923   3.455  1.00  0.00     0.165 A 
HETATM   21  N   UNL     1      42.544 -11.400   2.396  1.00  0.00    -0.237 NA
HETATM   22  C   UNL     1      41.792 -12.249   1.662  1.00  0.00     0.120 A 
HETATM   23  C   UNL     1      41.678 -13.602   1.929  1.00  0.00     0.036 A 
BRANCH  20  24
HETATM   24  O   UNL     1      43.970 -11.100   4.248  1.00  0.00    -0.329 OA
BRANCH  24  25
HETATM   25  C   UNL     1      44.295 -11.603   5.560  1.00  0.00     0.130 C 
HETATM   26  C   UNL     1      45.706 -11.260   6.110  1.00  0.00     0.032 C 
HETATM   27  C   UNL     1      45.051 -11.010   7.479  1.00  0.00     0.005 C 
HETATM   28  C   UNL     1      43.732 -10.755   6.730  1.00  0.00     0.032 C 
ENDBRANCH  24  25
ENDBRANCH  20  24
ENDBRANCH   2  18
TORSDOF 7
ENDMDL
MODEL 2
REMARK VINA RESULT:      -7.8      2.405      4.604
REMARK  7 active torsions:
REMARK  status: ('A' for Active; 'I' for Inactive)
REMARK    1  A    between atoms: C_2  and  C_3 
REMARK    2  A    between atoms: C_3  and  N_4 
REMARK       I    between atoms: N_4  and  C_5 
REMARK    3  A    between atoms: C_5  and  C_6 
REMARK    4  A    between atoms: C_7  and  N_8 
REMARK       I    between atoms: N_8  and  C_9 
REMARK    5  A    between atoms: C_9  and  C_10 
REMARK    6  A    between atoms: C_12  and  O_13 
REMARK    7  A    between atoms: O_13  and  C_14 
ROOT
HETATM    1  N   UNL     1      43.030 -16.466   2.624  1.00  0.00    -0.322 N 
HETATM    2  C   UNL     1      41.802 -15.843   2.773  1.00  0.00     0.256 C 
HETATM    3  O   UNL     1      40.833 -16.304   3.366  1.00  0.00    -0.267 OA
HETATM    4  H   UNL     1      43.832 -15.855   2.534  1.00  0.00     0.169 HD
ENDROOT
BRANCH   1   5
HETATM    5  C   UNL     1      43.285 -17.802   3.008  1.00  0.00     0.050 A 
HETATM    6  C   UNL     1      43.751 -18.203   4.272  1.00  0.00     0.058 A 
HETATM    7  C   UNL     1      44.056 -19.554   4.515  1.00  0.00     0.019 A 
HETATM    8  C   UNL     1      43.881 -20.507   3.513  1.00  0.00     0.001 A 
HETATM    9  C   UNL     1      43.370 -20.124   2.276  1.00  0.00     0.002 A 
HETATM   10  C   UNL     1      43.062 -18.782   2.029  1.00  0.00     0.030 A 
BRANCH   6  11
HETATM   11  C   UNL     1      43.748 -17.299   5.452  1.00  0.00     0.254 C 
HETATM   12  N   UNL     1      42.500 -17.039   5.980  1.00  0.00    -0.353 N 
HETATM   13  H   UNL     1      41.775 -17.712   5.771  1.00  0.00     0.163 HD
HETATM   14  O   UNL     1      44.795 -16.814   5.864  1.00  0.00    -0.268 OA
BRANCH  12  15
HETATM   15  C   UNL     1      42.382 -16.268   7.188  1.00  0.00     0.149 C 
BRANCH  15  16
HETATM   16  C   UNL     1      42.047 -14.861   6.808  1.00  0.00    -0.018 C 
HETATM   17  C   UNL     1      40.859 -14.460   6.337  1.00  0.00     0.008 C 
ENDBRANCH  15  16
ENDBRANCH  12  15
ENDBRANCH   6  11
ENDBRANCH   1   5
BRANCH   2  18
HETATM   18  C   UNL     1      41.742 -14.448   2.269  1.00  0.00     0.037 A 
HETATM   19  C   UNL     1      41.114 -14.211   1.049  1.00  0.00     0.075 A 
HETATM   20  C   UNL     1      41.070 -12.910   0.592  1.00  0.00     0.165 A 
HETATM   21  N   UNL     1      41.592 -11.857   1.256  1.00  0.00    -0.237 NA
HETATM   22  C   UNL     1      42.210 -12.121   2.427  1.00  0.00     0.120 A 
HETATM   23  C   UNL     1      42.313 -13.388   2.975  1.00  0.00     0.036 A 
BRANCH  20  24
HETATM   24  O   UNL     1      40.435 -12.701  -0.616  1.00  0.00    -0.329 OA
BRANCH  24  25
HETATM   25  C   UNL     1      39.793 -13.852  -1.204  1.00  0.00     0.130 C 
HETATM   26  C   UNL     1      38.376 -13.632  -1.801  1.00  0.00     0.032 C 
HETATM   27  C   UNL     1      38.794 -14.531  -2.977  1.00  0.00     0.005 C 
HETATM   28  C   UNL     1      40.253 -14.176  -2.649  1.00  0.00     0.032 C 
ENDBRANCH  24  25
ENDBRANCH  20  24
ENDBRANCH   2  18
TORSDOF 7
ENDMDL
MODEL 3
REMARK VINA RESULT:      -7.3      2.223      3.922
REMARK  7 active torsions:
REMARK  status: ('A' for Active; 'I' for Inactive)
REMARK    1  A    between atoms: C_2  and  C_3 
REMARK    2  A    between atoms: C_3  and  N_4 
REMARK       I    between atoms: N_4  and  C_5 
REMARK    3  A    between atoms: C_5  and  C_6 
REMARK    4  A    between atoms: C_7  and  N_8 
REMARK       I    between atoms: N_8  and  C_9 
REMARK    5  A    between atoms: C_9  and  C_10 
REMARK    6  A    between atoms: C_12  and  O_13 
REMARK    7  A    between atoms: O_13  and  C_14 
ROOT
HETATM    1  N   UNL     1      43.474 -15.544   4.750  1.00  0.00    -0.322 N 
HETATM    2  C   UNL     1      42.334 -15.092   5.392  1.00  0.00     0.256 C 
HETATM    3  O   UNL     1      41.360 -15.777   5.685  1.00  0.00    -0.267 OA
HETATM    4  H   UNL     1      44.331 -15.048   4.960  1.00  0.00     0.169 HD
ENDROOT
BRANCH   1   5
HETATM    5  C   UNL     1      43.606 -16.839   4.199  1.00  0.00     0.050 A 
HETATM    6  C   UNL     1      43.125 -17.232   2.938  1.00  0.00     0.058 A 
HETATM    7  C   UNL     1      43.235 -18.573   2.529  1.00  0.00     0.019 A 
HETATM    8  C   UNL     1      43.836 -19.516   3.359  1.00  0.00     0.001 A 
HETATM    9  C   UNL     1      44.362 -19.122   4.586  1.00  0.00     0.002 A 
HETATM   10  C   UNL     1      44.259 -17.790   4.998  1.00  0.00     0.030 A 
BRANCH   6  11
HETATM   11  C   UNL     1      42.682 -16.256   1.909  1.00  0.00     0.254 C 
HETATM   12  N   UNL     1      41.317 -16.065   1.840  1.00  0.00    -0.353 N 
HETATM   13  H   UNL     1      40.788 -16.307   2.667  1.00  0.00     0.163 HD
HETATM   14  O   UNL     1      43.501 -15.716   1.173  1.00  0.00    -0.268 OA
BRANCH  12  15
HETATM   15  C   UNL     1      40.780 -15.062   0.960  1.00  0.00     0.149 C 
BRANCH  15  16
HETATM   16  C   UNL     1      40.534 -13.825   1.763  1.00  0.00    -0.018 C 
HETATM   17  C   UNL     1      39.482 -13.635   2.571  1.00  0.00     0.008 C 
ENDBRANCH  15  16
ENDBRANCH  12  15
ENDBRANCH   6  11
ENDBRANCH   1   5
BRANCH   2  18
HETATM   18  C   UNL     1      42.396 -13.685   5.862  1.00  0.00     0.037 A 
HETATM   19  C   UNL     1      43.426 -13.321   6.726  1.00  0.00     0.075 A 
HETATM   20  C   UNL     1      43.468 -12.012   7.157  1.00  0.00     0.165 A 
HETATM   21  N   UNL     1      42.579 -11.065   6.790  1.00  0.00    -0.237 NA
HETATM   22  C   UNL     1      41.582 -11.453   5.966  1.00  0.00     0.120 A 
HETATM   23  C   UNL     1      41.444 -12.740   5.477  1.00  0.00     0.036 A 
BRANCH  20  24
HETATM   24  O   UNL     1      44.503 -11.675   8.007  1.00  0.00    -0.329 OA
BRANCH  24  25
HETATM   25  C   UNL     1      44.345 -10.445   8.744  1.00  0.00     0.130 C 
HETATM   26  C   UNL     1      43.852 -10.569  10.211  1.00  0.00     0.032 C 
HETATM   27  C   UNL     1      44.870  -9.478  10.587  1.00  0.00     0.005 C 
HETATM   28  C   UNL     1      45.663  -9.875   9.332  1.00  0.00     0.032 C 
ENDBRANCH  24  25
ENDBRANCH  20  24
ENDBRANCH   2  18
TORSDOF 7
ENDMDL
MODEL 4
REMARK VINA RESULT:      -7.2      2.917      5.117
REMARK  7 active torsions:
REMARK  status: ('A' for Active; 'I' for Inactive)
REMARK    1  A    between atoms: C_2  and  C_3 
REMARK    2  A    between atoms: C_3  and  N_4 
REMARK       I    between atoms: N_4  and  C_5 
REMARK    3  A    between atoms: C_5  and  C_6 
REMARK    4  A    between atoms: C_7  and  N_8 
REMARK       I    between atoms: N_8  and  C_9 
REMARK    5  A    between atoms: C_9  and  C_10 
REMARK    6  A    between atoms: C_12  and  O_13 
REMARK    7  A    between atoms: O_13  and  C_14 
ROOT
HETATM    1  N   UNL     1      42.119 -15.730   2.975  1.00  0.00    -0.322 N 
HETATM    2  C   UNL     1      40.760 -15.534   3.157  1.00  0.00     0.256 C 
HETATM    3  O   UNL     1      40.012 -16.262   3.801  1.00  0.00    -0.267 OA
HETATM    4  H   UNL     1      42.676 -14.896   2.837  1.00  0.00     0.169 HD
ENDROOT
BRANCH   1   5
HETATM    5  C   UNL     1      42.807 -16.896   3.382  1.00  0.00     0.050 A 
HETATM    6  C   UNL     1      43.336 -17.113   4.666  1.00  0.00     0.058 A 
HETATM    7  C   UNL     1      44.080 -18.276   4.934  1.00  0.00     0.019 A 
HETATM    8  C   UNL     1      44.282 -19.229   3.937  1.00  0.00     0.001 A 
HETATM    9  C   UNL     1      43.715 -19.043   2.679  1.00  0.00     0.002 A 
HETATM   10  C   UNL     1      42.972 -17.891   2.407  1.00  0.00     0.030 A 
BRANCH   6  11
HETATM   11  C   UNL     1      42.978 -16.269   5.835  1.00  0.00     0.254 C 
HETATM   12  N   UNL     1      43.709 -15.105   5.956  1.00  0.00    -0.353 N 
HETATM   13  H   UNL     1      44.147 -14.761   5.112  1.00  0.00     0.163 HD
HETATM   14  O   UNL     1      42.118 -16.638   6.627  1.00  0.00    -0.268 OA
BRANCH  12  15
HETATM   15  C   UNL     1      43.375 -14.155   6.983  1.00  0.00     0.149 C 
BRANCH  15  16
HETATM   16  C   UNL     1      43.023 -12.862   6.320  1.00  0.00    -0.018 C 
HETATM   17  C   UNL     1      43.139 -12.620   5.008  1.00  0.00     0.008 C 
ENDBRANCH  15  16
ENDBRANCH  12  15
ENDBRANCH   6  11
ENDBRANCH   1   5
BRANCH   2  18
HETATM   18  C   UNL     1      40.235 -14.253   2.621  1.00  0.00     0.037 A 
HETATM   19  C   UNL     1      40.191 -14.082   1.240  1.00  0.00     0.075 A 
HETATM   20  C   UNL     1      39.704 -12.885   0.757  1.00  0.00     0.165 A 
HETATM   21  N   UNL     1      39.265 -11.877   1.538  1.00  0.00    -0.237 NA
HETATM   22  C   UNL     1      39.336 -12.066   2.874  1.00  0.00     0.120 A 
HETATM   23  C   UNL     1      39.810 -13.225   3.463  1.00  0.00     0.036 A 
BRANCH  20  24
HETATM   24  O   UNL     1      39.665 -12.744  -0.616  1.00  0.00    -0.329 OA
BRANCH  24  25
HETATM   25  C   UNL     1      39.068 -13.834  -1.350  1.00  0.00     0.130 C 
HETATM   26  C   UNL     1      37.875 -13.479  -2.280  1.00  0.00     0.032 C 
HETATM   27  C   UNL     1      38.471 -14.443  -3.319  1.00  0.00     0.005 C 
HETATM   28  C   UNL     1      39.834 -14.236  -2.638  1.00  0.00     0.032 C 
ENDBRANCH  24  25
ENDBRANCH  20  24
ENDBRANCH   2  18
TORSDOF 7
ENDMDL
MODEL 5
REMARK VINA RESULT:      -6.9      2.710      7.688
REMARK  7 active torsions:
REMARK  status: ('A' for Active; 'I' for Inactive)
REMARK    1  A    between atoms: C_2  and  C_3 
REMARK    2  A    between atoms: C_3  and  N_4 
REMARK       I    between atoms: N_4  and  C_5 
REMARK    3  A    between atoms: C_5  and  C_6 
REMARK    4  A    between atoms: C_7  and  N_8 
REMARK       I    between atoms: N_8  and  C_9 
REMARK    5  A    between atoms: C_9  and  C_10 
REMARK    6  A    between atoms: C_12  and  O_13 
REMARK    7  A    between atoms: O_13  and  C_14 
ROOT
HETATM    1  N   UNL     1      40.664 -13.604   4.874  1.00  0.00    -0.322 N 
HETATM    2  C   UNL     1      42.048 -13.601   4.922  1.00  0.00     0.256 C 
HETATM    3  O   UNL     1      42.775 -12.705   4.509  1.00  0.00    -0.267 OA
HETATM    4  H   UNL     1      40.193 -14.128   5.601  1.00  0.00     0.169 HD
ENDROOT
BRANCH   1   5
HETATM    5  C   UNL     1      39.898 -12.631   4.192  1.00  0.00     0.050 A 
HETATM    6  C   UNL     1      39.557 -12.683   2.829  1.00  0.00     0.058 A 
HETATM    7  C   UNL     1      38.865 -11.613   2.235  1.00  0.00     0.019 A 
HETATM    8  C   UNL     1      38.496 -10.503   2.994  1.00  0.00     0.001 A 
HETATM    9  C   UNL     1      38.785 -10.471   4.356  1.00  0.00     0.002 A 
HETATM   10  C   UNL     1      39.470 -11.532   4.953  1.00  0.00     0.030 A 
BRANCH   6  11
HETATM   11  C   UNL     1      39.708 -13.914   2.011  1.00  0.00     0.254 C 
HETATM   12  N   UNL     1      39.627 -13.718   0.648  1.00  0.00    -0.353 N 
HETATM   13  H   UNL     1      39.818 -12.782   0.317  1.00  0.00     0.163 HD
HETATM   14  O   UNL     1      39.852 -15.004   2.552  1.00  0.00    -0.268 OA
BRANCH  12  15
HETATM   15  C   UNL     1      39.869 -14.817  -0.247  1.00  0.00     0.149 C 
BRANCH  15  16
HETATM   16  C   UNL     1      39.203 -14.507  -1.550  1.00  0.00    -0.018 C 
HETATM   17  C   UNL     1      38.447 -13.426  -1.784  1.00  0.00     0.008 C 
ENDBRANCH  15  16
ENDBRANCH  12  15
ENDBRANCH   6  11
ENDBRANCH   1   5
BRANCH   2  18
HETATM   18  C   UNL     1      42.651 -14.737   5.662  1.00  0.00     0.037 A 
HETATM   19  C   UNL     1      43.312 -15.724   4.935  1.00  0.00     0.075 A 
HETATM   20  C   UNL     1      43.864 -16.776   5.637  1.00  0.00     0.165 A 
HETATM   21  N   UNL     1      43.808 -16.902   6.979  1.00  0.00    -0.237 NA
HETATM   22  C   UNL     1      43.146 -15.938   7.654  1.00  0.00     0.120 A 
HETATM   23  C   UNL     1      42.553 -14.844   7.050  1.00  0.00     0.036 A 
BRANCH  20  24
HETATM   24  O   UNL     1      44.520 -17.737   4.893  1.00  0.00    -0.329 OA
BRANCH  24  25
HETATM   25  C   UNL     1      43.737 -18.885   4.506  1.00  0.00     0.130 C 
HETATM   26  C   UNL     1      43.932 -19.407   3.057  1.00  0.00     0.032 C 
HETATM   27  C   UNL     1      43.885 -20.836   3.625  1.00  0.00     0.005 C 
HETATM   28  C   UNL     1      44.316 -20.245   4.977  1.00  0.00     0.032 C 
ENDBRANCH  24  25
ENDBRANCH  20  24
ENDBRANCH   2  18
TORSDOF 7
ENDMDL
MODEL 6
REMARK VINA RESULT:      -6.9      2.820      5.258
REMARK  7 active torsions:
REMARK  status: ('A' for Active; 'I' for Inactive)
REMARK    1  A    between atoms: C_2  and  C_3 
REMARK    2  A    between atoms: C_3  and  N_4 
REMARK       I    between atoms: N_4  and  C_5 
REMARK    3  A    between atoms: C_5  and  C_6 
REMARK    4  A    between atoms: C_7  and  N_8 
REMARK       I    between atoms: N_8  and  C_9 
REMARK    5  A    between atoms: C_9  and  C_10 
REMARK    6  A    between atoms: C_12  and  O_13 
REMARK    7  A    between atoms: O_13  and  C_14 
ROOT
HETATM    1  N   UNL     1      42.233 -12.897   5.260  1.00  0.00    -0.322 N 
HETATM    2  C   UNL     1      43.340 -12.133   4.933  1.00  0.00     0.256 C 
HETATM    3  O   UNL     1      43.715 -11.865   3.796  1.00  0.00    -0.267 OA
HETATM    4  H   UNL     1      41.786 -12.682   6.142  1.00  0.00     0.169 HD
ENDROOT
BRANCH   1   5
HETATM    5  C   UNL     1      41.464 -13.612   4.314  1.00  0.00     0.050 A 
HETATM    6  C   UNL     1      41.735 -14.921   3.878  1.00  0.00     0.058 A 
HETATM    7  C   UNL     1      40.952 -15.503   2.865  1.00  0.00     0.019 A 
HETATM    8  C   UNL     1      39.893 -14.796   2.299  1.00  0.00     0.001 A 
HETATM    9  C   UNL     1      39.588 -13.519   2.763  1.00  0.00     0.002 A 
HETATM   10  C   UNL     1      40.360 -12.936   3.772  1.00  0.00     0.030 A 
BRANCH   6  11
HETATM   11  C   UNL     1      42.688 -15.819   4.580  1.00  0.00     0.254 C 
HETATM   12  N   UNL     1      43.064 -16.938   3.866  1.00  0.00    -0.353 N 
HETATM   13  H   UNL     1      42.958 -16.886   2.862  1.00  0.00     0.163 HD
HETATM   14  O   UNL     1      43.054 -15.564   5.722  1.00  0.00    -0.268 OA
BRANCH  12  15
HETATM   15  C   UNL     1      44.068 -17.820   4.398  1.00  0.00     0.149 C 
BRANCH  15  16
HETATM   16  C   UNL     1      44.101 -19.049   3.546  1.00  0.00    -0.018 C 
HETATM   17  C   UNL     1      43.404 -19.212   2.413  1.00  0.00     0.008 C 
ENDBRANCH  15  16
ENDBRANCH  12  15
ENDBRANCH   6  11
ENDBRANCH   1   5
BRANCH   2  18
HETATM   18  C   UNL     1      44.024 -11.495   6.087  1.00  0.00     0.037 A 
HETATM   19  C   UNL     1      43.243 -10.861   7.050  1.00  0.00     0.075 A 
HETATM   20  C   UNL     1      43.893 -10.270   8.114  1.00  0.00     0.165 A 
HETATM   21  N   UNL     1      45.232 -10.276   8.280  1.00  0.00    -0.237 NA
HETATM   22  C   UNL     1      45.962 -10.884   7.320  1.00  0.00     0.120 A 
HETATM   23  C   UNL     1      45.414 -11.504   6.212  1.00  0.00     0.036 A 
BRANCH  20  24
HETATM   24  O   UNL     1      43.096  -9.654   9.058  1.00  0.00    -0.329 OA
BRANCH  24  25
HETATM   25  C   UNL     1      43.782  -9.061  10.180  1.00  0.00     0.130 C 
HETATM   26  C   UNL     1      43.091  -7.848  10.860  1.00  0.00     0.032 C 
HETATM   27  C   UNL     1      43.510  -8.440  12.216  1.00  0.00     0.005 C 
HETATM   28  C   UNL     1      43.585  -9.811  11.523  1.00  0.00     0.032 C 
ENDBRANCH  24  25
ENDBRANCH  20  24
ENDBRANCH   2  18
TORSDOF 7
ENDMDL
MODEL 7
REMARK VINA RESULT:      -6.8      3.276      7.719
REMARK  7 active torsions:
REMARK  status: ('A' for Active; 'I' for Inactive)
REMARK    1  A    between atoms: C_2  and  C_3 
REMARK    2  A    between atoms: C_3  and  N_4 
REMARK       I    between atoms: N_4  and  C_5 
REMARK    3  A    between atoms: C_5  and  C_6 
REMARK    4  A    between atoms: C_7  and  N_8 
REMARK       I    between atoms: N_8  and  C_9 
REMARK    5  A    between atoms: C_9  and  C_10 
REMARK    6  A    between atoms: C_12  and  O_13 
REMARK    7  A    between atoms: O_13  and  C_14 
ROOT
HETATM    1  N   UNL     1      43.386 -12.083   7.226  1.00  0.00    -0.322 N 
HETATM    2  C   UNL     1      42.920 -12.238   5.932  1.00  0.00     0.256 C 
HETATM    3  O   UNL     1      43.205 -11.521   4.978  1.00  0.00    -0.267 OA
HETATM    4  H   UNL     1      43.457 -12.927   7.780  1.00  0.00     0.169 HD
ENDROOT
BRANCH   1   5
HETATM    5  C   UNL     1      44.141 -10.970   7.662  1.00  0.00     0.050 A 
HETATM    6  C   UNL     1      43.599  -9.786   8.192  1.00  0.00     0.058 A 
HETATM    7  C   UNL     1      44.442  -8.707   8.512  1.00  0.00     0.019 A 
HETATM    8  C   UNL     1      45.819  -8.808   8.325  1.00  0.00     0.001 A 
HETATM    9  C   UNL     1      46.366  -9.997   7.850  1.00  0.00     0.002 A 
HETATM   10  C   UNL     1      45.534 -11.075   7.533  1.00  0.00     0.030 A 
BRANCH   6  11
HETATM   11  C   UNL     1      42.184  -9.679   8.633  1.00  0.00     0.254 C 
HETATM   12  N   UNL     1      42.003  -9.653  10.001  1.00  0.00    -0.353 N 
HETATM   13  H   UNL     1      42.800  -9.366  10.554  1.00  0.00     0.163 HD
HETATM   14  O   UNL     1      41.278  -9.658   7.808  1.00  0.00    -0.268 OA
BRANCH  12  15
HETATM   15  C   UNL     1      40.688  -9.439  10.543  1.00  0.00     0.149 C 
BRANCH  15  16
HETATM   16  C   UNL     1      40.761  -9.640  12.023  1.00  0.00    -0.018 C 
HETATM   17  C   UNL     1      41.871  -9.972  12.696  1.00  0.00     0.008 C 
ENDBRANCH  15  16
ENDBRANCH  12  15
ENDBRANCH   6  11
ENDBRANCH   1   5
BRANCH   2  18
HETATM   18  C   UNL     1      42.117 -13.464   5.698  1.00  0.00     0.037 A 
HETATM   19  C   UNL     1      42.511 -14.330   4.681  1.00  0.00     0.075 A 
HETATM   20  C   UNL     1      41.752 -15.463   4.474  1.00  0.00     0.165 A 
HETATM   21  N   UNL     1      40.660 -15.785   5.198  1.00  0.00    -0.237 NA
HETATM   22  C   UNL     1      40.293 -14.916   6.165  1.00  0.00     0.120 A 
HETATM   23  C   UNL     1      40.979 -13.751   6.455  1.00  0.00     0.036 A 
BRANCH  20  24
HETATM   24  O   UNL     1      42.169 -16.308   3.465  1.00  0.00    -0.329 OA
BRANCH  24  25
HETATM   25  C   UNL     1      43.455 -16.934   3.650  1.00  0.00     0.130 C 
HETATM   26  C   UNL     1      43.623 -17.826   4.910  1.00  0.00     0.032 C 
HETATM   27  C   UNL     1      44.397 -18.824   4.032  1.00  0.00     0.005 C 
HETATM   28  C   UNL     1      43.666 -18.227   2.819  1.00  0.00     0.032 C 
ENDBRANCH  24  25
ENDBRANCH  20  24
ENDBRANCH   2  18
TORSDOF 7
ENDMDL
MODEL 8
REMARK VINA RESULT:      -6.7      2.087      2.746
REMARK  7 active torsions:
REMARK  status: ('A' for Active; 'I' for Inactive)
REMARK    1  A    between atoms: C_2  and  C_3 
REMARK    2  A    between atoms: C_3  and  N_4 
REMARK       I    between atoms: N_4  and  C_5 
REMARK    3  A    between atoms: C_5  and  C_6 
REMARK    4  A    between atoms: C_7  and  N_8 
REMARK       I    between atoms: N_8  and  C_9 
REMARK    5  A    between atoms: C_9  and  C_10 
REMARK    6  A    between atoms: C_12  and  O_13 
REMARK    7  A    between atoms: O_13  and  C_14 
ROOT
HETATM    1  N   UNL     1      41.927 -16.433   2.552  1.00  0.00    -0.322 N 
HETATM    2  C   UNL     1      42.471 -15.347   1.888  1.00  0.00     0.256 C 
HETATM    3  O   UNL     1      43.650 -15.216   1.577  1.00  0.00    -0.267 OA
HETATM    4  H   UNL     1      40.955 -16.634   2.358  1.00  0.00     0.169 HD
ENDROOT
BRANCH   1   5
HETATM    5  C   UNL     1      42.697 -17.482   3.107  1.00  0.00     0.050 A 
HETATM    6  C   UNL     1      43.198 -17.507   4.420  1.00  0.00     0.058 A 
HETATM    7  C   UNL     1      44.028 -18.562   4.837  1.00  0.00     0.019 A 
HETATM    8  C   UNL     1      44.343 -19.600   3.962  1.00  0.00     0.001 A 
HETATM    9  C   UNL     1      43.806 -19.607   2.677  1.00  0.00     0.002 A 
HETATM   10  C   UNL     1      42.978 -18.562   2.256  1.00  0.00     0.030 A 
BRANCH   6  11
HETATM   11  C   UNL     1      42.730 -16.571   5.475  1.00  0.00     0.254 C 
HETATM   12  N   UNL     1      43.731 -15.865   6.110  1.00  0.00    -0.353 N 
HETATM   13  H   UNL     1      44.604 -15.773   5.608  1.00  0.00     0.163 HD
HETATM   14  O   UNL     1      41.539 -16.495   5.753  1.00  0.00    -0.268 OA
BRANCH  12  15
HETATM   15  C   UNL     1      43.391 -14.850   7.070  1.00  0.00     0.149 C 
BRANCH  15  16
HETATM   16  C   UNL     1      43.431 -13.526   6.376  1.00  0.00    -0.018 C 
HETATM   17  C   UNL     1      43.874 -12.388   6.927  1.00  0.00     0.008 C 
ENDBRANCH  15  16
ENDBRANCH  12  15
ENDBRANCH   6  11
ENDBRANCH   1   5
BRANCH   2  18
HETATM   18  C   UNL     1      41.485 -14.343   1.417  1.00  0.00     0.037 A 
HETATM   19  C   UNL     1      41.319 -13.178   2.163  1.00  0.00     0.075 A 
HETATM   20  C   UNL     1      40.395 -12.257   1.715  1.00  0.00     0.165 A 
HETATM   21  N   UNL     1      39.652 -12.411   0.600  1.00  0.00    -0.237 NA
HETATM   22  C   UNL     1      39.823 -13.558  -0.092  1.00  0.00     0.120 A 
HETATM   23  C   UNL     1      40.718 -14.549   0.270  1.00  0.00     0.036 A 
BRANCH  20  24
HETATM   24  O   UNL     1      40.255 -11.108   2.469  1.00  0.00    -0.329 OA
BRANCH  24  25
HETATM   25  C   UNL     1      40.851 -11.132   3.782  1.00  0.00     0.130 C 
HETATM   26  C   UNL     1      41.950 -10.074   4.070  1.00  0.00     0.032 C 
HETATM   27  C   UNL     1      41.329  -9.890   5.465  1.00  0.00     0.005 C 
HETATM   28  C   UNL     1      40.012 -10.428   4.881  1.00  0.00     0.032 C 
ENDBRANCH  24  25
ENDBRANCH  20  24
ENDBRANCH   2  18
TORSDOF 7
ENDMDL
MODEL 9
REMARK VINA RESULT:      -6.7      3.525      8.227
REMARK  7 active torsions:
REMARK  status: ('A' for Active; 'I' for Inactive)
REMARK    1  A    between atoms: C_2  and  C_3 
REMARK    2  A    between atoms: C_3  and  N_4 
REMARK       I    between atoms: N_4  and  C_5 
REMARK    3  A    between atoms: C_5  and  C_6 
REMARK    4  A    between atoms: C_7  and  N_8 
REMARK       I    between atoms: N_8  and  C_9 
REMARK    5  A    between atoms: C_9  and  C_10 
REMARK    6  A    between atoms: C_12  and  O_13 
REMARK    7  A    between atoms: O_13  and  C_14 
ROOT
HETATM    1  N   UNL     1      40.875 -14.347   0.133  1.00  0.00    -0.322 N 
HETATM    2  C   UNL     1      40.514 -14.387   1.469  1.00  0.00     0.256 C 
HETATM    3  O   UNL     1      39.405 -14.119   1.919  1.00  0.00    -0.267 OA
HETATM    4  H   UNL     1      41.609 -14.982  -0.151  1.00  0.00     0.169 HD
ENDROOT
BRANCH   1   5
HETATM    5  C   UNL     1      40.045 -13.834  -0.891  1.00  0.00     0.050 A 
HETATM    6  C   UNL     1      39.919 -12.474  -1.221  1.00  0.00     0.058 A 
HETATM    7  C   UNL     1      38.995 -12.070  -2.201  1.00  0.00     0.019 A 
HETATM    8  C   UNL     1      38.213 -13.013  -2.865  1.00  0.00     0.001 A 
HETATM    9  C   UNL     1      38.371 -14.366  -2.579  1.00  0.00     0.002 A 
HETATM   10  C   UNL     1      39.290 -14.775  -1.608  1.00  0.00     0.030 A 
BRANCH   6  11
HETATM   11  C   UNL     1      40.866 -11.439  -0.732  1.00  0.00     0.254 C 
HETATM   12  N   UNL     1      41.227 -10.493  -1.670  1.00  0.00    -0.353 N 
HETATM   13  H   UNL     1      40.596 -10.370  -2.450  1.00  0.00     0.163 HD
HETATM   14  O   UNL     1      41.297 -11.485   0.414  1.00  0.00    -0.268 OA
BRANCH  12  15
HETATM   15  C   UNL     1      42.050  -9.380  -1.281  1.00  0.00     0.149 C 
BRANCH  15  16
HETATM   16  C   UNL     1      41.879  -8.300  -2.302  1.00  0.00    -0.018 C 
HETATM   17  C   UNL     1      41.505  -8.502  -3.572  1.00  0.00     0.008 C 
ENDBRANCH  15  16
ENDBRANCH  12  15
ENDBRANCH   6  11
ENDBRANCH   1   5
BRANCH   2  18
HETATM   18  C   UNL     1      41.551 -14.931   2.381  1.00  0.00     0.037 A 
HETATM   19  C   UNL     1      42.236 -16.080   1.993  1.00  0.00     0.075 A 
HETATM   20  C   UNL     1      43.193 -16.576   2.854  1.00  0.00     0.165 A 
HETATM   21  N   UNL     1      43.509 -16.015   4.039  1.00  0.00    -0.237 NA
HETATM   22  C   UNL     1      42.815 -14.912   4.395  1.00  0.00     0.120 A 
HETATM   23  C   UNL     1      41.833 -14.334   3.610  1.00  0.00     0.036 A 
BRANCH  20  24
HETATM   24  O   UNL     1      43.863 -17.712   2.442  1.00  0.00    -0.329 OA
BRANCH  24  25
HETATM   25  C   UNL     1      43.315 -18.969   2.890  1.00  0.00     0.130 C 
HETATM   26  C   UNL     1      43.656 -20.222   2.037  1.00  0.00     0.032 C 
HETATM   27  C   UNL     1      43.847 -20.996   3.352  1.00  0.00     0.005 C 
HETATM   28  C   UNL     1      44.113 -19.645   4.036  1.00  0.00     0.032 C 
ENDBRANCH  24  25
ENDBRANCH  20  24
ENDBRANCH   2  18
TORSDOF 7
ENDMDL
MODEL 10
REMARK VINA RESULT:      -6.5      2.763      7.829
REMARK  7 active torsions:
REMARK  status: ('A' for Active; 'I' for Inactive)
REMARK    1  A    between atoms: C_2  and  C_3 
REMARK    2  A    between atoms: C_3  and  N_4 
REMARK       I    between atoms: N_4  and  C_5 
REMARK    3  A    between atoms: C_5  and  C_6 
REMARK    4  A    between atoms: C_7  and  N_8 
REMARK       I    between atoms: N_8  and  C_9 
REMARK    5  A    between atoms: C_9  and  C_10 
REMARK    6  A    between atoms: C_12  and  O_13 
REMARK    7  A    between atoms: O_13  and  C_14 
ROOT
HETATM    1  N   UNL     1      43.555 -12.053   7.836  1.00  0.00    -0.322 N 
HETATM    2  C   UNL     1      43.559 -12.577   6.554  1.00  0.00     0.256 C 
HETATM    3  O   UNL     1      43.977 -12.009   5.551  1.00  0.00    -0.267 OA
HETATM    4  H   UNL     1      43.618 -12.723   8.592  1.00  0.00     0.169 HD
ENDROOT
BRANCH   1   5
HETATM    5  C   UNL     1      43.892 -10.714   8.140  1.00  0.00     0.050 A 
HETATM    6  C   UNL     1      43.065  -9.602   7.907  1.00  0.00     0.058 A 
HETATM    7  C   UNL     1      43.540  -8.304   8.167  1.00  0.00     0.019 A 
HETATM    8  C   UNL     1      44.823  -8.112   8.675  1.00  0.00     0.001 A 
HETATM    9  C   UNL     1      45.627  -9.213   8.957  1.00  0.00     0.002 A 
HETATM   10  C   UNL     1      45.160 -10.506   8.703  1.00  0.00     0.030 A 
BRANCH   6  11
HETATM   11  C   UNL     1      41.620  -9.730   7.587  1.00  0.00     0.254 C 
HETATM   12  N   UNL     1      41.340 -10.014   6.266  1.00  0.00    -0.353 N 
HETATM   13  H   UNL     1      42.086 -10.438   5.731  1.00  0.00     0.163 HD
HETATM   14  O   UNL     1      40.774  -9.549   8.456  1.00  0.00    -0.268 OA
BRANCH  12  15
HETATM   15  C   UNL     1      39.984 -10.270   5.862  1.00  0.00     0.149 C 
BRANCH  15  16
HETATM   16  C   UNL     1      39.776 -11.752   5.854  1.00  0.00    -0.018 C 
HETATM   17  C   UNL     1      39.803 -12.521   4.758  1.00  0.00     0.008 C 
ENDBRANCH  15  16
ENDBRANCH  12  15
ENDBRANCH   6  11
ENDBRANCH   1   5
BRANCH   2  18
HETATM   18  C   UNL     1      43.136 -13.996   6.456  1.00  0.00     0.037 A 
HETATM   19  C   UNL     1      42.778 -14.495   5.206  1.00  0.00     0.075 A 
HETATM   20  C   UNL     1      42.383 -15.815   5.132  1.00  0.00     0.165 A 
HETATM   21  N   UNL     1      42.329 -16.649   6.191  1.00  0.00    -0.237 NA
HETATM   22  C   UNL     1      42.666 -16.131   7.392  1.00  0.00     0.120 A 
HETATM   23  C   UNL     1      43.073 -14.822   7.579  1.00  0.00     0.036 A 
BRANCH  20  24
HETATM   24  O   UNL     1      42.039 -16.287   3.880  1.00  0.00    -0.329 OA
BRANCH  24  25
HETATM   25  C   UNL     1      41.588 -15.299   2.930  1.00  0.00     0.130 C 
HETATM   26  C   UNL     1      42.159 -15.403   1.490  1.00  0.00     0.032 C 
HETATM   27  C   UNL     1      40.750 -15.073   0.968  1.00  0.00     0.005 C 
HETATM   28  C   UNL     1      40.200 -15.597   2.305  1.00  0.00     0.032 C 
ENDBRANCH  24  25
ENDBRANCH  20  24
ENDBRANCH   2  18
TORSDOF 7
ENDMDL
