MODEL 1
REMARK VINA RESULT:      -9.0      0.000      0.000
REMARK  6 active torsions:
REMARK  status: ('A' for Active; 'I' for Inactive)
REMARK    1  A    between atoms: O_2  and  C_3 
REMARK    2  A    between atoms: C_6  and  C_7 
REMARK    3  A    between atoms: C_7  and  N_8 
REMARK       I    between atoms: N_8  and  C_9 
REMARK    4  A    between atoms: C_9  and  C_10 
REMARK    5  A    between atoms: C_10  and  O_11 
REMARK    6  A    between atoms: N_12  and  C_13 
ROOT
HETATM    1  C   UNL     1      40.045 -13.433   2.215  1.00  0.00     0.256 C 
HETATM    2  N   UNL     1      40.140 -12.455   1.126  1.00  0.00    -0.248 N 
HETATM    3  C   UNL     1      41.187 -11.550   1.096  1.00  0.00     0.330 C 
HETATM    4  O   UNL     1      41.584 -10.979   0.081  1.00  0.00    -0.246 OA
HETATM    5  N   UNL     1      41.840 -11.309   2.269  1.00  0.00    -0.308 N 
HETATM    6  C   UNL     1      41.483 -11.844   3.500  1.00  0.00     0.048 A 
HETATM    7  C   UNL     1      40.550 -12.875   3.533  1.00  0.00     0.034 A 
HETATM    8  C   UNL     1      42.058 -11.349   4.670  1.00  0.00     0.030 A 
HETATM    9  C   UNL     1      41.686 -11.886   5.902  1.00  0.00     0.002 A 
HETATM   10  C   UNL     1      40.752 -12.918   5.958  1.00  0.00     0.001 A 
HETATM   11  C   UNL     1      40.192 -13.416   4.780  1.00  0.00     0.015 A 
HETATM   12  H   UNL     1      42.536 -10.577   2.218  1.00  0.00     0.170 HD
ENDROOT
BRANCH   1  13
HETATM   13  C   UNL     1      40.833 -14.776   1.914  1.00  0.00     0.279 C 
HETATM   14  N   UNL     1      42.213 -14.748   1.957  1.00  0.00    -0.352 N 
HETATM   15  H   UNL     1      42.681 -13.852   1.903  1.00  0.00     0.162 HD
HETATM   16  O   UNL     1      40.207 -15.822   1.709  1.00  0.00    -0.268 OA
BRANCH  14  17
HETATM   17  C   UNL     1      42.952 -15.907   1.515  1.00  0.00     0.161 C 
BRANCH  17  18
HETATM   18  C   UNL     1      43.311 -16.829   2.648  1.00  0.00    -0.040 A 
HETATM   19  C   UNL     1      43.399 -16.340   3.959  1.00  0.00     0.011 A 
HETATM   20  C   UNL     1      43.643 -17.205   5.031  1.00  0.00     0.037 A 
HETATM   21  C   UNL     1      43.800 -18.572   4.806  1.00  0.00     0.068 A 
HETATM   22  C   UNL     1      43.751 -19.058   3.500  1.00  0.00     0.037 A 
HETATM   23  C   UNL     1      43.504 -18.197   2.427  1.00  0.00     0.011 A 
BRANCH  21  24
HETATM   24  O   UNL     1      44.010 -19.523   5.767  1.00  0.00    -0.356 OA
HETATM   25  C   UNL     1      44.253 -20.846   5.304  1.00  0.00     0.210 C 
ENDBRANCH  21  24
ENDBRANCH  17  18
ENDBRANCH  14  17
ENDBRANCH   1  13
BRANCH   1  26
HETATM   26  O   UNL     1      38.657 -13.730   2.429  1.00  0.00    -0.359 OA
HETATM   27  H   UNL     1      38.350 -14.109   1.582  1.00  0.00     0.213 HD
ENDBRANCH   1  26
BRANCH   2  28
HETATM   28  C   UNL     1      39.213 -12.487   0.026  1.00  0.00     0.120 A 
HETATM   29  C   UNL     1      38.143 -11.592  -0.101  1.00  0.00     0.146 A 
HETATM   30  F   UNL     1      37.891 -10.681   0.849  1.00  0.00    -0.204 F 
HETATM   31  C   UNL     1      37.264 -11.637  -1.186  1.00  0.00     0.045 A 
HETATM   32  C   UNL     1      37.448 -12.578  -2.194  1.00  0.00     0.006 A 
HETATM   33  C   UNL     1      38.515 -13.467  -2.110  1.00  0.00     0.045 A 
HETATM   34  C   UNL     1      39.381 -13.417  -1.014  1.00  0.00     0.146 A 
HETATM   35  F   UNL     1      40.444 -14.236  -1.034  1.00  0.00    -0.204 F 
ENDBRANCH   2  28
TORSDOF 6
ENDMDL
MODEL 2
REMARK VINA RESULT:      -8.8      0.308      1.713
REMARK  6 active torsions:
REMARK  status: ('A' for Active; 'I' for Inactive)
REMARK    1  A    between atoms: O_2  and  C_3 
REMARK    2  A    between atoms: C_6  and  C_7 
REMARK    3  A    between atoms: C_7  and  N_8 
REMARK       I    between atoms: N_8  and  C_9 
REMARK    4  A    between atoms: C_9  and  C_10 
REMARK    5  A    between atoms: C_10  and  O_11 
REMARK    6  A    between atoms: N_12  and  C_13 
ROOT
HETATM    1  C   UNL     1      40.086 -13.352   2.257  1.00  0.00     0.256 C 
HETATM    2  N   UNL     1      40.189 -12.303   1.237  1.00  0.00    -0.248 N 
HETATM    3  C   UNL     1      41.251 -11.416   1.259  1.00  0.00     0.330 C 
HETATM    4  O   UNL     1      41.649 -10.783   0.281  1.00  0.00    -0.246 OA
HETATM    5  N   UNL     1      41.917 -11.266   2.439  1.00  0.00    -0.308 N 
HETATM    6  C   UNL     1      41.563 -11.879   3.634  1.00  0.00     0.048 A 
HETATM    7  C   UNL     1      40.612 -12.893   3.606  1.00  0.00     0.034 A 
HETATM    8  C   UNL     1      42.157 -11.474   4.829  1.00  0.00     0.030 A 
HETATM    9  C   UNL     1      41.786 -12.087   6.025  1.00  0.00     0.002 A 
HETATM   10  C   UNL     1      40.834 -13.105   6.020  1.00  0.00     0.001 A 
HETATM   11  C   UNL     1      40.255 -13.512   4.816  1.00  0.00     0.015 A 
HETATM   12  H   UNL     1      42.626 -10.544   2.430  1.00  0.00     0.170 HD
ENDROOT
BRANCH   1  13
HETATM   13  C   UNL     1      40.848 -14.684   1.858  1.00  0.00     0.279 C 
HETATM   14  N   UNL     1      42.225 -14.706   1.965  1.00  0.00    -0.352 N 
HETATM   15  H   UNL     1      42.721 -13.826   2.023  1.00  0.00     0.162 HD
HETATM   16  O   UNL     1      40.203 -15.683   1.520  1.00  0.00    -0.268 OA
BRANCH  14  17
HETATM   17  C   UNL     1      42.950 -15.840   1.442  1.00  0.00     0.161 C 
BRANCH  17  18
HETATM   18  C   UNL     1      43.227 -16.882   2.491  1.00  0.00    -0.040 A 
HETATM   19  C   UNL     1      43.344 -18.233   2.136  1.00  0.00     0.011 A 
HETATM   20  C   UNL     1      43.691 -19.196   3.090  1.00  0.00     0.037 A 
HETATM   21  C   UNL     1      43.927 -18.820   4.411  1.00  0.00     0.068 A 
HETATM   22  C   UNL     1      43.774 -17.483   4.777  1.00  0.00     0.037 A 
HETATM   23  C   UNL     1      43.431 -16.517   3.827  1.00  0.00     0.011 A 
BRANCH  21  24
HETATM   24  O   UNL     1      44.301 -19.656   5.428  1.00  0.00    -0.356 OA
HETATM   25  C   UNL     1      43.956 -21.028   5.277  1.00  0.00     0.210 C 
ENDBRANCH  21  24
ENDBRANCH  17  18
ENDBRANCH  14  17
ENDBRANCH   1  13
BRANCH   1  26
HETATM   26  O   UNL     1      38.695 -13.639   2.465  1.00  0.00    -0.359 OA
HETATM   27  H   UNL     1      38.222 -13.009   1.887  1.00  0.00     0.213 HD
ENDBRANCH   1  26
BRANCH   2  28
HETATM   28  C   UNL     1      39.252 -12.245   0.146  1.00  0.00     0.120 A 
HETATM   29  C   UNL     1      39.327 -13.082  -0.975  1.00  0.00     0.146 A 
HETATM   30  F   UNL     1      40.333 -13.955  -1.116  1.00  0.00    -0.204 F 
HETATM   31  C   UNL     1      38.396 -13.012  -2.015  1.00  0.00     0.045 A 
HETATM   32  C   UNL     1      37.342 -12.106  -1.948  1.00  0.00     0.006 A 
HETATM   33  C   UNL     1      37.226 -11.276  -0.838  1.00  0.00     0.045 A 
HETATM   34  C   UNL     1      38.169 -11.349   0.191  1.00  0.00     0.146 A 
HETATM   35  F   UNL     1      37.954 -10.592   1.278  1.00  0.00    -0.204 F 
ENDBRANCH   2  28
TORSDOF 6
ENDMDL
MODEL 3
REMARK VINA RESULT:      -8.8      3.017      5.402
REMARK  6 active torsions:
REMARK  status: ('A' for Active; 'I' for Inactive)
REMARK    1  A    between atoms: O_2  and  C_3 
REMARK    2  A    between atoms: C_6  and  C_7 
REMARK    3  A    between atoms: C_7  and  N_8 
REMARK       I    between atoms: N_8  and  C_9 
REMARK    4  A    between atoms: C_9  and  C_10 
REMARK    5  A    between atoms: C_10  and  O_11 
REMARK    6  A    between atoms: N_12  and  C_13 
ROOT
HETATM    1  C   UNL     1      42.175 -14.016   2.534  1.00  0.00     0.256 C 
HETATM    2  N   UNL     1      40.840 -13.711   2.008  1.00  0.00    -0.248 N 
HETATM    3  C   UNL     1      39.741 -13.739   2.849  1.00  0.00     0.330 C 
HETATM    4  O   UNL     1      38.687 -13.141   2.636  1.00  0.00    -0.246 OA
HETATM    5  N   UNL     1      39.857 -14.449   4.008  1.00  0.00    -0.308 N 
HETATM    6  C   UNL     1      40.965 -15.206   4.367  1.00  0.00     0.048 A 
HETATM    7  C   UNL     1      42.135 -15.065   3.629  1.00  0.00     0.034 A 
HETATM    8  C   UNL     1      40.890 -16.084   5.448  1.00  0.00     0.030 A 
HETATM    9  C   UNL     1      42.004 -16.847   5.794  1.00  0.00     0.002 A 
HETATM   10  C   UNL     1      43.186 -16.723   5.068  1.00  0.00     0.001 A 
HETATM   11  C   UNL     1      43.255 -15.831   3.996  1.00  0.00     0.015 A 
HETATM   12  H   UNL     1      39.003 -14.515   4.545  1.00  0.00     0.170 HD
ENDROOT
BRANCH   1  13
HETATM   13  C   UNL     1      42.925 -12.739   3.101  1.00  0.00     0.279 C 
HETATM   14  N   UNL     1      42.310 -12.010   4.101  1.00  0.00    -0.352 N 
HETATM   15  H   UNL     1      41.317 -12.134   4.248  1.00  0.00     0.162 HD
HETATM   16  O   UNL     1      44.055 -12.456   2.687  1.00  0.00    -0.268 OA
BRANCH  14  17
HETATM   17  C   UNL     1      42.888 -10.750   4.506  1.00  0.00     0.161 C 
BRANCH  17  18
HETATM   18  C   UNL     1      43.567 -10.832   5.846  1.00  0.00    -0.040 A 
HETATM   19  C   UNL     1      44.874 -11.328   5.949  1.00  0.00     0.011 A 
HETATM   20  C   UNL     1      45.547 -11.324   7.176  1.00  0.00     0.037 A 
HETATM   21  C   UNL     1      44.920 -10.822   8.316  1.00  0.00     0.068 A 
HETATM   22  C   UNL     1      43.606 -10.363   8.226  1.00  0.00     0.037 A 
HETATM   23  C   UNL     1      42.932 -10.363   7.001  1.00  0.00     0.011 A 
BRANCH  21  24
HETATM   24  O   UNL     1      45.476 -10.733   9.563  1.00  0.00    -0.356 OA
HETATM   25  C   UNL     1      44.831  -9.861  10.483  1.00  0.00     0.210 C 
ENDBRANCH  21  24
ENDBRANCH  17  18
ENDBRANCH  14  17
ENDBRANCH   1  13
BRANCH   1  26
HETATM   26  O   UNL     1      42.951 -14.595   1.474  1.00  0.00    -0.359 OA
HETATM   27  H   UNL     1      42.579 -14.213   0.655  1.00  0.00     0.213 HD
ENDBRANCH   1  26
BRANCH   2  28
HETATM   28  C   UNL     1      40.666 -13.283   0.645  1.00  0.00     0.120 A 
HETATM   29  C   UNL     1      41.011 -12.002   0.194  1.00  0.00     0.146 A 
HETATM   30  F   UNL     1      41.473 -11.074   1.043  1.00  0.00    -0.204 F 
HETATM   31  C   UNL     1      40.842 -11.616  -1.138  1.00  0.00     0.045 A 
HETATM   32  C   UNL     1      40.338 -12.519  -2.068  1.00  0.00     0.006 A 
HETATM   33  C   UNL     1      40.008 -13.807  -1.657  1.00  0.00     0.045 A 
HETATM   34  C   UNL     1      40.172 -14.177  -0.320  1.00  0.00     0.146 A 
HETATM   35  F   UNL     1      39.925 -15.458  -0.002  1.00  0.00    -0.204 F 
ENDBRANCH   2  28
TORSDOF 6
ENDMDL
MODEL 4
REMARK VINA RESULT:      -8.7      2.706      7.309
REMARK  6 active torsions:
REMARK  status: ('A' for Active; 'I' for Inactive)
REMARK    1  A    between atoms: O_2  and  C_3 
REMARK    2  A    between atoms: C_6  and  C_7 
REMARK    3  A    between atoms: C_7  and  N_8 
REMARK       I    between atoms: N_8  and  C_9 
REMARK    4  A    between atoms: C_9  and  C_10 
REMARK    5  A    between atoms: C_10  and  O_11 
REMARK    6  A    between atoms: N_12  and  C_13 
ROOT
HETATM    1  C   UNL     1      42.294 -14.399   3.048  1.00  0.00     0.256 C 
HETATM    2  N   UNL     1      42.195 -15.545   3.959  1.00  0.00    -0.248 N 
HETATM    3  C   UNL     1      41.449 -15.444   5.120  1.00  0.00     0.330 C 
HETATM    4  O   UNL     1      40.979 -16.404   5.731  1.00  0.00    -0.246 OA
HETATM    5  N   UNL     1      41.191 -14.191   5.592  1.00  0.00    -0.308 N 
HETATM    6  C   UNL     1      41.685 -13.017   5.038  1.00  0.00     0.048 A 
HETATM    7  C   UNL     1      42.293 -13.075   3.788  1.00  0.00     0.034 A 
HETATM    8  C   UNL     1      41.565 -11.813   5.731  1.00  0.00     0.030 A 
HETATM    9  C   UNL     1      42.074 -10.642   5.171  1.00  0.00     0.002 A 
HETATM   10  C   UNL     1      42.688 -10.677   3.921  1.00  0.00     0.001 A 
HETATM   11  C   UNL     1      42.791 -11.885   3.229  1.00  0.00     0.015 A 
HETATM   12  H   UNL     1      40.721 -14.169   6.488  1.00  0.00     0.170 HD
ENDROOT
BRANCH   1  13
HETATM   13  C   UNL     1      41.132 -14.362   1.969  1.00  0.00     0.279 C 
HETATM   14  N   UNL     1      41.482 -14.315   0.633  1.00  0.00    -0.352 N 
HETATM   15  H   UNL     1      42.422 -14.033   0.389  1.00  0.00     0.162 HD
HETATM   16  O   UNL     1      39.953 -14.436   2.334  1.00  0.00    -0.268 OA
BRANCH  14  17
HETATM   17  C   UNL     1      40.449 -14.102  -0.354  1.00  0.00     0.161 C 
BRANCH  17  18
HETATM   18  C   UNL     1      40.592 -12.782  -1.061  1.00  0.00    -0.040 A 
HETATM   19  C   UNL     1      40.885 -11.618  -0.337  1.00  0.00     0.011 A 
HETATM   20  C   UNL     1      41.108 -10.403  -0.994  1.00  0.00     0.037 A 
HETATM   21  C   UNL     1      41.044 -10.337  -2.385  1.00  0.00     0.068 A 
HETATM   22  C   UNL     1      40.715 -11.485  -3.108  1.00  0.00     0.037 A 
HETATM   23  C   UNL     1      40.494 -12.700  -2.454  1.00  0.00     0.011 A 
BRANCH  21  24
HETATM   24  O   UNL     1      41.272  -9.224  -3.146  1.00  0.00    -0.356 OA
HETATM   25  C   UNL     1      41.823  -8.099  -2.472  1.00  0.00     0.210 C 
ENDBRANCH  21  24
ENDBRANCH  17  18
ENDBRANCH  14  17
ENDBRANCH   1  13
BRANCH   1  26
HETATM   26  O   UNL     1      43.564 -14.467   2.382  1.00  0.00    -0.359 OA
HETATM   27  H   UNL     1      43.955 -15.312   2.676  1.00  0.00     0.213 HD
ENDBRANCH   1  26
BRANCH   2  28
HETATM   28  C   UNL     1      42.782 -16.812   3.613  1.00  0.00     0.120 A 
HETATM   29  C   UNL     1      42.314 -17.613   2.563  1.00  0.00     0.146 A 
HETATM   30  F   UNL     1      41.235 -17.256   1.853  1.00  0.00    -0.204 F 
HETATM   31  C   UNL     1      42.911 -18.835   2.241  1.00  0.00     0.045 A 
HETATM   32  C   UNL     1      44.016 -19.282   2.957  1.00  0.00     0.006 A 
HETATM   33  C   UNL     1      44.519 -18.499   3.992  1.00  0.00     0.045 A 
HETATM   34  C   UNL     1      43.908 -17.284   4.310  1.00  0.00     0.146 A 
HETATM   35  F   UNL     1      44.493 -16.530   5.254  1.00  0.00    -0.204 F 
ENDBRANCH   2  28
TORSDOF 6
ENDMDL
MODEL 5
REMARK VINA RESULT:      -8.6      2.706      7.317
REMARK  6 active torsions:
REMARK  status: ('A' for Active; 'I' for Inactive)
REMARK    1  A    between atoms: O_2  and  C_3 
REMARK    2  A    between atoms: C_6  and  C_7 
REMARK    3  A    between atoms: C_7  and  N_8 
REMARK       I    between atoms: N_8  and  C_9 
REMARK    4  A    between atoms: C_9  and  C_10 
REMARK    5  A    between atoms: C_10  and  O_11 
REMARK    6  A    between atoms: N_12  and  C_13 
ROOT
HETATM    1  C   UNL     1      42.213 -14.264   3.086  1.00  0.00     0.256 C 
HETATM    2  N   UNL     1      42.113 -15.425   3.977  1.00  0.00    -0.248 N 
HETATM    3  C   UNL     1      41.324 -15.361   5.112  1.00  0.00     0.330 C 
HETATM    4  O   UNL     1      40.860 -16.343   5.692  1.00  0.00    -0.246 OA
HETATM    5  N   UNL     1      41.015 -14.123   5.592  1.00  0.00    -0.308 N 
HETATM    6  C   UNL     1      41.495 -12.928   5.071  1.00  0.00     0.048 A 
HETATM    7  C   UNL     1      42.149 -12.951   3.844  1.00  0.00     0.034 A 
HETATM    8  C   UNL     1      41.318 -11.738   5.776  1.00  0.00     0.030 A 
HETATM    9  C   UNL     1      41.813 -10.545   5.251  1.00  0.00     0.002 A 
HETATM   10  C   UNL     1      42.473 -10.546   4.023  1.00  0.00     0.001 A 
HETATM   11  C   UNL     1      42.633 -11.741   3.319  1.00  0.00     0.015 A 
HETATM   12  H   UNL     1      40.513 -14.127   6.470  1.00  0.00     0.170 HD
ENDROOT
BRANCH   1  13
HETATM   13  C   UNL     1      41.089 -14.243   1.967  1.00  0.00     0.279 C 
HETATM   14  N   UNL     1      41.486 -14.222   0.643  1.00  0.00    -0.352 N 
HETATM   15  H   UNL     1      42.435 -13.947   0.427  1.00  0.00     0.162 HD
HETATM   16  O   UNL     1      39.898 -14.306   2.291  1.00  0.00    -0.268 OA
BRANCH  14  17
HETATM   17  C   UNL     1      40.489 -14.023  -0.383  1.00  0.00     0.161 C 
BRANCH  17  18
HETATM   18  C   UNL     1      40.594 -12.671  -1.034  1.00  0.00    -0.040 A 
HETATM   19  C   UNL     1      41.000 -11.555  -0.289  1.00  0.00     0.011 A 
HETATM   20  C   UNL     1      41.188 -10.312  -0.905  1.00  0.00     0.037 A 
HETATM   21  C   UNL     1      40.973 -10.171  -2.275  1.00  0.00     0.068 A 
HETATM   22  C   UNL     1      40.531 -11.269  -3.013  1.00  0.00     0.037 A 
HETATM   23  C   UNL     1      40.346 -12.512  -2.402  1.00  0.00     0.011 A 
BRANCH  21  24
HETATM   24  O   UNL     1      41.149  -9.024  -2.999  1.00  0.00    -0.356 OA
HETATM   25  C   UNL     1      40.816  -9.090  -4.380  1.00  0.00     0.210 C 
ENDBRANCH  21  24
ENDBRANCH  17  18
ENDBRANCH  14  17
ENDBRANCH   1  13
BRANCH   1  26
HETATM   26  O   UNL     1      43.507 -14.287   2.465  1.00  0.00    -0.359 OA
HETATM   27  H   UNL     1      43.505 -13.522   1.858  1.00  0.00     0.213 HD
ENDBRANCH   1  26
BRANCH   2  28
HETATM   28  C   UNL     1      42.747 -16.671   3.636  1.00  0.00     0.120 A 
HETATM   29  C   UNL     1      43.852 -17.184   4.328  1.00  0.00     0.146 A 
HETATM   30  F   UNL     1      44.421 -16.493   5.326  1.00  0.00    -0.204 F 
HETATM   31  C   UNL     1      44.441 -18.403   3.983  1.00  0.00     0.045 A 
HETATM   32  C   UNL     1      43.921 -19.158   2.937  1.00  0.00     0.006 A 
HETATM   33  C   UNL     1      42.810 -18.687   2.244  1.00  0.00     0.045 A 
HETATM   34  C   UNL     1      42.237 -17.462   2.592  1.00  0.00     0.146 A 
HETATM   35  F   UNL     1      41.113 -17.105   1.951  1.00  0.00    -0.204 F 
ENDBRANCH   2  28
TORSDOF 6
ENDMDL
MODEL 6
REMARK VINA RESULT:      -8.5      2.077      2.702
REMARK  6 active torsions:
REMARK  status: ('A' for Active; 'I' for Inactive)
REMARK    1  A    between atoms: O_2  and  C_3 
REMARK    2  A    between atoms: C_6  and  C_7 
REMARK    3  A    between atoms: C_7  and  N_8 
REMARK       I    between atoms: N_8  and  C_9 
REMARK    4  A    between atoms: C_9  and  C_10 
REMARK    5  A    between atoms: C_10  and  O_11 
REMARK    6  A    between atoms: N_12  and  C_13 
ROOT
HETATM    1  C   UNL     1      40.356 -12.444   4.158  1.00  0.00     0.256 C 
HETATM    2  N   UNL     1      40.786 -11.943   2.848  1.00  0.00    -0.248 N 
HETATM    3  C   UNL     1      41.616 -10.839   2.766  1.00  0.00     0.330 C 
HETATM    4  O   UNL     1      42.336 -10.580   1.802  1.00  0.00    -0.246 OA
HETATM    5  N   UNL     1      41.661 -10.008   3.846  1.00  0.00    -0.308 N 
HETATM    6  C   UNL     1      40.880 -10.146   4.987  1.00  0.00     0.048 A 
HETATM    7  C   UNL     1      40.165 -11.326   5.166  1.00  0.00     0.034 A 
HETATM    8  C   UNL     1      40.824  -9.115   5.924  1.00  0.00     0.030 A 
HETATM    9  C   UNL     1      40.029  -9.259   7.060  1.00  0.00     0.002 A 
HETATM   10  C   UNL     1      39.304 -10.432   7.259  1.00  0.00     0.001 A 
HETATM   11  C   UNL     1      39.377 -11.464   6.321  1.00  0.00     0.015 A 
HETATM   12  H   UNL     1      42.210  -9.170   3.707  1.00  0.00     0.170 HD
ENDROOT
BRANCH   1  13
HETATM   13  C   UNL     1      41.362 -13.501   4.778  1.00  0.00     0.279 C 
HETATM   14  N   UNL     1      40.913 -14.792   4.977  1.00  0.00    -0.352 N 
HETATM   15  H   UNL     1      39.916 -14.962   4.986  1.00  0.00     0.162 HD
HETATM   16  O   UNL     1      42.531 -13.172   5.014  1.00  0.00    -0.268 OA
BRANCH  14  17
HETATM   17  C   UNL     1      41.750 -15.721   5.701  1.00  0.00     0.161 C 
BRANCH  17  18
HETATM   18  C   UNL     1      42.510 -16.644   4.788  1.00  0.00    -0.040 A 
HETATM   19  C   UNL     1      43.615 -17.362   5.266  1.00  0.00     0.011 A 
HETATM   20  C   UNL     1      44.273 -18.290   4.452  1.00  0.00     0.037 A 
HETATM   21  C   UNL     1      43.833 -18.513   3.147  1.00  0.00     0.068 A 
HETATM   22  C   UNL     1      42.758 -17.772   2.654  1.00  0.00     0.037 A 
HETATM   23  C   UNL     1      42.097 -16.847   3.467  1.00  0.00     0.011 A 
BRANCH  21  24
HETATM   24  O   UNL     1      44.367 -19.410   2.264  1.00  0.00    -0.356 OA
HETATM   25  C   UNL     1      43.530 -20.495   1.880  1.00  0.00     0.210 C 
ENDBRANCH  21  24
ENDBRANCH  17  18
ENDBRANCH  14  17
ENDBRANCH   1  13
BRANCH   1  26
HETATM   26  O   UNL     1      39.063 -13.048   4.003  1.00  0.00    -0.359 OA
HETATM   27  H   UNL     1      38.619 -12.907   4.863  1.00  0.00     0.213 HD
ENDBRANCH   1  26
BRANCH   2  28
HETATM   28  C   UNL     1      40.437 -12.646   1.641  1.00  0.00     0.120 A 
HETATM   29  C   UNL     1      39.365 -12.274   0.820  1.00  0.00     0.146 A 
HETATM   30  F   UNL     1      38.557 -11.259   1.159  1.00  0.00    -0.204 F 
HETATM   31  C   UNL     1      39.055 -12.967  -0.353  1.00  0.00     0.045 A 
HETATM   32  C   UNL     1      39.833 -14.050  -0.749  1.00  0.00     0.006 A 
HETATM   33  C   UNL     1      40.919 -14.432   0.033  1.00  0.00     0.045 A 
HETATM   34  C   UNL     1      41.211 -13.736   1.208  1.00  0.00     0.146 A 
HETATM   35  F   UNL     1      42.324 -14.089   1.871  1.00  0.00    -0.204 F 
ENDBRANCH   2  28
TORSDOF 6
ENDMDL
MODEL 7
REMARK VINA RESULT:      -8.3      2.963      7.488
REMARK  6 active torsions:
REMARK  status: ('A' for Active; 'I' for Inactive)
REMARK    1  A    between atoms: O_2  and  C_3 
REMARK    2  A    between atoms: C_6  and  C_7 
REMARK    3  A    between atoms: C_7  and  N_8 
REMARK       I    between atoms: N_8  and  C_9 
REMARK    4  A    between atoms: C_9  and  C_10 
REMARK    5  A    between atoms: C_10  and  O_11 
REMARK    6  A    between atoms: N_12  and  C_13 
ROOT
HETATM    1  C   UNL     1      41.817 -13.527   4.784  1.00  0.00     0.256 C 
HETATM    2  N   UNL     1      42.861 -12.498   4.848  1.00  0.00    -0.248 N 
HETATM    3  C   UNL     1      43.632 -12.223   3.732  1.00  0.00     0.330 C 
HETATM    4  O   UNL     1      44.231 -11.164   3.544  1.00  0.00    -0.246 OA
HETATM    5  N   UNL     1      43.697 -13.181   2.764  1.00  0.00    -0.308 N 
HETATM    6  C   UNL     1      43.112 -14.437   2.850  1.00  0.00     0.048 A 
HETATM    7  C   UNL     1      42.203 -14.680   3.874  1.00  0.00     0.034 A 
HETATM    8  C   UNL     1      43.438 -15.426   1.921  1.00  0.00     0.030 A 
HETATM    9  C   UNL     1      42.853 -16.687   2.023  1.00  0.00     0.002 A 
HETATM   10  C   UNL     1      41.941 -16.952   3.042  1.00  0.00     0.001 A 
HETATM   11  C   UNL     1      41.610 -15.952   3.959  1.00  0.00     0.015 A 
HETATM   12  H   UNL     1      44.342 -12.973   2.012  1.00  0.00     0.170 HD
ENDROOT
BRANCH   1  13
HETATM   13  C   UNL     1      40.417 -12.962   4.298  1.00  0.00     0.279 C 
HETATM   14  N   UNL     1      40.279 -12.614   2.968  1.00  0.00    -0.352 N 
HETATM   15  H   UNL     1      41.114 -12.467   2.418  1.00  0.00     0.162 HD
HETATM   16  O   UNL     1      39.472 -12.901   5.092  1.00  0.00    -0.268 OA
BRANCH  14  17
HETATM   17  C   UNL     1      39.077 -11.935   2.544  1.00  0.00     0.161 C 
BRANCH  17  18
HETATM   18  C   UNL     1      38.742 -12.204   1.102  1.00  0.00    -0.040 A 
HETATM   19  C   UNL     1      37.789 -11.420   0.437  1.00  0.00     0.011 A 
HETATM   20  C   UNL     1      37.536 -11.603  -0.926  1.00  0.00     0.037 A 
HETATM   21  C   UNL     1      38.235 -12.573  -1.644  1.00  0.00     0.068 A 
HETATM   22  C   UNL     1      39.156 -13.382  -0.978  1.00  0.00     0.037 A 
HETATM   23  C   UNL     1      39.413 -13.199   0.384  1.00  0.00     0.011 A 
BRANCH  21  24
HETATM   24  O   UNL     1      38.104 -12.830  -2.981  1.00  0.00    -0.356 OA
HETATM   25  C   UNL     1      38.281 -14.182  -3.386  1.00  0.00     0.210 C 
ENDBRANCH  21  24
ENDBRANCH  17  18
ENDBRANCH  14  17
ENDBRANCH   1  13
BRANCH   1  26
HETATM   26  O   UNL     1      41.675 -14.101   6.092  1.00  0.00    -0.359 OA
HETATM   27  H   UNL     1      42.119 -14.969   6.032  1.00  0.00     0.213 HD
ENDBRANCH   1  26
BRANCH   2  28
HETATM   28  C   UNL     1      43.030 -11.695   6.030  1.00  0.00     0.120 A 
HETATM   29  C   UNL     1      44.012 -11.949   6.995  1.00  0.00     0.146 A 
HETATM   30  F   UNL     1      44.821 -13.013   6.892  1.00  0.00    -0.204 F 
HETATM   31  C   UNL     1      44.163 -11.146   8.129  1.00  0.00     0.045 A 
HETATM   32  C   UNL     1      43.337 -10.042   8.316  1.00  0.00     0.006 A 
HETATM   33  C   UNL     1      42.365  -9.749   7.364  1.00  0.00     0.045 A 
HETATM   34  C   UNL     1      42.219 -10.566   6.240  1.00  0.00     0.146 A 
HETATM   35  F   UNL     1      41.330 -10.181   5.311  1.00  0.00    -0.204 F 
ENDBRANCH   2  28
TORSDOF 6
ENDMDL
MODEL 8
REMARK VINA RESULT:      -8.2      2.751      3.971
REMARK  6 active torsions:
REMARK  status: ('A' for Active; 'I' for Inactive)
REMARK    1  A    between atoms: O_2  and  C_3 
REMARK    2  A    between atoms: C_6  and  C_7 
REMARK    3  A    between atoms: C_7  and  N_8 
REMARK       I    between atoms: N_8  and  C_9 
REMARK    4  A    between atoms: C_9  and  C_10 
REMARK    5  A    between atoms: C_10  and  O_11 
REMARK    6  A    between atoms: N_12  and  C_13 
ROOT
HETATM    1  C   UNL     1      41.591 -11.799   5.544  1.00  0.00     0.256 C 
HETATM    2  N   UNL     1      41.605 -11.669   4.083  1.00  0.00    -0.248 N 
HETATM    3  C   UNL     1      42.755 -11.964   3.373  1.00  0.00     0.330 C 
HETATM    4  O   UNL     1      42.777 -12.270   2.180  1.00  0.00    -0.246 OA
HETATM    5  N   UNL     1      43.935 -11.948   4.056  1.00  0.00    -0.308 N 
HETATM    6  C   UNL     1      44.075 -11.584   5.389  1.00  0.00     0.048 A 
HETATM    7  C   UNL     1      42.930 -11.444   6.165  1.00  0.00     0.034 A 
HETATM    8  C   UNL     1      45.344 -11.366   5.924  1.00  0.00     0.030 A 
HETATM    9  C   UNL     1      45.474 -10.990   7.260  1.00  0.00     0.002 A 
HETATM   10  C   UNL     1      44.340 -10.844   8.055  1.00  0.00     0.001 A 
HETATM   11  C   UNL     1      43.074 -11.077   7.514  1.00  0.00     0.015 A 
HETATM   12  H   UNL     1      44.755 -12.081   3.478  1.00  0.00     0.170 HD
ENDROOT
BRANCH   1  13
HETATM   13  C   UNL     1      41.188 -13.252   6.035  1.00  0.00     0.279 C 
HETATM   14  N   UNL     1      42.175 -14.217   6.098  1.00  0.00    -0.352 N 
HETATM   15  H   UNL     1      43.035 -14.064   5.586  1.00  0.00     0.162 HD
HETATM   16  O   UNL     1      40.030 -13.477   6.404  1.00  0.00    -0.268 OA
BRANCH  14  17
HETATM   17  C   UNL     1      41.801 -15.585   6.369  1.00  0.00     0.161 C 
BRANCH  17  18
HETATM   18  C   UNL     1      42.375 -16.549   5.367  1.00  0.00    -0.040 A 
HETATM   19  C   UNL     1      42.041 -16.443   4.009  1.00  0.00     0.011 A 
HETATM   20  C   UNL     1      42.640 -17.277   3.058  1.00  0.00     0.037 A 
HETATM   21  C   UNL     1      43.581 -18.226   3.452  1.00  0.00     0.068 A 
HETATM   22  C   UNL     1      43.887 -18.362   4.807  1.00  0.00     0.037 A 
HETATM   23  C   UNL     1      43.294 -17.528   5.759  1.00  0.00     0.011 A 
BRANCH  21  24
HETATM   24  O   UNL     1      44.258 -19.077   2.621  1.00  0.00    -0.356 OA
HETATM   25  C   UNL     1      43.521 -20.182   2.111  1.00  0.00     0.210 C 
ENDBRANCH  21  24
ENDBRANCH  17  18
ENDBRANCH  14  17
ENDBRANCH   1  13
BRANCH   1  26
HETATM   26  O   UNL     1      40.658 -10.841   6.069  1.00  0.00    -0.359 OA
HETATM   27  H   UNL     1      40.109 -11.348   6.699  1.00  0.00     0.213 HD
ENDBRANCH   1  26
BRANCH   2  28
HETATM   28  C   UNL     1      40.405 -11.335   3.363  1.00  0.00     0.120 A 
HETATM   29  C   UNL     1      39.445 -12.285   2.991  1.00  0.00     0.146 A 
HETATM   30  F   UNL     1      39.632 -13.588   3.240  1.00  0.00    -0.204 F 
HETATM   31  C   UNL     1      38.281 -11.931   2.302  1.00  0.00     0.045 A 
HETATM   32  C   UNL     1      38.037 -10.599   1.982  1.00  0.00     0.006 A 
HETATM   33  C   UNL     1      38.960  -9.628   2.358  1.00  0.00     0.045 A 
HETATM   34  C   UNL     1      40.124  -9.997   3.038  1.00  0.00     0.146 A 
HETATM   35  F   UNL     1      40.930  -9.008   3.457  1.00  0.00    -0.204 F 
ENDBRANCH   2  28
TORSDOF 6
ENDMDL
MODEL 9
REMARK VINA RESULT:      -8.2      2.507      6.545
REMARK  6 active torsions:
REMARK  status: ('A' for Active; 'I' for Inactive)
REMARK    1  A    between atoms: O_2  and  C_3 
REMARK    2  A    between atoms: C_6  and  C_7 
REMARK    3  A    between atoms: C_7  and  N_8 
REMARK       I    between atoms: N_8  and  C_9 
REMARK    4  A    between atoms: C_9  and  C_10 
REMARK    5  A    between atoms: C_10  and  O_11 
REMARK    6  A    between atoms: N_12  and  C_13 
ROOT
HETATM    1  C   UNL     1      42.041 -12.962   4.192  1.00  0.00     0.256 C 
HETATM    2  N   UNL     1      41.409 -14.248   3.882  1.00  0.00    -0.248 N 
HETATM    3  C   UNL     1      40.030 -14.343   3.809  1.00  0.00     0.330 C 
HETATM    4  O   UNL     1      39.425 -15.220   3.193  1.00  0.00    -0.246 OA
HETATM    5  N   UNL     1      39.302 -13.374   4.434  1.00  0.00    -0.308 N 
HETATM    6  C   UNL     1      39.839 -12.348   5.199  1.00  0.00     0.048 A 
HETATM    7  C   UNL     1      41.212 -12.132   5.155  1.00  0.00     0.034 A 
HETATM    8  C   UNL     1      39.006 -11.557   5.991  1.00  0.00     0.030 A 
HETATM    9  C   UNL     1      39.556 -10.536   6.764  1.00  0.00     0.002 A 
HETATM   10  C   UNL     1      40.930 -10.303   6.735  1.00  0.00     0.001 A 
HETATM   11  C   UNL     1      41.753 -11.091   5.929  1.00  0.00     0.015 A 
HETATM   12  H   UNL     1      38.303 -13.534   4.430  1.00  0.00     0.170 HD
ENDROOT
BRANCH   1  13
HETATM   13  C   UNL     1      42.327 -12.084   2.902  1.00  0.00     0.279 C 
HETATM   14  N   UNL     1      41.263 -11.767   2.079  1.00  0.00    -0.352 N 
HETATM   15  H   UNL     1      40.413 -12.310   2.156  1.00  0.00     0.162 HD
HETATM   16  O   UNL     1      43.467 -11.654   2.692  1.00  0.00    -0.268 OA
BRANCH  14  17
HETATM   17  C   UNL     1      41.525 -11.123   0.813  1.00  0.00     0.161 C 
BRANCH  17  18
HETATM   18  C   UNL     1      41.006 -11.917  -0.355  1.00  0.00    -0.040 A 
HETATM   19  C   UNL     1      40.168 -13.021  -0.146  1.00  0.00     0.011 A 
HETATM   20  C   UNL     1      39.608 -13.710  -1.227  1.00  0.00     0.037 A 
HETATM   21  C   UNL     1      39.879 -13.302  -2.533  1.00  0.00     0.068 A 
HETATM   22  C   UNL     1      40.744 -12.229  -2.746  1.00  0.00     0.037 A 
HETATM   23  C   UNL     1      41.302 -11.536  -1.668  1.00  0.00     0.011 A 
BRANCH  21  24
HETATM   24  O   UNL     1      39.372 -13.868  -3.670  1.00  0.00    -0.356 OA
HETATM   25  C   UNL     1      38.201 -14.662  -3.514  1.00  0.00     0.210 C 
ENDBRANCH  21  24
ENDBRANCH  17  18
ENDBRANCH  14  17
ENDBRANCH   1  13
BRANCH   1  26
HETATM   26  O   UNL     1      43.277 -13.224   4.875  1.00  0.00    -0.359 OA
HETATM   27  H   UNL     1      43.927 -12.633   4.449  1.00  0.00     0.213 HD
ENDBRANCH   1  26
BRANCH   2  28
HETATM   28  C   UNL     1      42.207 -15.399   3.551  1.00  0.00     0.120 A 
HETATM   29  C   UNL     1      42.547 -16.389   4.482  1.00  0.00     0.146 A 
HETATM   30  F   UNL     1      42.188 -16.278   5.768  1.00  0.00    -0.204 F 
HETATM   31  C   UNL     1      43.314 -17.504   4.131  1.00  0.00     0.045 A 
HETATM   32  C   UNL     1      43.747 -17.668   2.819  1.00  0.00     0.006 A 
HETATM   33  C   UNL     1      43.407 -16.713   1.865  1.00  0.00     0.045 A 
HETATM   34  C   UNL     1      42.649 -15.599   2.232  1.00  0.00     0.146 A 
HETATM   35  F   UNL     1      42.273 -14.762   1.251  1.00  0.00    -0.204 F 
ENDBRANCH   2  28
TORSDOF 6
ENDMDL
MODEL 10
REMARK VINA RESULT:      -8.1      1.629      2.449
REMARK  6 active torsions:
REMARK  status: ('A' for Active; 'I' for Inactive)
REMARK    1  A    between atoms: O_2  and  C_3 
REMARK    2  A    between atoms: C_6  and  C_7 
REMARK    3  A    between atoms: C_7  and  N_8 
REMARK       I    between atoms: N_8  and  C_9 
REMARK    4  A    between atoms: C_9  and  C_10 
REMARK    5  A    between atoms: C_10  and  O_11 
REMARK    6  A    between atoms: N_12  and  C_13 
ROOT
HETATM    1  C   UNL     1      39.895 -12.208   1.812  1.00  0.00     0.256 C 
HETATM    2  N   UNL     1      40.267 -11.163   0.853  1.00  0.00    -0.248 N 
HETATM    3  C   UNL     1      41.450 -10.463   1.015  1.00  0.00     0.330 C 
HETATM    4  O   UNL     1      42.041  -9.877   0.107  1.00  0.00    -0.246 OA
HETATM    5  N   UNL     1      42.010 -10.459   2.258  1.00  0.00    -0.308 N 
HETATM    6  C   UNL     1      41.444 -11.038   3.385  1.00  0.00     0.048 A 
HETATM    7  C   UNL     1      40.350 -11.881   3.223  1.00  0.00     0.034 A 
HETATM    8  C   UNL     1      41.972 -10.771   4.648  1.00  0.00     0.030 A 
HETATM    9  C   UNL     1      41.389 -11.349   5.775  1.00  0.00     0.002 A 
HETATM   10  C   UNL     1      40.292 -12.195   5.635  1.00  0.00     0.001 A 
HETATM   11  C   UNL     1      39.778 -12.467   4.366  1.00  0.00     0.015 A 
HETATM   12  H   UNL     1      42.823  -9.863   2.348  1.00  0.00     0.170 HD
ENDROOT
BRANCH   1  13
HETATM   13  C   UNL     1      40.468 -13.636   1.427  1.00  0.00     0.279 C 
HETATM   14  N   UNL     1      39.689 -14.746   1.690  1.00  0.00    -0.352 N 
HETATM   15  H   UNL     1      38.926 -14.656   2.349  1.00  0.00     0.162 HD
HETATM   16  O   UNL     1      41.559 -13.725   0.853  1.00  0.00    -0.268 OA
BRANCH  14  17
HETATM   17  C   UNL     1      40.260 -16.060   1.514  1.00  0.00     0.161 C 
BRANCH  17  18
HETATM   18  C   UNL     1      41.220 -16.423   2.613  1.00  0.00    -0.040 A 
HETATM   19  C   UNL     1      42.443 -17.040   2.312  1.00  0.00     0.011 A 
HETATM   20  C   UNL     1      43.381 -17.299   3.318  1.00  0.00     0.037 A 
HETATM   21  C   UNL     1      43.108 -16.944   4.638  1.00  0.00     0.068 A 
HETATM   22  C   UNL     1      41.877 -16.365   4.948  1.00  0.00     0.037 A 
HETATM   23  C   UNL     1      40.939 -16.102   3.946  1.00  0.00     0.011 A 
BRANCH  21  24
HETATM   24  O   UNL     1      43.950 -17.113   5.703  1.00  0.00    -0.356 OA
HETATM   25  C   UNL     1      43.371 -17.650   6.887  1.00  0.00     0.210 C 
ENDBRANCH  21  24
ENDBRANCH  17  18
ENDBRANCH  14  17
ENDBRANCH   1  13
BRANCH   1  26
HETATM   26  O   UNL     1      38.462 -12.269   1.874  1.00  0.00    -0.359 OA
HETATM   27  H   UNL     1      38.199 -11.450   2.339  1.00  0.00     0.213 HD
ENDBRANCH   1  26
BRANCH   2  28
HETATM   28  C   UNL     1      39.465 -10.919  -0.317  1.00  0.00     0.120 A 
HETATM   29  C   UNL     1      39.596 -11.655  -1.502  1.00  0.00     0.146 A 
HETATM   30  F   UNL     1      40.537 -12.601  -1.625  1.00  0.00    -0.204 F 
HETATM   31  C   UNL     1      38.796 -11.406  -2.621  1.00  0.00     0.045 A 
HETATM   32  C   UNL     1      37.819 -10.416  -2.574  1.00  0.00     0.006 A 
HETATM   33  C   UNL     1      37.649  -9.683  -1.403  1.00  0.00     0.045 A 
HETATM   34  C   UNL     1      38.462  -9.936  -0.296  1.00  0.00     0.146 A 
HETATM   35  F   UNL     1      38.188  -9.263   0.834  1.00  0.00    -0.204 F 
ENDBRANCH   2  28
TORSDOF 6
ENDMDL
