MODEL 1
REMARK VINA RESULT:      -8.0      0.000      0.000
REMARK  8 active torsions:
REMARK  status: ('A' for Active; 'I' for Inactive)
REMARK    1  A    between atoms: C_2  and  O_3 
REMARK    2  A    between atoms: O_3  and  C_4 
REMARK    3  A    between atoms: C_5  and  N_6 
REMARK       I    between atoms: N_6  and  C_7 
REMARK    4  A    between atoms: C_7  and  C_8 
REMARK    5  A    between atoms: C_8  and  N_9 
REMARK    6  A    between atoms: C_12  and  C_13 
REMARK       I    between atoms: C_13  and  N_14 
REMARK    7  A    between atoms: N_14  and  C_15 
REMARK    8  A    between atoms: C_23  and  N_24 
ROOT
HETATM    1  N   UNL     1      41.280 -11.386   6.101  1.00  0.00    -0.248 N 
HETATM    2  N   UNL     1      42.603 -11.590   6.261  1.00  0.00     0.007 NA
HETATM    3  N   UNL     1      42.841 -12.874   6.051  1.00  0.00    -0.150 NA
HETATM    4  C   UNL     1      41.661 -13.477   5.679  1.00  0.00     0.187 A 
HETATM    5  C   UNL     1      40.649 -12.531   5.669  1.00  0.00     0.151 A 
ENDROOT
BRANCH   1   6
HETATM    6  C   UNL     1      40.716 -10.085   6.374  1.00  0.00     0.251 C 
BRANCH   6   7
HETATM    7  C   UNL     1      41.515  -9.362   7.435  1.00  0.00     0.241 C 
HETATM    8  N   UNL     1      41.420  -9.936   8.700  1.00  0.00    -0.323 N 
HETATM    9  H   UNL     1      40.561 -10.425   8.912  1.00  0.00     0.169 HD
HETATM   10  O   UNL     1      42.126  -8.329   7.179  1.00  0.00    -0.271 OA
BRANCH   8  11
HETATM   11  C   UNL     1      42.172  -9.493   9.815  1.00  0.00     0.068 A 
HETATM   12  C   UNL     1      43.507  -9.852  10.061  1.00  0.00     0.095 A 
HETATM   13  C   UNL     1      44.209  -9.278  11.126  1.00  0.00     0.039 A 
HETATM   14  C   UNL     1      43.567  -8.403  11.998  1.00  0.00     0.003 A 
HETATM   15  C   UNL     1      42.219  -8.107  11.812  1.00  0.00     0.002 A 
HETATM   16  C   UNL     1      41.521  -8.656  10.732  1.00  0.00     0.032 A 
BRANCH  12  17
HETATM   17  O   UNL     1      44.198 -10.795   9.345  1.00  0.00    -0.349 OA
BRANCH  17  18
HETATM   18  C   UNL     1      45.448 -10.285   8.866  1.00  0.00     0.171 C 
HETATM   19  C   UNL     1      45.742 -10.933   7.527  1.00  0.00     0.034 C 
ENDBRANCH  17  18
ENDBRANCH  12  17
ENDBRANCH   8  11
ENDBRANCH   6   7
ENDBRANCH   1   6
BRANCH   5  20
HETATM   20  N   UNL     1      39.329 -12.613   5.360  1.00  0.00    -0.382 N 
HETATM   21  H   UNL     1      39.075 -12.310   4.410  1.00  0.00     0.157 HD
HETATM   22  H   UNL     1      38.618 -12.315   6.022  1.00  0.00     0.157 HD
ENDBRANCH   5  20
BRANCH   4  23
HETATM   23  C   UNL     1      41.593 -14.891   5.320  1.00  0.00     0.280 C 
HETATM   24  N   UNL     1      42.696 -15.271   4.579  1.00  0.00    -0.320 N 
HETATM   25  H   UNL     1      43.261 -14.481   4.275  1.00  0.00     0.169 HD
HETATM   26  O   UNL     1      40.616 -15.571   5.604  1.00  0.00    -0.265 OA
BRANCH  24  27
HETATM   27  C   UNL     1      43.017 -16.520   4.005  1.00  0.00     0.057 A 
HETATM   28  C   UNL     1      42.510 -17.082   2.821  1.00  0.00     0.060 A 
HETATM   29 CL   UNL     1      41.170 -16.450   1.931  1.00  0.00    -0.082 Cl
HETATM   30  C   UNL     1      42.985 -18.327   2.374  1.00  0.00     0.026 A 
HETATM   31  C   UNL     1      43.931 -19.039   3.109  1.00  0.00     0.002 A 
HETATM   32  C   UNL     1      44.396 -18.522   4.311  1.00  0.00     0.002 A 
HETATM   33  C   UNL     1      43.937 -17.279   4.755  1.00  0.00     0.031 A 
ENDBRANCH  24  27
ENDBRANCH   4  23
TORSDOF 8
ENDMDL
MODEL 2
REMARK VINA RESULT:      -8.0      2.492      8.800
REMARK  8 active torsions:
REMARK  status: ('A' for Active; 'I' for Inactive)
REMARK    1  A    between atoms: C_2  and  O_3 
REMARK    2  A    between atoms: O_3  and  C_4 
REMARK    3  A    between atoms: C_5  and  N_6 
REMARK       I    between atoms: N_6  and  C_7 
REMARK    4  A    between atoms: C_7  and  C_8 
REMARK    5  A    between atoms: C_8  and  N_9 
REMARK    6  A    between atoms: C_12  and  C_13 
REMARK       I    between atoms: C_13  and  N_14 
REMARK    7  A    between atoms: N_14  and  C_15 
REMARK    8  A    between atoms: C_23  and  N_24 
ROOT
HETATM    1  N   UNL     1      41.989 -13.460   4.244  1.00  0.00    -0.248 N 
HETATM    2  N   UNL     1      43.121 -13.896   4.833  1.00  0.00     0.007 NA
HETATM    3  N   UNL     1      43.532 -12.951   5.664  1.00  0.00    -0.150 NA
HETATM    4  C   UNL     1      42.603 -11.935   5.655  1.00  0.00     0.187 A 
HETATM    5  C   UNL     1      41.583 -12.258   4.776  1.00  0.00     0.151 A 
ENDROOT
BRANCH   1   6
HETATM    6  C   UNL     1      41.372 -14.249   3.205  1.00  0.00     0.251 C 
BRANCH   6   7
HETATM    7  C   UNL     1      41.571 -15.727   3.458  1.00  0.00     0.241 C 
HETATM    8  N   UNL     1      42.813 -16.206   3.051  1.00  0.00    -0.323 N 
HETATM    9  H   UNL     1      43.250 -15.728   2.274  1.00  0.00     0.169 HD
HETATM   10  O   UNL     1      40.672 -16.421   3.923  1.00  0.00    -0.271 OA
BRANCH   8  11
HETATM   11  C   UNL     1      43.256 -17.528   3.294  1.00  0.00     0.068 A 
HETATM   12  C   UNL     1      43.828 -17.962   4.501  1.00  0.00     0.095 A 
HETATM   13  C   UNL     1      44.133 -19.313   4.694  1.00  0.00     0.039 A 
HETATM   14  C   UNL     1      43.945 -20.229   3.662  1.00  0.00     0.003 A 
HETATM   15  C   UNL     1      43.458 -19.793   2.432  1.00  0.00     0.002 A 
HETATM   16  C   UNL     1      43.125 -18.448   2.244  1.00  0.00     0.032 A 
BRANCH  12  17
HETATM   17  O   UNL     1      44.172 -17.131   5.535  1.00  0.00    -0.349 OA
BRANCH  17  18
HETATM   18  C   UNL     1      43.500 -17.489   6.749  1.00  0.00     0.171 C 
HETATM   19  C   UNL     1      42.401 -16.474   7.000  1.00  0.00     0.034 C 
ENDBRANCH  17  18
ENDBRANCH  12  17
ENDBRANCH   8  11
ENDBRANCH   6   7
ENDBRANCH   1   6
BRANCH   5  20
HETATM   20  N   UNL     1      40.442 -11.608   4.428  1.00  0.00    -0.382 N 
HETATM   21  H   UNL     1      40.113 -11.772   3.467  1.00  0.00     0.157 HD
HETATM   22  H   UNL     1      40.296 -10.635   4.684  1.00  0.00     0.157 HD
ENDBRANCH   5  20
BRANCH   4  23
HETATM   23  C   UNL     1      42.733 -10.760   6.513  1.00  0.00     0.280 C 
HETATM   24  N   UNL     1      43.195 -11.107   7.768  1.00  0.00    -0.320 N 
HETATM   25  H   UNL     1      43.201 -12.112   7.925  1.00  0.00     0.169 HD
HETATM   26  O   UNL     1      42.381  -9.653   6.129  1.00  0.00    -0.265 OA
BRANCH  24  27
HETATM   27  C   UNL     1      43.433 -10.301   8.903  1.00  0.00     0.057 A 
HETATM   28  C   UNL     1      42.501  -9.542   9.632  1.00  0.00     0.060 A 
HETATM   29 CL   UNL     1      40.878  -9.235   9.128  1.00  0.00    -0.082 Cl
HETATM   30  C   UNL     1      42.914  -8.833  10.773  1.00  0.00     0.026 A 
HETATM   31  C   UNL     1      44.247  -8.838  11.179  1.00  0.00     0.002 A 
HETATM   32  C   UNL     1      45.187  -9.536  10.433  1.00  0.00     0.002 A 
HETATM   33  C   UNL     1      44.783 -10.253   9.304  1.00  0.00     0.031 A 
ENDBRANCH  24  27
ENDBRANCH   4  23
TORSDOF 8
ENDMDL
MODEL 3
REMARK VINA RESULT:      -7.9      2.792      9.003
REMARK  8 active torsions:
REMARK  status: ('A' for Active; 'I' for Inactive)
REMARK    1  A    between atoms: C_2  and  O_3 
REMARK    2  A    between atoms: O_3  and  C_4 
REMARK    3  A    between atoms: C_5  and  N_6 
REMARK       I    between atoms: N_6  and  C_7 
REMARK    4  A    between atoms: C_7  and  C_8 
REMARK    5  A    between atoms: C_8  and  N_9 
REMARK    6  A    between atoms: C_12  and  C_13 
REMARK       I    between atoms: C_13  and  N_14 
REMARK    7  A    between atoms: N_14  and  C_15 
REMARK    8  A    between atoms: C_23  and  N_24 
ROOT
HETATM    1  N   UNL     1      42.816 -12.189   5.767  1.00  0.00    -0.248 N 
HETATM    2  N   UNL     1      43.682 -13.072   6.304  1.00  0.00     0.007 NA
HETATM    3  N   UNL     1      44.256 -12.490   7.344  1.00  0.00    -0.150 NA
HETATM    4  C   UNL     1      43.688 -11.248   7.512  1.00  0.00     0.187 A 
HETATM    5  C   UNL     1      42.732 -11.048   6.530  1.00  0.00     0.151 A 
ENDROOT
BRANCH   1   6
HETATM    6  C   UNL     1      42.120 -12.520   4.545  1.00  0.00     0.251 C 
BRANCH   6   7
HETATM    7  C   UNL     1      42.034 -14.019   4.362  1.00  0.00     0.241 C 
HETATM    8  N   UNL     1      43.164 -14.579   3.772  1.00  0.00    -0.323 N 
HETATM    9  H   UNL     1      43.685 -13.987   3.139  1.00  0.00     0.169 HD
HETATM   10  O   UNL     1      41.018 -14.640   4.658  1.00  0.00    -0.271 OA
BRANCH   8  11
HETATM   11  C   UNL     1      43.347 -15.974   3.609  1.00  0.00     0.068 A 
HETATM   12  C   UNL     1      43.824 -16.832   4.613  1.00  0.00     0.095 A 
HETATM   13  C   UNL     1      43.866 -18.213   4.402  1.00  0.00     0.039 A 
HETATM   14  C   UNL     1      43.508 -18.745   3.166  1.00  0.00     0.003 A 
HETATM   15  C   UNL     1      43.115 -17.894   2.135  1.00  0.00     0.002 A 
HETATM   16  C   UNL     1      43.043 -16.514   2.352  1.00  0.00     0.032 A 
BRANCH  12  17
HETATM   17  O   UNL     1      44.319 -16.409   5.819  1.00  0.00    -0.349 OA
BRANCH  17  18
HETATM   18  C   UNL     1      43.665 -17.057   6.917  1.00  0.00     0.171 C 
HETATM   19  C   UNL     1      42.568 -16.140   7.424  1.00  0.00     0.034 C 
ENDBRANCH  17  18
ENDBRANCH  12  17
ENDBRANCH   8  11
ENDBRANCH   6   7
ENDBRANCH   1   6
BRANCH   5  20
HETATM   20  N   UNL     1      41.894 -10.010   6.274  1.00  0.00    -0.382 N 
HETATM   21  H   UNL     1      42.016  -9.555   5.359  1.00  0.00     0.157 HD
HETATM   22  H   UNL     1      41.693  -9.312   6.985  1.00  0.00     0.157 HD
ENDBRANCH   5  20
BRANCH   4  23
HETATM   23  C   UNL     1      44.062 -10.367   8.616  1.00  0.00     0.280 C 
HETATM   24  N   UNL     1      43.022 -10.225   9.515  1.00  0.00    -0.320 N 
HETATM   25  H   UNL     1      42.145 -10.609   9.171  1.00  0.00     0.169 HD
HETATM   26  O   UNL     1      45.146  -9.800   8.635  1.00  0.00    -0.265 OA
BRANCH  24  27
HETATM   27  C   UNL     1      42.941  -9.451  10.693  1.00  0.00     0.057 A 
HETATM   28  C   UNL     1      42.969  -8.050  10.809  1.00  0.00     0.060 A 
HETATM   29 CL   UNL     1      43.368  -6.968   9.523  1.00  0.00    -0.082 Cl
HETATM   30  C   UNL     1      42.826  -7.448  12.071  1.00  0.00     0.026 A 
HETATM   31  C   UNL     1      42.692  -8.219  13.223  1.00  0.00     0.002 A 
HETATM   32  C   UNL     1      42.722  -9.603  13.128  1.00  0.00     0.002 A 
HETATM   33  C   UNL     1      42.852 -10.210  11.876  1.00  0.00     0.031 A 
ENDBRANCH  24  27
ENDBRANCH   4  23
TORSDOF 8
ENDMDL
MODEL 4
REMARK VINA RESULT:      -7.9      5.002      8.532
REMARK  8 active torsions:
REMARK  status: ('A' for Active; 'I' for Inactive)
REMARK    1  A    between atoms: C_2  and  O_3 
REMARK    2  A    between atoms: O_3  and  C_4 
REMARK    3  A    between atoms: C_5  and  N_6 
REMARK       I    between atoms: N_6  and  C_7 
REMARK    4  A    between atoms: C_7  and  C_8 
REMARK    5  A    between atoms: C_8  and  N_9 
REMARK    6  A    between atoms: C_12  and  C_13 
REMARK       I    between atoms: C_13  and  N_14 
REMARK    7  A    between atoms: N_14  and  C_15 
REMARK    8  A    between atoms: C_23  and  N_24 
ROOT
HETATM    1  N   UNL     1      40.848 -13.294   3.729  1.00  0.00    -0.248 N 
HETATM    2  N   UNL     1      41.979 -12.593   3.506  1.00  0.00     0.007 NA
HETATM    3  N   UNL     1      41.894 -12.068   2.294  1.00  0.00    -0.150 NA
HETATM    4  C   UNL     1      40.658 -12.379   1.775  1.00  0.00     0.187 A 
HETATM    5  C   UNL     1      39.953 -13.136   2.696  1.00  0.00     0.151 A 
ENDROOT
BRANCH   1   6
HETATM    6  C   UNL     1      40.711 -14.067   4.941  1.00  0.00     0.251 C 
BRANCH   6   7
HETATM    7  C   UNL     1      41.120 -15.505   4.714  1.00  0.00     0.241 C 
HETATM    8  N   UNL     1      42.275 -15.647   3.949  1.00  0.00    -0.323 N 
HETATM    9  H   UNL     1      42.463 -14.919   3.273  1.00  0.00     0.169 HD
HETATM   10  O   UNL     1      40.435 -16.435   5.126  1.00  0.00    -0.271 OA
BRANCH   8  11
HETATM   11  C   UNL     1      42.902 -16.894   3.709  1.00  0.00     0.068 A 
HETATM   12  C   UNL     1      43.807 -17.508   4.590  1.00  0.00     0.095 A 
HETATM   13  C   UNL     1      44.291 -18.792   4.325  1.00  0.00     0.039 A 
HETATM   14  C   UNL     1      43.940 -19.445   3.146  1.00  0.00     0.003 A 
HETATM   15  C   UNL     1      43.110 -18.809   2.225  1.00  0.00     0.002 A 
HETATM   16  C   UNL     1      42.600 -17.536   2.500  1.00  0.00     0.032 A 
BRANCH  12  17
HETATM   17  O   UNL     1      44.317 -16.910   5.713  1.00  0.00    -0.349 OA
BRANCH  17  18
HETATM   18  C   UNL     1      43.598 -17.294   6.891  1.00  0.00     0.171 C 
HETATM   19  C   UNL     1      43.234 -16.035   7.655  1.00  0.00     0.034 C 
ENDBRANCH  17  18
ENDBRANCH  12  17
ENDBRANCH   8  11
ENDBRANCH   6   7
ENDBRANCH   1   6
BRANCH   5  20
HETATM   20  N   UNL     1      38.704 -13.669   2.671  1.00  0.00    -0.382 N 
HETATM   21  H   UNL     1      38.527 -14.353   1.924  1.00  0.00     0.157 HD
HETATM   22  H   UNL     1      37.884 -13.085   2.809  1.00  0.00     0.157 HD
ENDBRANCH   5  20
BRANCH   4  23
HETATM   23  C   UNL     1      40.224 -11.896   0.466  1.00  0.00     0.280 C 
HETATM   24  N   UNL     1      41.198 -11.114  -0.125  1.00  0.00    -0.320 N 
HETATM   25  H   UNL     1      41.956 -10.876   0.511  1.00  0.00     0.169 HD
HETATM   26  O   UNL     1      39.098 -12.128   0.046  1.00  0.00    -0.265 OA
BRANCH  24  27
HETATM   27  C   UNL     1      41.186 -10.429  -1.360  1.00  0.00     0.057 A 
HETATM   28  C   UNL     1      40.913 -10.954  -2.635  1.00  0.00     0.060 A 
HETATM   29 CL   UNL     1      40.777 -12.639  -2.993  1.00  0.00    -0.082 Cl
HETATM   30  C   UNL     1      40.899 -10.105  -3.755  1.00  0.00     0.026 A 
HETATM   31  C   UNL     1      41.189  -8.748  -3.630  1.00  0.00     0.002 A 
HETATM   32  C   UNL     1      41.517  -8.229  -2.386  1.00  0.00     0.002 A 
HETATM   33  C   UNL     1      41.521  -9.064  -1.265  1.00  0.00     0.031 A 
ENDBRANCH  24  27
ENDBRANCH   4  23
TORSDOF 8
ENDMDL
MODEL 5
REMARK VINA RESULT:      -7.7      2.548      8.479
REMARK  8 active torsions:
REMARK  status: ('A' for Active; 'I' for Inactive)
REMARK    1  A    between atoms: C_2  and  O_3 
REMARK    2  A    between atoms: O_3  and  C_4 
REMARK    3  A    between atoms: C_5  and  N_6 
REMARK       I    between atoms: N_6  and  C_7 
REMARK    4  A    between atoms: C_7  and  C_8 
REMARK    5  A    between atoms: C_8  and  N_9 
REMARK    6  A    between atoms: C_12  and  C_13 
REMARK       I    between atoms: C_13  and  N_14 
REMARK    7  A    between atoms: N_14  and  C_15 
REMARK    8  A    between atoms: C_23  and  N_24 
ROOT
HETATM    1  N   UNL     1      41.322 -12.772   3.782  1.00  0.00    -0.248 N 
HETATM    2  N   UNL     1      40.369 -12.980   4.714  1.00  0.00     0.007 NA
HETATM    3  N   UNL     1      40.647 -12.207   5.752  1.00  0.00    -0.150 NA
HETATM    4  C   UNL     1      41.749 -11.444   5.440  1.00  0.00     0.187 A 
HETATM    5  C   UNL     1      42.178 -11.765   4.162  1.00  0.00     0.151 A 
ENDROOT
BRANCH   1   6
HETATM    6  C   UNL     1      41.330 -13.567   2.576  1.00  0.00     0.251 C 
BRANCH   6   7
HETATM    7  C   UNL     1      42.384 -14.649   2.650  1.00  0.00     0.241 C 
HETATM    8  N   UNL     1      41.970 -15.793   3.326  1.00  0.00    -0.323 N 
HETATM    9  H   UNL     1      41.278 -15.665   4.051  1.00  0.00     0.169 HD
HETATM   10  O   UNL     1      43.512 -14.471   2.199  1.00  0.00    -0.271 OA
BRANCH   8  11
HETATM   11  C   UNL     1      42.752 -16.970   3.416  1.00  0.00     0.068 A 
HETATM   12  C   UNL     1      43.596 -17.279   4.494  1.00  0.00     0.095 A 
HETATM   13  C   UNL     1      44.245 -18.516   4.553  1.00  0.00     0.039 A 
HETATM   14  C   UNL     1      44.120 -19.424   3.505  1.00  0.00     0.003 A 
HETATM   15  C   UNL     1      43.353 -19.092   2.391  1.00  0.00     0.002 A 
HETATM   16  C   UNL     1      42.679 -17.868   2.341  1.00  0.00     0.032 A 
BRANCH  12  17
HETATM   17  O   UNL     1      43.891 -16.415   5.517  1.00  0.00    -0.349 OA
BRANCH  17  18
HETATM   18  C   UNL     1      43.368 -16.876   6.768  1.00  0.00     0.171 C 
HETATM   19  C   UNL     1      42.086 -16.117   7.055  1.00  0.00     0.034 C 
ENDBRANCH  17  18
ENDBRANCH  12  17
ENDBRANCH   8  11
ENDBRANCH   6   7
ENDBRANCH   1   6
BRANCH   5  20
HETATM   20  N   UNL     1      43.196 -11.290   3.398  1.00  0.00    -0.382 N 
HETATM   21  H   UNL     1      42.976 -11.149   2.403  1.00  0.00     0.157 HD
HETATM   22  H   UNL     1      44.139 -11.656   3.498  1.00  0.00     0.157 HD
ENDBRANCH   5  20
BRANCH   4  23
HETATM   23  C   UNL     1      42.282 -10.440   6.357  1.00  0.00     0.280 C 
HETATM   24  N   UNL     1      43.077 -11.022   7.326  1.00  0.00    -0.320 N 
HETATM   25  H   UNL     1      43.015 -12.037   7.334  1.00  0.00     0.169 HD
HETATM   26  O   UNL     1      41.958  -9.264   6.267  1.00  0.00    -0.265 OA
BRANCH  24  27
HETATM   27  C   UNL     1      43.757 -10.434   8.415  1.00  0.00     0.057 A 
HETATM   28  C   UNL     1      45.138 -10.213   8.553  1.00  0.00     0.060 A 
HETATM   29 CL   UNL     1      46.343 -10.856   7.496  1.00  0.00    -0.082 Cl
HETATM   30  C   UNL     1      45.634  -9.564   9.696  1.00  0.00     0.026 A 
HETATM   31  C   UNL     1      44.780  -9.167  10.723  1.00  0.00     0.002 A 
HETATM   32  C   UNL     1      43.422  -9.433  10.626  1.00  0.00     0.002 A 
HETATM   33  C   UNL     1      42.919 -10.066   9.486  1.00  0.00     0.031 A 
ENDBRANCH  24  27
ENDBRANCH   4  23
TORSDOF 8
ENDMDL
MODEL 6
REMARK VINA RESULT:      -7.7      1.382      2.454
REMARK  8 active torsions:
REMARK  status: ('A' for Active; 'I' for Inactive)
REMARK    1  A    between atoms: C_2  and  O_3 
REMARK    2  A    between atoms: O_3  and  C_4 
REMARK    3  A    between atoms: C_5  and  N_6 
REMARK       I    between atoms: N_6  and  C_7 
REMARK    4  A    between atoms: C_7  and  C_8 
REMARK    5  A    between atoms: C_8  and  N_9 
REMARK    6  A    between atoms: C_12  and  C_13 
REMARK       I    between atoms: C_13  and  N_14 
REMARK    7  A    between atoms: N_14  and  C_15 
REMARK    8  A    between atoms: C_23  and  N_24 
ROOT
HETATM    1  N   UNL     1      41.531 -12.116   5.418  1.00  0.00    -0.248 N 
HETATM    2  N   UNL     1      42.844 -12.295   5.167  1.00  0.00     0.007 NA
HETATM    3  N   UNL     1      43.073 -13.597   5.129  1.00  0.00    -0.150 NA
HETATM    4  C   UNL     1      41.872 -14.252   5.284  1.00  0.00     0.187 A 
HETATM    5  C   UNL     1      40.860 -13.317   5.434  1.00  0.00     0.151 A 
ENDROOT
BRANCH   1   6
HETATM    6  C   UNL     1      41.014 -10.783   5.618  1.00  0.00     0.251 C 
BRANCH   6   7
HETATM    7  C   UNL     1      41.906  -9.992   6.550  1.00  0.00     0.241 C 
HETATM    8  N   UNL     1      42.438 -10.745   7.593  1.00  0.00    -0.323 N 
HETATM    9  H   UNL     1      41.887 -11.531   7.911  1.00  0.00     0.169 HD
HETATM   10  O   UNL     1      42.068  -8.785   6.404  1.00  0.00    -0.271 OA
BRANCH   8  11
HETATM   11  C   UNL     1      43.386 -10.238   8.515  1.00  0.00     0.068 A 
HETATM   12  C   UNL     1      43.063  -9.737   9.786  1.00  0.00     0.095 A 
HETATM   13  C   UNL     1      44.074  -9.361  10.675  1.00  0.00     0.039 A 
HETATM   14  C   UNL     1      45.409  -9.408  10.281  1.00  0.00     0.003 A 
HETATM   15  C   UNL     1      45.734  -9.823   8.991  1.00  0.00     0.002 A 
HETATM   16  C   UNL     1      44.727 -10.228   8.108  1.00  0.00     0.032 A 
BRANCH  12  17
HETATM   17  O   UNL     1      41.784  -9.529  10.233  1.00  0.00    -0.349 OA
BRANCH  17  18
HETATM   18  C   UNL     1      41.282  -8.250   9.828  1.00  0.00     0.171 C 
HETATM   19  C   UNL     1      39.864  -8.436   9.322  1.00  0.00     0.034 C 
ENDBRANCH  17  18
ENDBRANCH  12  17
ENDBRANCH   8  11
ENDBRANCH   6   7
ENDBRANCH   1   6
BRANCH   5  20
HETATM   20  N   UNL     1      39.518 -13.448   5.598  1.00  0.00    -0.382 N 
HETATM   21  H   UNL     1      39.095 -14.275   5.158  1.00  0.00     0.157 HD
HETATM   22  H   UNL     1      38.899 -12.647   5.501  1.00  0.00     0.157 HD
ENDBRANCH   5  20
BRANCH   4  23
HETATM   23  C   UNL     1      41.770 -15.708   5.232  1.00  0.00     0.280 C 
HETATM   24  N   UNL     1      43.005 -16.286   5.006  1.00  0.00    -0.320 N 
HETATM   25  H   UNL     1      43.719 -15.609   4.750  1.00  0.00     0.169 HD
HETATM   26  O   UNL     1      40.686 -16.271   5.308  1.00  0.00    -0.265 OA
BRANCH  24  27
HETATM   27  C   UNL     1      43.356 -17.645   4.854  1.00  0.00     0.057 A 
HETATM   28  C   UNL     1      43.639 -18.336   3.663  1.00  0.00     0.060 A 
HETATM   29 CL   UNL     1      43.368 -17.707   2.077  1.00  0.00    -0.082 Cl
HETATM   30  C   UNL     1      44.022 -19.687   3.710  1.00  0.00     0.026 A 
HETATM   31  C   UNL     1      44.090 -20.373   4.921  1.00  0.00     0.002 A 
HETATM   32  C   UNL     1      43.755 -19.718   6.098  1.00  0.00     0.002 A 
HETATM   33  C   UNL     1      43.386 -18.371   6.062  1.00  0.00     0.031 A 
ENDBRANCH  24  27
ENDBRANCH   4  23
TORSDOF 8
ENDMDL
MODEL 7
REMARK VINA RESULT:      -7.6      1.758      2.426
REMARK  8 active torsions:
REMARK  status: ('A' for Active; 'I' for Inactive)
REMARK    1  A    between atoms: C_2  and  O_3 
REMARK    2  A    between atoms: O_3  and  C_4 
REMARK    3  A    between atoms: C_5  and  N_6 
REMARK       I    between atoms: N_6  and  C_7 
REMARK    4  A    between atoms: C_7  and  C_8 
REMARK    5  A    between atoms: C_8  and  N_9 
REMARK    6  A    between atoms: C_12  and  C_13 
REMARK       I    between atoms: C_13  and  N_14 
REMARK    7  A    between atoms: N_14  and  C_15 
REMARK    8  A    between atoms: C_23  and  N_24 
ROOT
HETATM    1  N   UNL     1      40.054 -10.767   5.984  1.00  0.00    -0.248 N 
HETATM    2  N   UNL     1      39.383 -11.670   6.727  1.00  0.00     0.007 NA
HETATM    3  N   UNL     1      39.414 -12.825   6.081  1.00  0.00    -0.150 NA
HETATM    4  C   UNL     1      40.181 -12.666   4.950  1.00  0.00     0.187 A 
HETATM    5  C   UNL     1      40.635 -11.359   4.886  1.00  0.00     0.151 A 
ENDROOT
BRANCH   1   6
HETATM    6  C   UNL     1      40.092  -9.384   6.399  1.00  0.00     0.251 C 
BRANCH   6   7
HETATM    7  C   UNL     1      41.412  -9.054   7.059  1.00  0.00     0.241 C 
HETATM    8  N   UNL     1      41.837 -10.010   7.978  1.00  0.00    -0.323 N 
HETATM    9  H   UNL     1      41.114 -10.536   8.450  1.00  0.00     0.169 HD
HETATM   10  O   UNL     1      41.994  -7.998   6.828  1.00  0.00    -0.271 OA
BRANCH   8  11
HETATM   11  C   UNL     1      43.094  -9.962   8.627  1.00  0.00     0.068 A 
HETATM   12  C   UNL     1      44.316 -10.272   8.008  1.00  0.00     0.095 A 
HETATM   13  C   UNL     1      45.521 -10.088   8.692  1.00  0.00     0.039 A 
HETATM   14  C   UNL     1      45.518  -9.670  10.020  1.00  0.00     0.003 A 
HETATM   15  C   UNL     1      44.306  -9.442  10.669  1.00  0.00     0.002 A 
HETATM   16  C   UNL     1      43.100  -9.596   9.980  1.00  0.00     0.032 A 
BRANCH  12  17
HETATM   17  O   UNL     1      44.432 -10.808   6.752  1.00  0.00    -0.349 OA
BRANCH  17  18
HETATM   18  C   UNL     1      44.935 -12.148   6.792  1.00  0.00     0.171 C 
HETATM   19  C   UNL     1      43.753 -13.095   6.884  1.00  0.00     0.034 C 
ENDBRANCH  17  18
ENDBRANCH  12  17
ENDBRANCH   8  11
ENDBRANCH   6   7
ENDBRANCH   1   6
BRANCH   5  20
HETATM   20  N   UNL     1      41.426 -10.712   3.992  1.00  0.00    -0.382 N 
HETATM   21  H   UNL     1      41.620 -11.223   3.120  1.00  0.00     0.157 HD
HETATM   22  H   UNL     1      42.258 -10.213   4.295  1.00  0.00     0.157 HD
ENDBRANCH   5  20
BRANCH   4  23
HETATM   23  C   UNL     1      40.463 -13.776   4.042  1.00  0.00     0.280 C 
HETATM   24  N   UNL     1      41.607 -14.452   4.421  1.00  0.00    -0.320 N 
HETATM   25  H   UNL     1      42.133 -13.968   5.144  1.00  0.00     0.169 HD
HETATM   26  O   UNL     1      39.776 -13.971   3.049  1.00  0.00    -0.265 OA
BRANCH  24  27
HETATM   27  C   UNL     1      42.251 -15.553   3.817  1.00  0.00     0.057 A 
HETATM   28  C   UNL     1      42.626 -16.769   4.415  1.00  0.00     0.060 A 
HETATM   29 CL   UNL     1      42.596 -17.074   6.116  1.00  0.00    -0.082 Cl
HETATM   30  C   UNL     1      43.220 -17.779   3.640  1.00  0.00     0.026 A 
HETATM   31  C   UNL     1      43.481 -17.584   2.285  1.00  0.00     0.002 A 
HETATM   32  C   UNL     1      43.170 -16.367   1.696  1.00  0.00     0.002 A 
HETATM   33  C   UNL     1      42.568 -15.361   2.458  1.00  0.00     0.031 A 
ENDBRANCH  24  27
ENDBRANCH   4  23
TORSDOF 8
ENDMDL
MODEL 8
REMARK VINA RESULT:      -7.4      5.342      7.912
REMARK  8 active torsions:
REMARK  status: ('A' for Active; 'I' for Inactive)
REMARK    1  A    between atoms: C_2  and  O_3 
REMARK    2  A    between atoms: O_3  and  C_4 
REMARK    3  A    between atoms: C_5  and  N_6 
REMARK       I    between atoms: N_6  and  C_7 
REMARK    4  A    between atoms: C_7  and  C_8 
REMARK    5  A    between atoms: C_8  and  N_9 
REMARK    6  A    between atoms: C_12  and  C_13 
REMARK       I    between atoms: C_13  and  N_14 
REMARK    7  A    between atoms: N_14  and  C_15 
REMARK    8  A    between atoms: C_23  and  N_24 
ROOT
HETATM    1  N   UNL     1      41.087 -12.115   2.951  1.00  0.00    -0.248 N 
HETATM    2  N   UNL     1      42.269 -12.351   2.346  1.00  0.00     0.007 NA
HETATM    3  N   UNL     1      42.620 -13.597   2.620  1.00  0.00    -0.150 NA
HETATM    4  C   UNL     1      41.606 -14.181   3.346  1.00  0.00     0.187 A 
HETATM    5  C   UNL     1      40.593 -13.257   3.539  1.00  0.00     0.151 A 
ENDROOT
BRANCH   1   6
HETATM    6  C   UNL     1      40.512 -10.791   2.909  1.00  0.00     0.251 C 
BRANCH   6   7
HETATM    7  C   UNL     1      39.760 -10.570   1.615  1.00  0.00     0.241 C 
HETATM    8  N   UNL     1      40.510 -10.847   0.474  1.00  0.00    -0.323 N 
HETATM    9  H   UNL     1      41.509 -10.716   0.547  1.00  0.00     0.169 HD
HETATM   10  O   UNL     1      38.618 -10.123   1.610  1.00  0.00    -0.271 OA
BRANCH   8  11
HETATM   11  C   UNL     1      39.974 -10.818  -0.836  1.00  0.00     0.068 A 
HETATM   12  C   UNL     1      39.105 -11.791  -1.357  1.00  0.00     0.095 A 
HETATM   13  C   UNL     1      38.534 -11.624  -2.622  1.00  0.00     0.039 A 
HETATM   14  C   UNL     1      38.881 -10.529  -3.410  1.00  0.00     0.003 A 
HETATM   15  C   UNL     1      39.807  -9.603  -2.935  1.00  0.00     0.002 A 
HETATM   16  C   UNL     1      40.358  -9.750  -1.659  1.00  0.00     0.032 A 
BRANCH  12  17
HETATM   17  O   UNL     1      38.793 -12.966  -0.725  1.00  0.00    -0.349 OA
BRANCH  17  18
HETATM   18  C   UNL     1      39.650 -14.036  -1.141  1.00  0.00     0.171 C 
HETATM   19  C   UNL     1      40.072 -14.812   0.092  1.00  0.00     0.034 C 
ENDBRANCH  17  18
ENDBRANCH  12  17
ENDBRANCH   8  11
ENDBRANCH   6   7
ENDBRANCH   1   6
BRANCH   5  20
HETATM   20  N   UNL     1      39.391 -13.342   4.165  1.00  0.00    -0.382 N 
HETATM   21  H   UNL     1      38.679 -13.909   3.686  1.00  0.00     0.157 HD
HETATM   22  H   UNL     1      38.959 -12.521   4.582  1.00  0.00     0.157 HD
ENDBRANCH   5  20
BRANCH   4  23
HETATM   23  C   UNL     1      41.657 -15.581   3.760  1.00  0.00     0.280 C 
HETATM   24  N   UNL     1      42.775 -16.212   3.248  1.00  0.00    -0.320 N 
HETATM   25  H   UNL     1      43.262 -15.654   2.551  1.00  0.00     0.169 HD
HETATM   26  O   UNL     1      40.750 -16.083   4.410  1.00  0.00    -0.265 OA
BRANCH  24  27
HETATM   27  C   UNL     1      43.195 -17.555   3.371  1.00  0.00     0.057 A 
HETATM   28  C   UNL     1      43.814 -18.167   4.475  1.00  0.00     0.060 A 
HETATM   29 CL   UNL     1      44.427 -17.321   5.850  1.00  0.00    -0.082 Cl
HETATM   30  C   UNL     1      44.119 -19.539   4.436  1.00  0.00     0.026 A 
HETATM   31  C   UNL     1      43.853 -20.301   3.300  1.00  0.00     0.002 A 
HETATM   32  C   UNL     1      43.296 -19.694   2.183  1.00  0.00     0.002 A 
HETATM   33  C   UNL     1      42.978 -18.334   2.218  1.00  0.00     0.031 A 
ENDBRANCH  24  27
ENDBRANCH   4  23
TORSDOF 8
ENDMDL
MODEL 9
REMARK VINA RESULT:      -7.3      2.954      8.812
REMARK  8 active torsions:
REMARK  status: ('A' for Active; 'I' for Inactive)
REMARK    1  A    between atoms: C_2  and  O_3 
REMARK    2  A    between atoms: O_3  and  C_4 
REMARK    3  A    between atoms: C_5  and  N_6 
REMARK       I    between atoms: N_6  and  C_7 
REMARK    4  A    between atoms: C_7  and  C_8 
REMARK    5  A    between atoms: C_8  and  N_9 
REMARK    6  A    between atoms: C_12  and  C_13 
REMARK       I    between atoms: C_13  and  N_14 
REMARK    7  A    between atoms: N_14  and  C_15 
REMARK    8  A    between atoms: C_23  and  N_24 
ROOT
HETATM    1  N   UNL     1      39.672 -11.264   6.407  1.00  0.00    -0.248 N 
HETATM    2  N   UNL     1      38.519 -11.143   7.096  1.00  0.00     0.007 NA
HETATM    3  N   UNL     1      38.754 -10.361   8.138  1.00  0.00    -0.150 NA
HETATM    4  C   UNL     1      40.056  -9.921   8.062  1.00  0.00     0.187 A 
HETATM    5  C   UNL     1      40.655 -10.460   6.936  1.00  0.00     0.151 A 
ENDROOT
BRANCH   1   6
HETATM    6  C   UNL     1      39.737 -12.153   5.270  1.00  0.00     0.251 C 
BRANCH   6   7
HETATM    7  C   UNL     1      40.385 -13.466   5.648  1.00  0.00     0.241 C 
HETATM    8  N   UNL     1      41.578 -13.719   4.975  1.00  0.00    -0.323 N 
HETATM    9  H   UNL     1      41.671 -13.318   4.052  1.00  0.00     0.169 HD
HETATM   10  O   UNL     1      39.845 -14.241   6.431  1.00  0.00    -0.271 OA
BRANCH   8  11
HETATM   11  C   UNL     1      42.409 -14.831   5.255  1.00  0.00     0.068 A 
HETATM   12  C   UNL     1      42.358 -16.052   4.561  1.00  0.00     0.095 A 
HETATM   13  C   UNL     1      43.292 -17.057   4.829  1.00  0.00     0.039 A 
HETATM   14  C   UNL     1      44.235 -16.887   5.840  1.00  0.00     0.003 A 
HETATM   15  C   UNL     1      44.239 -15.714   6.591  1.00  0.00     0.002 A 
HETATM   16  C   UNL     1      43.325 -14.694   6.307  1.00  0.00     0.032 A 
BRANCH  12  17
HETATM   17  O   UNL     1      41.398 -16.375   3.637  1.00  0.00    -0.349 OA
BRANCH  17  18
HETATM   18  C   UNL     1      41.977 -16.872   2.425  1.00  0.00     0.171 C 
HETATM   19  C   UNL     1      42.374 -15.686   1.567  1.00  0.00     0.034 C 
ENDBRANCH  17  18
ENDBRANCH  12  17
ENDBRANCH   8  11
ENDBRANCH   6   7
ENDBRANCH   1   6
BRANCH   5  20
HETATM   20  N   UNL     1      41.902 -10.323   6.414  1.00  0.00    -0.382 N 
HETATM   21  H   UNL     1      42.383  -9.443   6.638  1.00  0.00     0.157 HD
HETATM   22  H   UNL     1      42.099 -10.593   5.454  1.00  0.00     0.157 HD
ENDBRANCH   5  20
BRANCH   4  23
HETATM   23  C   UNL     1      40.617  -8.989   9.038  1.00  0.00     0.280 C 
HETATM   24  N   UNL     1      41.133  -9.661  10.129  1.00  0.00    -0.320 N 
HETATM   25  H   UNL     1      40.885 -10.648  10.142  1.00  0.00     0.169 HD
HETATM   26  O   UNL     1      40.532  -7.779   8.879  1.00  0.00    -0.265 OA
BRANCH  24  27
HETATM   27  C   UNL     1      41.734  -9.158  11.304  1.00  0.00     0.057 A 
HETATM   28  C   UNL     1      43.057  -8.715  11.475  1.00  0.00     0.060 A 
HETATM   29 CL   UNL     1      44.321  -8.934  10.318  1.00  0.00    -0.082 Cl
HETATM   30  C   UNL     1      43.469  -8.196  12.714  1.00  0.00     0.026 A 
HETATM   31  C   UNL     1      42.593  -8.145  13.797  1.00  0.00     0.002 A 
HETATM   32  C   UNL     1      41.302  -8.634  13.658  1.00  0.00     0.002 A 
HETATM   33  C   UNL     1      40.881  -9.140  12.425  1.00  0.00     0.031 A 
ENDBRANCH  24  27
ENDBRANCH   4  23
TORSDOF 8
ENDMDL
MODEL 10
REMARK VINA RESULT:      -7.3      1.461      2.573
REMARK  8 active torsions:
REMARK  status: ('A' for Active; 'I' for Inactive)
REMARK    1  A    between atoms: C_2  and  O_3 
REMARK    2  A    between atoms: O_3  and  C_4 
REMARK    3  A    between atoms: C_5  and  N_6 
REMARK       I    between atoms: N_6  and  C_7 
REMARK    4  A    between atoms: C_7  and  C_8 
REMARK    5  A    between atoms: C_8  and  N_9 
REMARK    6  A    between atoms: C_12  and  C_13 
REMARK       I    between atoms: C_13  and  N_14 
REMARK    7  A    between atoms: N_14  and  C_15 
REMARK    8  A    between atoms: C_23  and  N_24 
ROOT
HETATM    1  N   UNL     1      42.835 -11.455   6.600  1.00  0.00    -0.248 N 
HETATM    2  N   UNL     1      43.828 -11.891   7.401  1.00  0.00     0.007 NA
HETATM    3  N   UNL     1      43.844 -13.212   7.339  1.00  0.00    -0.150 NA
HETATM    4  C   UNL     1      42.896 -13.613   6.426  1.00  0.00     0.187 A 
HETATM    5  C   UNL     1      42.259 -12.497   5.910  1.00  0.00     0.151 A 
ENDROOT
BRANCH   1   6
HETATM    6  C   UNL     1      42.516 -10.047   6.554  1.00  0.00     0.251 C 
BRANCH   6   7
HETATM    7  C   UNL     1      42.827  -9.379   7.875  1.00  0.00     0.241 C 
HETATM    8  N   UNL     1      42.016  -9.803   8.924  1.00  0.00    -0.323 N 
HETATM    9  H   UNL     1      41.083 -10.109   8.680  1.00  0.00     0.169 HD
HETATM   10  O   UNL     1      43.680  -8.502   7.960  1.00  0.00    -0.271 OA
BRANCH   8  11
HETATM   11  C   UNL     1      42.204  -9.396  10.267  1.00  0.00     0.068 A 
HETATM   12  C   UNL     1      41.663  -8.226  10.823  1.00  0.00     0.095 A 
HETATM   13  C   UNL     1      41.805  -7.960  12.188  1.00  0.00     0.039 A 
HETATM   14  C   UNL     1      42.551  -8.815  12.995  1.00  0.00     0.003 A 
HETATM   15  C   UNL     1      43.164  -9.934  12.436  1.00  0.00     0.002 A 
HETATM   16  C   UNL     1      42.999 -10.219  11.077  1.00  0.00     0.032 A 
BRANCH  12  17
HETATM   17  O   UNL     1      41.020  -7.254  10.101  1.00  0.00    -0.349 OA
BRANCH  17  18
HETATM   18  C   UNL     1      39.686  -7.036  10.577  1.00  0.00     0.171 C 
HETATM   19  C   UNL     1      38.762  -7.996   9.852  1.00  0.00     0.034 C 
ENDBRANCH  17  18
ENDBRANCH  12  17
ENDBRANCH   8  11
ENDBRANCH   6   7
ENDBRANCH   1   6
BRANCH   5  20
HETATM   20  N   UNL     1      41.277 -12.356   4.982  1.00  0.00    -0.382 N 
HETATM   21  H   UNL     1      40.868 -11.416   4.907  1.00  0.00     0.157 HD
HETATM   22  H   UNL     1      40.552 -13.061   4.877  1.00  0.00     0.157 HD
ENDBRANCH   5  20
BRANCH   4  23
HETATM   23  C   UNL     1      42.698 -15.019   6.080  1.00  0.00     0.280 C 
HETATM   24  N   UNL     1      43.332 -15.335   4.894  1.00  0.00    -0.320 N 
HETATM   25  H   UNL     1      43.671 -14.515   4.395  1.00  0.00     0.169 HD
HETATM   26  O   UNL     1      41.984 -15.744   6.760  1.00  0.00    -0.265 OA
BRANCH  24  27
HETATM   27  C   UNL     1      43.374 -16.555   4.184  1.00  0.00     0.057 A 
HETATM   28  C   UNL     1      42.654 -16.906   3.029  1.00  0.00     0.060 A 
HETATM   29 CL   UNL     1      41.352 -15.983   2.366  1.00  0.00    -0.082 Cl
HETATM   30  C   UNL     1      42.862 -18.159   2.427  1.00  0.00     0.026 A 
HETATM   31  C   UNL     1      43.748 -19.082   2.978  1.00  0.00     0.002 A 
HETATM   32  C   UNL     1      44.420 -18.770   4.152  1.00  0.00     0.002 A 
HETATM   33  C   UNL     1      44.228 -17.521   4.750  1.00  0.00     0.031 A 
ENDBRANCH  24  27
ENDBRANCH   4  23
TORSDOF 8
ENDMDL
