MODEL 1
REMARK VINA RESULT:      -8.4      0.000      0.000
REMARK  5 active torsions:
REMARK  status: ('A' for Active; 'I' for Inactive)
REMARK    1  A    between atoms: C_2  and  N_3 
REMARK       I    between atoms: N_3  and  C_4 
REMARK       I    between atoms: C_4  and  N_5 
REMARK    2  A    between atoms: C_7  and  C_8 
REMARK    3  A    between atoms: C_13  and  N_14 
REMARK       I    between atoms: N_14  and  C_15 
REMARK    4  A    between atoms: C_15  and  C_16 
REMARK    5  A    between atoms: C_19  and  O_20 
ROOT
HETATM    1  C   UNL     1      40.480 -13.265   1.488  1.00  0.00     0.088 A 
HETATM    2  N   UNL     1      39.791 -12.677   0.491  1.00  0.00    -0.177 NA
HETATM    3  N   UNL     1      39.451 -13.681  -0.326  1.00  0.00    -0.287 N 
HETATM    4  H   UNL     1      38.929 -13.456  -1.166  1.00  0.00     0.188 HD
HETATM    5  C   UNL     1      39.836 -14.905   0.123  1.00  0.00     0.141 A 
HETATM    6  C   UNL     1      40.584 -14.671   1.251  1.00  0.00     0.079 A 
ENDROOT
BRANCH   1   7
HETATM    7  C   UNL     1      40.826 -12.462   2.731  1.00  0.00     0.060 C 
HETATM    8  C   UNL     1      42.235 -11.852   2.724  1.00  0.00     0.138 C 
HETATM    9  N   UNL     1      42.507 -11.101   3.955  1.00  0.00    -0.334 N 
HETATM   10  C   UNL     1      43.198 -11.751   4.970  1.00  0.00     0.318 C 
HETATM   11  C   UNL     1      41.589  -9.991   4.188  1.00  0.00     0.127 C 
HETATM   12  N   UNL     1      43.534 -10.939   6.026  1.00  0.00    -0.339 N 
HETATM   13  O   UNL     1      43.510 -12.938   4.925  1.00  0.00    -0.247 OA
HETATM   14  H   UNL     1      43.691  -9.980   5.752  1.00  0.00     0.164 HD
HETATM   15  C   UNL     1      40.160 -10.521   4.270  1.00  0.00     0.021 C 
HETATM   16  C   UNL     1      39.798 -11.335   3.024  1.00  0.00     0.014 C 
BRANCH  12  17
HETATM   17  C   UNL     1      44.357 -11.429   7.122  1.00  0.00     0.078 C 
HETATM   18  C   UNL     1      43.946 -10.747   8.423  1.00  0.00     0.032 C 
HETATM   19  C   UNL     1      45.841 -11.193   6.838  1.00  0.00     0.032 C 
ENDBRANCH  12  17
ENDBRANCH   1   7
BRANCH   6  20
HETATM   20  N   UNL     1      41.199 -15.677   1.975  1.00  0.00    -0.320 N 
HETATM   21  C   UNL     1      42.581 -15.690   2.090  1.00  0.00     0.256 C 
HETATM   22  O   UNL     1      43.353 -14.893   1.567  1.00  0.00    -0.267 OA
HETATM   23  H   UNL     1      40.805 -16.604   1.860  1.00  0.00     0.169 HD
BRANCH  21  24
HETATM   24  C   UNL     1      43.126 -16.829   2.870  1.00  0.00     0.032 A 
HETATM   25  C   UNL     1      43.272 -18.070   2.247  1.00  0.00     0.020 A 
HETATM   26  C   UNL     1      43.811 -19.142   2.960  1.00  0.00     0.038 A 
HETATM   27  C   UNL     1      44.235 -18.975   4.281  1.00  0.00     0.068 A 
HETATM   28  C   UNL     1      44.087 -17.733   4.902  1.00  0.00     0.038 A 
HETATM   29  C   UNL     1      43.536 -16.657   4.197  1.00  0.00     0.020 A 
BRANCH  27  30
HETATM   30  O   UNL     1      44.765 -20.095   4.862  1.00  0.00    -0.356 OA
HETATM   31  C   UNL     1      43.858 -20.903   5.603  1.00  0.00     0.210 C 
ENDBRANCH  27  30
ENDBRANCH  21  24
ENDBRANCH   6  20
TORSDOF 5
ENDMDL
MODEL 2
REMARK VINA RESULT:      -8.1      1.916      5.495
REMARK  5 active torsions:
REMARK  status: ('A' for Active; 'I' for Inactive)
REMARK    1  A    between atoms: C_2  and  N_3 
REMARK       I    between atoms: N_3  and  C_4 
REMARK       I    between atoms: C_4  and  N_5 
REMARK    2  A    between atoms: C_7  and  C_8 
REMARK    3  A    between atoms: C_13  and  N_14 
REMARK       I    between atoms: N_14  and  C_15 
REMARK    4  A    between atoms: C_15  and  C_16 
REMARK    5  A    between atoms: C_19  and  O_20 
ROOT
HETATM    1  C   UNL     1      41.248 -11.906   4.734  1.00  0.00     0.088 A 
HETATM    2  N   UNL     1      41.069 -10.892   5.602  1.00  0.00    -0.177 NA
HETATM    3  N   UNL     1      41.896 -11.164   6.619  1.00  0.00    -0.287 N 
HETATM    4  H   UNL     1      41.912 -10.525   7.406  1.00  0.00     0.188 HD
HETATM    5  C   UNL     1      42.650 -12.280   6.426  1.00  0.00     0.141 A 
HETATM    6  C   UNL     1      42.196 -12.840   5.257  1.00  0.00     0.079 A 
ENDROOT
BRANCH   1   7
HETATM    7  C   UNL     1      40.643 -11.813   3.343  1.00  0.00     0.060 C 
HETATM    8  C   UNL     1      39.763 -13.008   2.950  1.00  0.00     0.138 C 
HETATM    9  N   UNL     1      39.221 -12.860   1.594  1.00  0.00    -0.334 N 
HETATM   10  C   UNL     1      39.894 -13.490   0.555  1.00  0.00     0.318 C 
HETATM   11  C   UNL     1      38.391 -11.673   1.413  1.00  0.00     0.127 C 
HETATM   12  N   UNL     1      39.247 -13.419  -0.654  1.00  0.00    -0.339 N 
HETATM   13  O   UNL     1      40.961 -14.084   0.700  1.00  0.00    -0.247 OA
HETATM   14  H   UNL     1      38.243 -13.386  -0.563  1.00  0.00     0.164 HD
HETATM   15  C   UNL     1      39.213 -10.425   1.728  1.00  0.00     0.021 C 
HETATM   16  C   UNL     1      39.831 -10.507   3.127  1.00  0.00     0.014 C 
BRANCH  12  17
HETATM   17  C   UNL     1      39.756 -14.122  -1.824  1.00  0.00     0.078 C 
HETATM   18  C   UNL     1      40.493 -13.145  -2.734  1.00  0.00     0.032 C 
HETATM   19  C   UNL     1      38.622 -14.811  -2.583  1.00  0.00     0.032 C 
ENDBRANCH  12  17
ENDBRANCH   1   7
BRANCH   6  20
HETATM   20  N   UNL     1      42.688 -14.027   4.744  1.00  0.00    -0.320 N 
HETATM   21  C   UNL     1      41.948 -15.191   4.885  1.00  0.00     0.256 C 
HETATM   22  O   UNL     1      40.876 -15.295   5.472  1.00  0.00    -0.267 OA
HETATM   23  H   UNL     1      43.683 -14.177   4.862  1.00  0.00     0.169 HD
BRANCH  21  24
HETATM   24  C   UNL     1      42.587 -16.404   4.316  1.00  0.00     0.032 A 
HETATM   25  C   UNL     1      42.287 -16.777   3.005  1.00  0.00     0.020 A 
HETATM   26  C   UNL     1      42.903 -17.899   2.447  1.00  0.00     0.038 A 
HETATM   27  C   UNL     1      43.842 -18.631   3.180  1.00  0.00     0.068 A 
HETATM   28  C   UNL     1      44.139 -18.255   4.492  1.00  0.00     0.038 A 
HETATM   29  C   UNL     1      43.516 -17.140   5.061  1.00  0.00     0.020 A 
BRANCH  27  30
HETATM   30  O   UNL     1      44.390 -19.693   2.515  1.00  0.00    -0.356 OA
HETATM   31  C   UNL     1      43.488 -20.480   1.745  1.00  0.00     0.210 C 
ENDBRANCH  27  30
ENDBRANCH  21  24
ENDBRANCH   6  20
TORSDOF 5
ENDMDL
MODEL 3
REMARK VINA RESULT:      -7.9      2.441      6.008
REMARK  5 active torsions:
REMARK  status: ('A' for Active; 'I' for Inactive)
REMARK    1  A    between atoms: C_2  and  N_3 
REMARK       I    between atoms: N_3  and  C_4 
REMARK       I    between atoms: C_4  and  N_5 
REMARK    2  A    between atoms: C_7  and  C_8 
REMARK    3  A    between atoms: C_13  and  N_14 
REMARK       I    between atoms: N_14  and  C_15 
REMARK    4  A    between atoms: C_15  and  C_16 
REMARK    5  A    between atoms: C_19  and  O_20 
ROOT
HETATM    1  C   UNL     1      43.340 -17.745   4.114  1.00  0.00     0.088 A 
HETATM    2  N   UNL     1      44.003 -18.916   4.173  1.00  0.00    -0.177 NA
HETATM    3  N   UNL     1      43.814 -19.475   2.971  1.00  0.00    -0.287 N 
HETATM    4  H   UNL     1      44.223 -20.387   2.799  1.00  0.00     0.188 HD
HETATM    5  C   UNL     1      43.106 -18.695   2.111  1.00  0.00     0.141 A 
HETATM    6  C   UNL     1      42.704 -17.604   2.841  1.00  0.00     0.079 A 
ENDROOT
BRANCH   1   7
HETATM    7  C   UNL     1      43.528 -16.725   5.224  1.00  0.00     0.060 C 
HETATM    8  C   UNL     1      42.368 -15.732   5.381  1.00  0.00     0.138 C 
HETATM    9  N   UNL     1      42.619 -14.770   6.460  1.00  0.00    -0.334 N 
HETATM   10  C   UNL     1      43.142 -13.530   6.113  1.00  0.00     0.318 C 
HETATM   11  C   UNL     1      42.804 -15.383   7.771  1.00  0.00     0.127 C 
HETATM   12  N   UNL     1      43.215 -12.642   7.159  1.00  0.00    -0.339 N 
HETATM   13  O   UNL     1      43.486 -13.235   4.971  1.00  0.00    -0.247 OA
HETATM   14  H   UNL     1      42.491 -12.783   7.847  1.00  0.00     0.164 HD
HETATM   15  C   UNL     1      43.986 -16.348   7.719  1.00  0.00     0.021 C 
HETATM   16  C   UNL     1      43.810 -17.381   6.603  1.00  0.00     0.014 C 
BRANCH  12  17
HETATM   17  C   UNL     1      43.632 -11.263   6.949  1.00  0.00     0.078 C 
HETATM   18  C   UNL     1      44.798 -10.929   7.874  1.00  0.00     0.032 C 
HETATM   19  C   UNL     1      42.468 -10.300   7.183  1.00  0.00     0.032 C 
ENDBRANCH  12  17
ENDBRANCH   1   7
BRANCH   6  20
HETATM   20  N   UNL     1      41.912 -16.595   2.322  1.00  0.00    -0.320 N 
HETATM   21  C   UNL     1      42.510 -15.498   1.721  1.00  0.00     0.256 C 
HETATM   22  O   UNL     1      43.717 -15.298   1.628  1.00  0.00    -0.267 OA
HETATM   23  H   UNL     1      41.099 -16.346   2.875  1.00  0.00     0.169 HD
BRANCH  21  24
HETATM   24  C   UNL     1      41.561 -14.471   1.224  1.00  0.00     0.032 A 
HETATM   25  C   UNL     1      40.571 -14.846   0.314  1.00  0.00     0.020 A 
HETATM   26  C   UNL     1      39.653 -13.897  -0.140  1.00  0.00     0.038 A 
HETATM   27  C   UNL     1      39.698 -12.582   0.334  1.00  0.00     0.068 A 
HETATM   28  C   UNL     1      40.691 -12.210   1.243  1.00  0.00     0.038 A 
HETATM   29  C   UNL     1      41.621 -13.153   1.693  1.00  0.00     0.020 A 
BRANCH  27  30
HETATM   30  O   UNL     1      38.732 -11.755  -0.170  1.00  0.00    -0.356 OA
HETATM   31  C   UNL     1      38.047 -12.227  -1.325  1.00  0.00     0.210 C 
ENDBRANCH  27  30
ENDBRANCH  21  24
ENDBRANCH   6  20
TORSDOF 5
ENDMDL
MODEL 4
REMARK VINA RESULT:      -7.8      2.818      8.018
REMARK  5 active torsions:
REMARK  status: ('A' for Active; 'I' for Inactive)
REMARK    1  A    between atoms: C_2  and  N_3 
REMARK       I    between atoms: N_3  and  C_4 
REMARK       I    between atoms: C_4  and  N_5 
REMARK    2  A    between atoms: C_7  and  C_8 
REMARK    3  A    between atoms: C_13  and  N_14 
REMARK       I    between atoms: N_14  and  C_15 
REMARK    4  A    between atoms: C_15  and  C_16 
REMARK    5  A    between atoms: C_19  and  O_20 
ROOT
HETATM    1  C   UNL     1      43.064 -16.064   5.923  1.00  0.00     0.088 A 
HETATM    2  N   UNL     1      43.479 -17.195   6.527  1.00  0.00    -0.177 NA
HETATM    3  N   UNL     1      43.494 -16.899   7.832  1.00  0.00    -0.287 N 
HETATM    4  H   UNL     1      43.795 -17.617   8.481  1.00  0.00     0.188 HD
HETATM    5  C   UNL     1      43.052 -15.644   8.113  1.00  0.00     0.141 A 
HETATM    6  C   UNL     1      42.848 -15.039   6.897  1.00  0.00     0.079 A 
ENDROOT
BRANCH   1   7
HETATM    7  C   UNL     1      42.698 -16.096   4.449  1.00  0.00     0.060 C 
HETATM    8  C   UNL     1      43.163 -14.871   3.650  1.00  0.00     0.138 C 
HETATM    9  N   UNL     1      42.768 -14.961   2.240  1.00  0.00    -0.334 N 
HETATM   10  C   UNL     1      41.605 -14.308   1.851  1.00  0.00     0.318 C 
HETATM   11  C   UNL     1      43.310 -16.123   1.545  1.00  0.00     0.127 C 
HETATM   12  N   UNL     1      41.382 -14.324   0.495  1.00  0.00    -0.339 N 
HETATM   13  O   UNL     1      40.850 -13.742   2.637  1.00  0.00    -0.247 OA
HETATM   14  H   UNL     1      42.235 -14.339  -0.044  1.00  0.00     0.164 HD
HETATM   15  C   UNL     1      42.843 -17.397   2.244  1.00  0.00     0.021 C 
HETATM   16  C   UNL     1      43.203 -17.377   3.732  1.00  0.00     0.014 C 
BRANCH  12  17
HETATM   17  C   UNL     1      40.271 -13.590  -0.095  1.00  0.00     0.078 C 
HETATM   18  C   UNL     1      39.564 -14.465  -1.126  1.00  0.00     0.032 C 
HETATM   19  C   UNL     1      40.755 -12.290  -0.736  1.00  0.00     0.032 C 
ENDBRANCH  12  17
ENDBRANCH   1   7
BRANCH   6  20
HETATM   20  N   UNL     1      42.438 -13.724   6.763  1.00  0.00    -0.320 N 
HETATM   21  C   UNL     1      43.387 -12.723   6.621  1.00  0.00     0.256 C 
HETATM   22  O   UNL     1      44.604 -12.879   6.639  1.00  0.00    -0.267 OA
HETATM   23  H   UNL     1      41.657 -13.446   7.347  1.00  0.00     0.169 HD
BRANCH  21  24
HETATM   24  C   UNL     1      42.829 -11.353   6.510  1.00  0.00     0.032 A 
HETATM   25  C   UNL     1      41.870 -11.088   5.530  1.00  0.00     0.020 A 
HETATM   26  C   UNL     1      41.315  -9.811   5.433  1.00  0.00     0.038 A 
HETATM   27  C   UNL     1      41.689  -8.804   6.329  1.00  0.00     0.068 A 
HETATM   28  C   UNL     1      42.649  -9.072   7.307  1.00  0.00     0.038 A 
HETATM   29  C   UNL     1      43.218 -10.347   7.402  1.00  0.00     0.020 A 
BRANCH  27  30
HETATM   30  O   UNL     1      41.057  -7.605   6.143  1.00  0.00    -0.356 OA
HETATM   31  C   UNL     1      41.713  -6.464   6.685  1.00  0.00     0.210 C 
ENDBRANCH  27  30
ENDBRANCH  21  24
ENDBRANCH   6  20
TORSDOF 5
ENDMDL
MODEL 5
REMARK VINA RESULT:      -7.8      1.631      1.981
REMARK  5 active torsions:
REMARK  status: ('A' for Active; 'I' for Inactive)
REMARK    1  A    between atoms: C_2  and  N_3 
REMARK       I    between atoms: N_3  and  C_4 
REMARK       I    between atoms: C_4  and  N_5 
REMARK    2  A    between atoms: C_7  and  C_8 
REMARK    3  A    between atoms: C_13  and  N_14 
REMARK       I    between atoms: N_14  and  C_15 
REMARK    4  A    between atoms: C_15  and  C_16 
REMARK    5  A    between atoms: C_19  and  O_20 
ROOT
HETATM    1  C   UNL     1      41.450 -12.028   2.722  1.00  0.00     0.088 A 
HETATM    2  N   UNL     1      40.884 -11.145   1.875  1.00  0.00    -0.177 NA
HETATM    3  N   UNL     1      40.869 -11.771   0.692  1.00  0.00    -0.287 N 
HETATM    4  H   UNL     1      40.491 -11.272  -0.106  1.00  0.00     0.188 HD
HETATM    5  C   UNL     1      41.345 -13.044   0.740  1.00  0.00     0.141 A 
HETATM    6  C   UNL     1      41.815 -13.218   2.018  1.00  0.00     0.079 A 
ENDROOT
BRANCH   1   7
HETATM    7  C   UNL     1      41.420 -11.753   4.216  1.00  0.00     0.060 C 
HETATM    8  C   UNL     1      42.083 -10.434   4.635  1.00  0.00     0.138 C 
HETATM    9  N   UNL     1      42.029 -10.237   6.088  1.00  0.00    -0.334 N 
HETATM   10  C   UNL     1      43.145 -10.601   6.832  1.00  0.00     0.318 C 
HETATM   11  C   UNL     1      40.675 -10.197   6.632  1.00  0.00     0.127 C 
HETATM   12  N   UNL     1      43.067 -10.256   8.159  1.00  0.00    -0.339 N 
HETATM   13  O   UNL     1      44.128 -11.159   6.351  1.00  0.00    -0.247 OA
HETATM   14  H   UNL     1      42.523  -9.421   8.319  1.00  0.00     0.164 HD
HETATM   15  C   UNL     1      39.960 -11.507   6.310  1.00  0.00     0.021 C 
HETATM   16  C   UNL     1      39.985 -11.797   4.807  1.00  0.00     0.014 C 
BRANCH  12  17
HETATM   17  C   UNL     1      44.194 -10.461   9.058  1.00  0.00     0.078 C 
HETATM   18  C   UNL     1      43.696 -10.571  10.496  1.00  0.00     0.032 C 
HETATM   19  C   UNL     1      45.209  -9.325   8.928  1.00  0.00     0.032 C 
ENDBRANCH  12  17
ENDBRANCH   1   7
BRANCH   6  20
HETATM   20  N   UNL     1      42.427 -14.382   2.449  1.00  0.00    -0.320 N 
HETATM   21  C   UNL     1      41.673 -15.353   3.092  1.00  0.00     0.256 C 
HETATM   22  O   UNL     1      40.480 -15.272   3.365  1.00  0.00    -0.267 OA
HETATM   23  H   UNL     1      43.350 -14.271   2.851  1.00  0.00     0.169 HD
BRANCH  21  24
HETATM   24  C   UNL     1      42.442 -16.545   3.527  1.00  0.00     0.032 A 
HETATM   25  C   UNL     1      42.849 -17.477   2.570  1.00  0.00     0.020 A 
HETATM   26  C   UNL     1      43.598 -18.588   2.962  1.00  0.00     0.038 A 
HETATM   27  C   UNL     1      43.969 -18.759   4.299  1.00  0.00     0.068 A 
HETATM   28  C   UNL     1      43.559 -17.826   5.254  1.00  0.00     0.038 A 
HETATM   29  C   UNL     1      42.799 -16.716   4.870  1.00  0.00     0.020 A 
BRANCH  27  30
HETATM   30  O   UNL     1      44.720 -19.875   4.550  1.00  0.00    -0.356 OA
HETATM   31  C   UNL     1      44.101 -20.877   5.348  1.00  0.00     0.210 C 
ENDBRANCH  27  30
ENDBRANCH  21  24
ENDBRANCH   6  20
TORSDOF 5
ENDMDL
MODEL 6
REMARK VINA RESULT:      -7.7     15.368     17.690
REMARK  5 active torsions:
REMARK  status: ('A' for Active; 'I' for Inactive)
REMARK    1  A    between atoms: C_2  and  N_3 
REMARK       I    between atoms: N_3  and  C_4 
REMARK       I    between atoms: C_4  and  N_5 
REMARK    2  A    between atoms: C_7  and  C_8 
REMARK    3  A    between atoms: C_13  and  N_14 
REMARK       I    between atoms: N_14  and  C_15 
REMARK    4  A    between atoms: C_15  and  C_16 
REMARK    5  A    between atoms: C_19  and  O_20 
ROOT
HETATM    1  C   UNL     1      43.970 -29.466   0.281  1.00  0.00     0.088 A 
HETATM    2  N   UNL     1      42.670 -29.131   0.388  1.00  0.00    -0.177 NA
HETATM    3  N   UNL     1      42.455 -29.019   1.705  1.00  0.00    -0.287 N 
HETATM    4  H   UNL     1      41.519 -28.783   2.017  1.00  0.00     0.188 HD
HETATM    5  C   UNL     1      43.570 -29.209   2.459  1.00  0.00     0.141 A 
HETATM    6  C   UNL     1      44.555 -29.589   1.580  1.00  0.00     0.079 A 
ENDROOT
BRANCH   1   7
HETATM    7  C   UNL     1      44.635 -29.448  -1.085  1.00  0.00     0.060 C 
HETATM    8  C   UNL     1      43.658 -29.418  -2.269  1.00  0.00     0.138 C 
HETATM    9  N   UNL     1      44.365 -29.414  -3.555  1.00  0.00    -0.334 N 
HETATM   10  C   UNL     1      44.532 -30.630  -4.206  1.00  0.00     0.318 C 
HETATM   11  C   UNL     1      45.255 -28.272  -3.740  1.00  0.00     0.127 C 
HETATM   12  N   UNL     1      45.076 -30.521  -5.463  1.00  0.00    -0.339 N 
HETATM   13  O   UNL     1      44.203 -31.710  -3.720  1.00  0.00    -0.247 OA
HETATM   14  H   UNL     1      44.833 -29.657  -5.923  1.00  0.00     0.164 HD
HETATM   15  C   UNL     1      46.303 -28.261  -2.630  1.00  0.00     0.021 C 
HETATM   16  C   UNL     1      45.647 -28.281  -1.246  1.00  0.00     0.014 C 
BRANCH  12  17
HETATM   17  C   UNL     1      45.214 -31.684  -6.327  1.00  0.00     0.078 C 
HETATM   18  C   UNL     1      46.692 -32.008  -6.524  1.00  0.00     0.032 C 
HETATM   19  C   UNL     1      44.533 -31.447  -7.675  1.00  0.00     0.032 C 
ENDBRANCH  12  17
ENDBRANCH   1   7
BRANCH   6  20
HETATM   20  N   UNL     1      45.838 -29.922   1.977  1.00  0.00    -0.320 N 
HETATM   21  C   UNL     1      46.776 -28.918   2.168  1.00  0.00     0.256 C 
HETATM   22  O   UNL     1      46.595 -27.720   1.979  1.00  0.00    -0.267 OA
HETATM   23  H   UNL     1      46.230 -30.750   1.545  1.00  0.00     0.169 HD
BRANCH  21  24
HETATM   24  C   UNL     1      48.122 -29.398   2.570  1.00  0.00     0.032 A 
HETATM   25  C   UNL     1      48.556 -29.181   3.879  1.00  0.00     0.020 A 
HETATM   26  C   UNL     1      49.808 -29.652   4.279  1.00  0.00     0.038 A 
HETATM   27  C   UNL     1      50.616 -30.366   3.389  1.00  0.00     0.068 A 
HETATM   28  C   UNL     1      50.179 -30.581   2.080  1.00  0.00     0.038 A 
HETATM   29  C   UNL     1      48.931 -30.101   1.669  1.00  0.00     0.020 A 
BRANCH  27  30
HETATM   30  O   UNL     1      51.807 -30.793   3.908  1.00  0.00    -0.356 OA
HETATM   31  C   UNL     1      51.748 -31.379   5.204  1.00  0.00     0.210 C 
ENDBRANCH  27  30
ENDBRANCH  21  24
ENDBRANCH   6  20
TORSDOF 5
ENDMDL
MODEL 7
REMARK VINA RESULT:      -7.6      2.638      5.795
REMARK  5 active torsions:
REMARK  status: ('A' for Active; 'I' for Inactive)
REMARK    1  A    between atoms: C_2  and  N_3 
REMARK       I    between atoms: N_3  and  C_4 
REMARK       I    between atoms: C_4  and  N_5 
REMARK    2  A    between atoms: C_7  and  C_8 
REMARK    3  A    between atoms: C_13  and  N_14 
REMARK       I    between atoms: N_14  and  C_15 
REMARK    4  A    between atoms: C_15  and  C_16 
REMARK    5  A    between atoms: C_19  and  O_20 
ROOT
HETATM    1  C   UNL     1      42.518 -16.112   3.993  1.00  0.00     0.088 A 
HETATM    2  N   UNL     1      43.027 -17.252   4.499  1.00  0.00    -0.177 NA
HETATM    3  N   UNL     1      43.379 -17.973   3.427  1.00  0.00    -0.287 N 
HETATM    4  H   UNL     1      43.779 -18.892   3.581  1.00  0.00     0.188 HD
HETATM    5  C   UNL     1      43.177 -17.330   2.246  1.00  0.00     0.141 A 
HETATM    6  C   UNL     1      42.537 -16.157   2.564  1.00  0.00     0.079 A 
ENDROOT
BRANCH   1   7
HETATM    7  C   UNL     1      42.228 -14.947   4.924  1.00  0.00     0.060 C 
HETATM    8  C   UNL     1      42.984 -13.655   4.583  1.00  0.00     0.138 C 
HETATM    9  N   UNL     1      42.667 -12.576   5.525  1.00  0.00    -0.334 N 
HETATM   10  C   UNL     1      43.540 -12.365   6.585  1.00  0.00     0.318 C 
HETATM   11  C   UNL     1      41.253 -12.216   5.562  1.00  0.00     0.127 C 
HETATM   12  N   UNL     1      43.248 -11.253   7.337  1.00  0.00    -0.339 N 
HETATM   13  O   UNL     1      44.504 -13.088   6.823  1.00  0.00    -0.247 OA
HETATM   14  H   UNL     1      42.816 -10.516   6.800  1.00  0.00     0.164 HD
HETATM   15  C   UNL     1      40.428 -13.439   5.956  1.00  0.00     0.021 C 
HETATM   16  C   UNL     1      40.713 -14.623   5.027  1.00  0.00     0.014 C 
BRANCH  12  17
HETATM   17  C   UNL     1      44.125 -10.821   8.416  1.00  0.00     0.078 C 
HETATM   18  C   UNL     1      43.337  -9.986   9.420  1.00  0.00     0.032 C 
HETATM   19  C   UNL     1      45.311 -10.025   7.870  1.00  0.00     0.032 C 
ENDBRANCH  12  17
ENDBRANCH   1   7
BRANCH   6  20
HETATM   20  N   UNL     1      42.116 -15.243   1.615  1.00  0.00    -0.320 N 
HETATM   21  C   UNL     1      40.782 -15.215   1.238  1.00  0.00     0.256 C 
HETATM   22  O   UNL     1      39.904 -15.969   1.645  1.00  0.00    -0.267 OA
HETATM   23  H   UNL     1      42.748 -15.096   0.836  1.00  0.00     0.169 HD
BRANCH  21  24
HETATM   24  C   UNL     1      40.454 -14.209   0.197  1.00  0.00     0.032 A 
HETATM   25  C   UNL     1      39.620 -14.575  -0.861  1.00  0.00     0.020 A 
HETATM   26  C   UNL     1      39.279 -13.631  -1.832  1.00  0.00     0.038 A 
HETATM   27  C   UNL     1      39.740 -12.315  -1.734  1.00  0.00     0.068 A 
HETATM   28  C   UNL     1      40.574 -11.952  -0.675  1.00  0.00     0.038 A 
HETATM   29  C   UNL     1      40.929 -12.896   0.294  1.00  0.00     0.020 A 
BRANCH  27  30
HETATM   30  O   UNL     1      39.318 -11.482  -2.734  1.00  0.00    -0.356 OA
HETATM   31  C   UNL     1      40.289 -10.572  -3.239  1.00  0.00     0.210 C 
ENDBRANCH  27  30
ENDBRANCH  21  24
ENDBRANCH   6  20
TORSDOF 5
ENDMDL
MODEL 8
REMARK VINA RESULT:      -7.3     15.715     17.723
REMARK  5 active torsions:
REMARK  status: ('A' for Active; 'I' for Inactive)
REMARK    1  A    between atoms: C_2  and  N_3 
REMARK       I    between atoms: N_3  and  C_4 
REMARK       I    between atoms: C_4  and  N_5 
REMARK    2  A    between atoms: C_7  and  C_8 
REMARK    3  A    between atoms: C_13  and  N_14 
REMARK       I    between atoms: N_14  and  C_15 
REMARK    4  A    between atoms: C_15  and  C_16 
REMARK    5  A    between atoms: C_19  and  O_20 
ROOT
HETATM    1  C   UNL     1      48.875 -30.704   3.698  1.00  0.00     0.088 A 
HETATM    2  N   UNL     1      49.920 -30.864   4.534  1.00  0.00    -0.177 NA
HETATM    3  N   UNL     1      50.973 -30.388   3.858  1.00  0.00    -0.287 N 
HETATM    4  H   UNL     1      51.883 -30.424   4.304  1.00  0.00     0.188 HD
HETATM    5  C   UNL     1      50.653 -29.871   2.641  1.00  0.00     0.141 A 
HETATM    6  C   UNL     1      49.318 -30.138   2.461  1.00  0.00     0.079 A 
ENDROOT
BRANCH   1   7
HETATM    7  C   UNL     1      47.464 -30.919   4.218  1.00  0.00     0.060 C 
HETATM    8  C   UNL     1      46.563 -31.747   3.292  1.00  0.00     0.138 C 
HETATM    9  N   UNL     1      45.214 -31.906   3.848  1.00  0.00    -0.334 N 
HETATM   10  C   UNL     1      44.226 -31.031   3.410  1.00  0.00     0.318 C 
HETATM   11  C   UNL     1      45.181 -32.574   5.145  1.00  0.00     0.127 C 
HETATM   12  N   UNL     1      42.968 -31.335   3.870  1.00  0.00    -0.339 N 
HETATM   13  O   UNL     1      44.445 -30.084   2.659  1.00  0.00    -0.247 OA
HETATM   14  H   UNL     1      42.829 -32.323   4.017  1.00  0.00     0.164 HD
HETATM   15  C   UNL     1      46.010 -31.777   6.148  1.00  0.00     0.021 C 
HETATM   16  C   UNL     1      47.435 -31.551   5.635  1.00  0.00     0.014 C 
BRANCH  12  17
HETATM   17  C   UNL     1      41.801 -30.590   3.418  1.00  0.00     0.078 C 
HETATM   18  C   UNL     1      40.776 -30.502   4.545  1.00  0.00     0.032 C 
HETATM   19  C   UNL     1      41.183 -31.241   2.181  1.00  0.00     0.032 C 
ENDBRANCH  12  17
ENDBRANCH   1   7
BRANCH   6  20
HETATM   20  N   UNL     1      48.627 -29.807   1.309  1.00  0.00    -0.320 N 
HETATM   21  C   UNL     1      47.801 -28.694   1.304  1.00  0.00     0.256 C 
HETATM   22  O   UNL     1      47.577 -27.960   2.261  1.00  0.00    -0.267 OA
HETATM   23  H   UNL     1      48.240 -30.587   0.790  1.00  0.00     0.169 HD
BRANCH  21  24
HETATM   24  C   UNL     1      47.095 -28.453   0.021  1.00  0.00     0.032 A 
HETATM   25  C   UNL     1      47.821 -28.495  -1.171  1.00  0.00     0.020 A 
HETATM   26  C   UNL     1      47.165 -28.299  -2.388  1.00  0.00     0.038 A 
HETATM   27  C   UNL     1      45.783 -28.093  -2.424  1.00  0.00     0.068 A 
HETATM   28  C   UNL     1      45.060 -28.050  -1.230  1.00  0.00     0.038 A 
HETATM   29  C   UNL     1      45.713 -28.233  -0.007  1.00  0.00     0.020 A 
BRANCH  27  30
HETATM   30  O   UNL     1      45.257 -27.937  -3.677  1.00  0.00    -0.356 OA
HETATM   31  C   UNL     1      44.850 -29.132  -4.336  1.00  0.00     0.210 C 
ENDBRANCH  27  30
ENDBRANCH  21  24
ENDBRANCH   6  20
TORSDOF 5
ENDMDL
MODEL 9
REMARK VINA RESULT:      -7.2      1.915      6.546
REMARK  5 active torsions:
REMARK  status: ('A' for Active; 'I' for Inactive)
REMARK    1  A    between atoms: C_2  and  N_3 
REMARK       I    between atoms: N_3  and  C_4 
REMARK       I    between atoms: C_4  and  N_5 
REMARK    2  A    between atoms: C_7  and  C_8 
REMARK    3  A    between atoms: C_13  and  N_14 
REMARK       I    between atoms: N_14  and  C_15 
REMARK    4  A    between atoms: C_15  and  C_16 
REMARK    5  A    between atoms: C_19  and  O_20 
ROOT
HETATM    1  C   UNL     1      40.571 -11.433   1.812  1.00  0.00     0.088 A 
HETATM    2  N   UNL     1      39.814 -10.870   0.850  1.00  0.00    -0.177 NA
HETATM    3  N   UNL     1      39.955  -9.551   1.034  1.00  0.00    -0.287 N 
HETATM    4  H   UNL     1      39.449  -8.926   0.416  1.00  0.00     0.188 HD
HETATM    5  C   UNL     1      40.817  -9.228   2.036  1.00  0.00     0.141 A 
HETATM    6  C   UNL     1      41.169 -10.419   2.624  1.00  0.00     0.079 A 
ENDROOT
BRANCH   1   7
HETATM    7  C   UNL     1      40.842 -12.927   1.768  1.00  0.00     0.060 C 
HETATM    8  C   UNL     1      40.645 -13.650   3.108  1.00  0.00     0.138 C 
HETATM    9  N   UNL     1      40.935 -15.085   2.997  1.00  0.00    -0.334 N 
HETATM   10  C   UNL     1      42.199 -15.521   3.374  1.00  0.00     0.318 C 
HETATM   11  C   UNL     1      40.094 -15.787   2.033  1.00  0.00     0.127 C 
HETATM   12  N   UNL     1      42.342 -16.887   3.374  1.00  0.00    -0.339 N 
HETATM   13  O   UNL     1      43.107 -14.762   3.704  1.00  0.00    -0.247 OA
HETATM   14  H   UNL     1      41.484 -17.373   3.588  1.00  0.00     0.164 HD
HETATM   15  C   UNL     1      40.277 -15.166   0.651  1.00  0.00     0.021 C 
HETATM   16  C   UNL     1      40.008 -13.658   0.682  1.00  0.00     0.014 C 
BRANCH  12  17
HETATM   17  C   UNL     1      43.565 -17.517   3.851  1.00  0.00     0.078 C 
HETATM   18  C   UNL     1      43.903 -18.719   2.973  1.00  0.00     0.032 C 
HETATM   19  C   UNL     1      43.426 -17.942   5.312  1.00  0.00     0.032 C 
ENDBRANCH  12  17
ENDBRANCH   1   7
BRANCH   6  20
HETATM   20  N   UNL     1      42.004 -10.503   3.723  1.00  0.00    -0.320 N 
HETATM   21  C   UNL     1      41.455 -10.605   4.993  1.00  0.00     0.256 C 
HETATM   22  O   UNL     1      40.258 -10.591   5.261  1.00  0.00    -0.267 OA
HETATM   23  H   UNL     1      42.826  -9.911   3.697  1.00  0.00     0.169 HD
BRANCH  21  24
HETATM   24  C   UNL     1      42.449 -10.665   6.094  1.00  0.00     0.032 A 
HETATM   25  C   UNL     1      43.476 -11.608   6.029  1.00  0.00     0.020 A 
HETATM   26  C   UNL     1      44.435 -11.657   7.043  1.00  0.00     0.038 A 
HETATM   27  C   UNL     1      44.391 -10.749   8.105  1.00  0.00     0.068 A 
HETATM   28  C   UNL     1      43.361  -9.808   8.167  1.00  0.00     0.038 A 
HETATM   29  C   UNL     1      42.391  -9.761   7.161  1.00  0.00     0.020 A 
BRANCH  27  30
HETATM   30  O   UNL     1      45.398 -10.885   9.021  1.00  0.00    -0.356 OA
HETATM   31  C   UNL     1      45.289 -10.085  10.193  1.00  0.00     0.210 C 
ENDBRANCH  27  30
ENDBRANCH  21  24
ENDBRANCH   6  20
TORSDOF 5
ENDMDL
MODEL 10
REMARK VINA RESULT:      -7.2      3.804      9.295
REMARK  5 active torsions:
REMARK  status: ('A' for Active; 'I' for Inactive)
REMARK    1  A    between atoms: C_2  and  N_3 
REMARK       I    between atoms: N_3  and  C_4 
REMARK       I    between atoms: C_4  and  N_5 
REMARK    2  A    between atoms: C_7  and  C_8 
REMARK    3  A    between atoms: C_13  and  N_14 
REMARK       I    between atoms: N_14  and  C_15 
REMARK    4  A    between atoms: C_15  and  C_16 
REMARK    5  A    between atoms: C_19  and  O_20 
ROOT
HETATM    1  C   UNL     1      44.542 -11.012   6.621  1.00  0.00     0.088 A 
HETATM    2  N   UNL     1      45.777 -11.245   6.134  1.00  0.00    -0.177 NA
HETATM    3  N   UNL     1      46.606 -10.711   7.039  1.00  0.00    -0.287 N 
HETATM    4  H   UNL     1      47.603 -10.761   6.860  1.00  0.00     0.188 HD
HETATM    5  C   UNL     1      45.971 -10.192   8.124  1.00  0.00     0.141 A 
HETATM    6  C   UNL     1      44.628 -10.287   7.851  1.00  0.00     0.079 A 
ENDROOT
BRANCH   1   7
HETATM    7  C   UNL     1      43.345 -11.687   5.973  1.00  0.00     0.060 C 
HETATM    8  C   UNL     1      43.324 -13.216   6.111  1.00  0.00     0.138 C 
HETATM    9  N   UNL     1      42.150 -13.804   5.455  1.00  0.00    -0.334 N 
HETATM   10  C   UNL     1      42.308 -14.295   4.165  1.00  0.00     0.318 C 
HETATM   11  C   UNL     1      40.875 -13.334   5.988  1.00  0.00     0.127 C 
HETATM   12  N   UNL     1      41.204 -14.952   3.679  1.00  0.00    -0.339 N 
HETATM   13  O   UNL     1      43.346 -14.181   3.518  1.00  0.00    -0.247 OA
HETATM   14  H   UNL     1      40.666 -15.408   4.400  1.00  0.00     0.164 HD
HETATM   15  C   UNL     1      40.788 -11.818   5.834  1.00  0.00     0.021 C 
HETATM   16  C   UNL     1      41.990 -11.125   6.481  1.00  0.00     0.014 C 
BRANCH  12  17
HETATM   17  C   UNL     1      41.236 -15.626   2.388  1.00  0.00     0.078 C 
HETATM   18  C   UNL     1      39.826 -15.705   1.811  1.00  0.00     0.032 C 
HETATM   19  C   UNL     1      41.841 -17.024   2.518  1.00  0.00     0.032 C 
ENDBRANCH  12  17
ENDBRANCH   1   7
BRANCH   6  20
HETATM   20  N   UNL     1      43.646  -9.815   8.703  1.00  0.00    -0.320 N 
HETATM   21  C   UNL     1      43.549 -10.332   9.986  1.00  0.00     0.256 C 
HETATM   22  O   UNL     1      44.245 -11.226  10.456  1.00  0.00    -0.267 OA
HETATM   23  H   UNL     1      42.742  -9.643   8.279  1.00  0.00     0.169 HD
BRANCH  21  24
HETATM   24  C   UNL     1      42.444  -9.766  10.800  1.00  0.00     0.032 A 
HETATM   25  C   UNL     1      41.360  -9.171  10.151  1.00  0.00     0.020 A 
HETATM   26  C   UNL     1      40.300  -8.661  10.903  1.00  0.00     0.038 A 
HETATM   27  C   UNL     1      40.300  -8.770  12.296  1.00  0.00     0.068 A 
HETATM   28  C   UNL     1      41.386  -9.366  12.942  1.00  0.00     0.038 A 
HETATM   29  C   UNL     1      42.458  -9.868  12.196  1.00  0.00     0.020 A 
BRANCH  27  30
HETATM   30  O   UNL     1      39.195  -8.252  12.915  1.00  0.00    -0.356 OA
HETATM   31  C   UNL     1      39.407  -7.078  13.690  1.00  0.00     0.210 C 
ENDBRANCH  27  30
ENDBRANCH  21  24
ENDBRANCH   6  20
TORSDOF 5
ENDMDL
