MODEL 1
REMARK VINA RESULT:      -8.1      0.000      0.000
REMARK  5 active torsions:
REMARK  status: ('A' for Active; 'I' for Inactive)
REMARK    1  A    between atoms: C_2  and  C_3 
REMARK    2  A    between atoms: C_3  and  N_4 
REMARK    3  A    between atoms: C_3  and  C_18 
REMARK    4  A    between atoms: N_4  and  C_7 
REMARK    5  A    between atoms: C_7  and  C_8 
ROOT
HETATM    1  N   UNL     1      42.881 -14.219   4.375  1.00  0.00    -0.056 N 
HETATM    2  H   UNL     1      41.925 -14.233   4.753  1.00  0.00     0.278 HD
HETATM    3  H   UNL     1      43.497 -14.572   5.114  1.00  0.00     0.278 HD
ENDROOT
BRANCH   1   4
HETATM    4  C   UNL     1      42.900 -15.160   3.204  1.00  0.00     0.292 C 
BRANCH   4   5
HETATM    5  C   UNL     1      43.314 -16.559   3.631  1.00  0.00    -0.020 A 
HETATM    6  C   UNL     1      43.439 -17.620   2.712  1.00  0.00     0.011 A 
HETATM    7  C   UNL     1      43.810 -18.898   3.142  1.00  0.00     0.024 A 
HETATM    8  C   UNL     1      44.060 -19.134   4.490  1.00  0.00     0.034 A 
HETATM    9  C   UNL     1      43.945 -18.100   5.415  1.00  0.00     0.024 A 
HETATM   10 CL   UNL     1      44.517 -20.705   5.014  1.00  0.00    -0.084 Cl
HETATM   11  C   UNL     1      43.574 -16.820   4.990  1.00  0.00     0.011 A 
ENDBRANCH   4   5
BRANCH   4  12
HETATM   12  C   UNL     1      41.555 -15.312   2.553  1.00  0.00     0.190 A 
HETATM   13  N   UNL     1      40.469 -15.748   3.201  1.00  0.00    -0.109 NA
HETATM   14  O   UNL     1      39.495 -15.780   2.198  1.00  0.00    -0.205 OA
HETATM   15  C   UNL     1      40.113 -15.402   1.047  1.00  0.00     0.288 A 
HETATM   16  N   UNL     1      41.392 -15.137   1.193  1.00  0.00    -0.215 NA
ENDBRANCH   4  12
ENDBRANCH   1   4
BRANCH   1  17
HETATM   17  C   UNL     1      43.225 -12.813   4.049  1.00  0.00     0.272 C 
BRANCH  17  18
HETATM   18  C   UNL     1      43.188 -11.960   5.283  1.00  0.00    -0.030 A 
HETATM   19  C   UNL     1      44.244 -12.012   6.208  1.00  0.00     0.048 A 
HETATM   20  C   UNL     1      44.234 -11.191   7.336  1.00  0.00     0.102 A 
HETATM   21  C   UNL     1      43.159 -10.332   7.567  1.00  0.00     0.102 A 
HETATM   22  O   UNL     1      45.313 -11.290   8.173  1.00  0.00    -0.346 OA
HETATM   23  O   UNL     1      43.066  -9.528   8.672  1.00  0.00    -0.346 OA
HETATM   24  C   UNL     1      42.117 -10.258   6.648  1.00  0.00     0.040 A 
HETATM   25  C   UNL     1      43.974  -9.945   9.699  1.00  0.00     0.202 C 
HETATM   26  C   UNL     1      45.353 -10.209   9.117  1.00  0.00     0.202 C 
HETATM   27  C   UNL     1      42.130 -11.066   5.507  1.00  0.00     0.012 A 
ENDBRANCH  17  18
ENDBRANCH   1  17
TORSDOF 5
ENDMDL
MODEL 2
REMARK VINA RESULT:      -8.1      3.674      5.021
REMARK  5 active torsions:
REMARK  status: ('A' for Active; 'I' for Inactive)
REMARK    1  A    between atoms: C_2  and  C_3 
REMARK    2  A    between atoms: C_3  and  N_4 
REMARK    3  A    between atoms: C_3  and  C_18 
REMARK    4  A    between atoms: N_4  and  C_7 
REMARK    5  A    between atoms: C_7  and  C_8 
ROOT
HETATM    1  N   UNL     1      44.331 -17.089   4.786  1.00  0.00    -0.056 N 
HETATM    2  H   UNL     1      45.071 -17.802   4.826  1.00  0.00     0.278 HD
HETATM    3  H   UNL     1      44.682 -16.332   4.188  1.00  0.00     0.278 HD
ENDROOT
BRANCH   1   4
HETATM    4  C   UNL     1      43.137 -17.734   4.142  1.00  0.00     0.292 C 
BRANCH   4   5
HETATM    5  C   UNL     1      42.536 -16.835   3.075  1.00  0.00    -0.020 A 
HETATM    6  C   UNL     1      43.329 -16.174   2.115  1.00  0.00     0.011 A 
HETATM    7  C   UNL     1      42.743 -15.343   1.155  1.00  0.00     0.024 A 
HETATM    8  C   UNL     1      41.364 -15.160   1.139  1.00  0.00     0.034 A 
HETATM    9  C   UNL     1      40.562 -15.805   2.077  1.00  0.00     0.024 A 
HETATM   10 CL   UNL     1      40.649 -14.139  -0.043  1.00  0.00    -0.084 Cl
HETATM   11  C   UNL     1      41.143 -16.637   3.039  1.00  0.00     0.011 A 
ENDBRANCH   4   5
BRANCH   4  12
HETATM   12  C   UNL     1      43.471 -19.025   3.452  1.00  0.00     0.190 A 
HETATM   13  N   UNL     1      43.138 -19.287   2.183  1.00  0.00    -0.109 NA
HETATM   14  O   UNL     1      43.592 -20.597   2.002  1.00  0.00    -0.205 OA
HETATM   15  C   UNL     1      44.107 -20.996   3.194  1.00  0.00     0.288 A 
HETATM   16  N   UNL     1      44.028 -20.085   4.139  1.00  0.00    -0.215 NA
ENDBRANCH   4  12
ENDBRANCH   1   4
BRANCH   1  17
HETATM   17  C   UNL     1      44.101 -16.587   6.163  1.00  0.00     0.272 C 
BRANCH  17  18
HETATM   18  C   UNL     1      42.886 -15.708   6.210  1.00  0.00    -0.030 A 
HETATM   19  C   UNL     1      42.950 -14.390   5.728  1.00  0.00     0.048 A 
HETATM   20  C   UNL     1      41.812 -13.582   5.731  1.00  0.00     0.102 A 
HETATM   21  C   UNL     1      40.608 -14.071   6.240  1.00  0.00     0.102 A 
HETATM   22  O   UNL     1      41.958 -12.320   5.223  1.00  0.00    -0.346 OA
HETATM   23  O   UNL     1      39.465 -13.320   6.309  1.00  0.00    -0.346 OA
HETATM   24  C   UNL     1      40.528 -15.381   6.702  1.00  0.00     0.040 A 
HETATM   25  C   UNL     1      39.746 -11.923   6.161  1.00  0.00     0.202 C 
HETATM   26  C   UNL     1      40.689 -11.690   4.992  1.00  0.00     0.202 C 
HETATM   27  C   UNL     1      41.661 -16.200   6.686  1.00  0.00     0.012 A 
ENDBRANCH  17  18
ENDBRANCH   1  17
TORSDOF 5
ENDMDL
MODEL 3
REMARK VINA RESULT:      -7.9      4.369      7.572
REMARK  5 active torsions:
REMARK  status: ('A' for Active; 'I' for Inactive)
REMARK    1  A    between atoms: C_2  and  C_3 
REMARK    2  A    between atoms: C_3  and  N_4 
REMARK    3  A    between atoms: C_3  and  C_18 
REMARK    4  A    between atoms: N_4  and  C_7 
REMARK    5  A    between atoms: C_7  and  C_8 
ROOT
HETATM    1  N   UNL     1      41.546 -14.442   2.870  1.00  0.00    -0.056 N 
HETATM    2  H   UNL     1      40.662 -14.174   3.324  1.00  0.00     0.278 HD
HETATM    3  H   UNL     1      41.386 -15.353   2.426  1.00  0.00     0.278 HD
ENDROOT
BRANCH   1   4
HETATM    4  C   UNL     1      41.826 -13.407   1.818  1.00  0.00     0.292 C 
BRANCH   4   5
HETATM    5  C   UNL     1      40.999 -13.657   0.568  1.00  0.00    -0.020 A 
HETATM    6  C   UNL     1      40.900 -12.709  -0.471  1.00  0.00     0.011 A 
HETATM    7  C   UNL     1      40.119 -12.967  -1.602  1.00  0.00     0.024 A 
HETATM    8  C   UNL     1      39.427 -14.169  -1.711  1.00  0.00     0.034 A 
HETATM    9  C   UNL     1      39.512 -15.120  -0.698  1.00  0.00     0.024 A 
HETATM   10 CL   UNL     1      38.469 -14.482  -3.103  1.00  0.00    -0.084 Cl
HETATM   11  C   UNL     1      40.292 -14.867   0.435  1.00  0.00     0.011 A 
ENDBRANCH   4   5
BRANCH   4  12
HETATM   12  C   UNL     1      41.487 -12.013   2.263  1.00  0.00     0.190 A 
HETATM   13  N   UNL     1      42.357 -10.997   2.223  1.00  0.00    -0.109 NA
HETATM   14  O   UNL     1      41.631  -9.939   2.779  1.00  0.00    -0.205 OA
HETATM   15  C   UNL     1      40.420 -10.446   3.133  1.00  0.00     0.288 A 
HETATM   16  N   UNL     1      40.284 -11.727   2.875  1.00  0.00    -0.215 NA
ENDBRANCH   4  12
ENDBRANCH   1   4
BRANCH   1  17
HETATM   17  C   UNL     1      42.586 -14.559   3.921  1.00  0.00     0.272 C 
BRANCH  17  18
HETATM   18  C   UNL     1      43.056 -15.979   4.044  1.00  0.00    -0.030 A 
HETATM   19  C   UNL     1      42.785 -16.903   3.022  1.00  0.00     0.048 A 
HETATM   20  C   UNL     1      43.255 -18.213   3.112  1.00  0.00     0.102 A 
HETATM   21  C   UNL     1      43.974 -18.623   4.236  1.00  0.00     0.102 A 
HETATM   22  O   UNL     1      42.964 -19.041   2.061  1.00  0.00    -0.346 OA
HETATM   23  O   UNL     1      44.431 -19.902   4.408  1.00  0.00    -0.346 OA
HETATM   24  C   UNL     1      44.265 -17.711   5.247  1.00  0.00     0.040 A 
HETATM   25  C   UNL     1      43.776 -20.815   3.519  1.00  0.00     0.202 C 
HETATM   26  C   UNL     1      43.738 -20.250   2.108  1.00  0.00     0.202 C 
HETATM   27  C   UNL     1      43.811 -16.392   5.153  1.00  0.00     0.012 A 
ENDBRANCH  17  18
ENDBRANCH   1  17
TORSDOF 5
ENDMDL
MODEL 4
REMARK VINA RESULT:      -7.9      0.745      1.505
REMARK  5 active torsions:
REMARK  status: ('A' for Active; 'I' for Inactive)
REMARK    1  A    between atoms: C_2  and  C_3 
REMARK    2  A    between atoms: C_3  and  N_4 
REMARK    3  A    between atoms: C_3  and  C_18 
REMARK    4  A    between atoms: N_4  and  C_7 
REMARK    5  A    between atoms: C_7  and  C_8 
ROOT
HETATM    1  N   UNL     1      42.804 -14.289   4.742  1.00  0.00    -0.056 N 
HETATM    2  H   UNL     1      41.953 -14.568   5.247  1.00  0.00     0.278 HD
HETATM    3  H   UNL     1      43.595 -14.482   5.366  1.00  0.00     0.278 HD
ENDROOT
BRANCH   1   4
HETATM    4  C   UNL     1      42.893 -15.161   3.522  1.00  0.00     0.292 C 
BRANCH   4   5
HETATM    5  C   UNL     1      43.305 -16.577   3.890  1.00  0.00    -0.020 A 
HETATM    6  C   UNL     1      43.530 -17.571   2.916  1.00  0.00     0.011 A 
HETATM    7  C   UNL     1      43.895 -18.868   3.291  1.00  0.00     0.024 A 
HETATM    8  C   UNL     1      44.039 -19.190   4.636  1.00  0.00     0.034 A 
HETATM    9  C   UNL     1      43.823 -18.223   5.615  1.00  0.00     0.024 A 
HETATM   10 CL   UNL     1      44.489 -20.785   5.092  1.00  0.00    -0.084 Cl
HETATM   11  C   UNL     1      43.458 -16.925   5.246  1.00  0.00     0.011 A 
ENDBRANCH   4   5
BRANCH   4  12
HETATM   12  C   UNL     1      41.585 -15.288   2.797  1.00  0.00     0.190 A 
HETATM   13  N   UNL     1      40.477 -15.784   3.360  1.00  0.00    -0.109 NA
HETATM   14  O   UNL     1      39.554 -15.763   2.311  1.00  0.00    -0.205 OA
HETATM   15  C   UNL     1      40.218 -15.299   1.220  1.00  0.00     0.288 A 
HETATM   16  N   UNL     1      41.484 -15.025   1.446  1.00  0.00    -0.215 NA
ENDBRANCH   4  12
ENDBRANCH   1   4
BRANCH   1  17
HETATM   17  C   UNL     1      42.716 -12.834   4.463  1.00  0.00     0.272 C 
BRANCH  17  18
HETATM   18  C   UNL     1      43.215 -12.039   5.634  1.00  0.00    -0.030 A 
HETATM   19  C   UNL     1      42.417 -11.026   6.190  1.00  0.00     0.048 A 
HETATM   20  C   UNL     1      42.859 -10.312   7.304  1.00  0.00     0.102 A 
HETATM   21  C   UNL     1      44.112 -10.583   7.857  1.00  0.00     0.102 A 
HETATM   22  O   UNL     1      42.010  -9.357   7.794  1.00  0.00    -0.346 OA
HETATM   23  O   UNL     1      44.623  -9.895   8.926  1.00  0.00    -0.346 OA
HETATM   24  C   UNL     1      44.902 -11.598   7.327  1.00  0.00     0.040 A 
HETATM   25  C   UNL     1      43.915  -8.669   9.146  1.00  0.00     0.202 C 
HETATM   26  C   UNL     1      42.415  -8.903   9.095  1.00  0.00     0.202 C 
HETATM   27  C   UNL     1      44.457 -12.327   6.221  1.00  0.00     0.012 A 
ENDBRANCH  17  18
ENDBRANCH   1  17
TORSDOF 5
ENDMDL
MODEL 5
REMARK VINA RESULT:      -7.7      2.793      7.280
REMARK  5 active torsions:
REMARK  status: ('A' for Active; 'I' for Inactive)
REMARK    1  A    between atoms: C_2  and  C_3 
REMARK    2  A    between atoms: C_3  and  N_4 
REMARK    3  A    between atoms: C_3  and  C_18 
REMARK    4  A    between atoms: N_4  and  C_7 
REMARK    5  A    between atoms: C_7  and  C_8 
ROOT
HETATM    1  N   UNL     1      41.271 -12.328   3.442  1.00  0.00    -0.056 N 
HETATM    2  H   UNL     1      41.156 -11.353   3.751  1.00  0.00     0.278 HD
HETATM    3  H   UNL     1      41.813 -12.301   2.572  1.00  0.00     0.278 HD
ENDROOT
BRANCH   1   4
HETATM    4  C   UNL     1      42.057 -13.033   4.510  1.00  0.00     0.292 C 
BRANCH   4   5
HETATM    5  C   UNL     1      42.508 -14.407   4.042  1.00  0.00    -0.020 A 
HETATM    6  C   UNL     1      43.068 -14.620   2.766  1.00  0.00     0.011 A 
HETATM    7  C   UNL     1      43.461 -15.901   2.363  1.00  0.00     0.024 A 
HETATM    8  C   UNL     1      43.299 -16.982   3.224  1.00  0.00     0.034 A 
HETATM    9  C   UNL     1      42.749 -16.794   4.489  1.00  0.00     0.024 A 
HETATM   10 CL   UNL     1      43.783 -18.553   2.724  1.00  0.00    -0.084 Cl
HETATM   11  C   UNL     1      42.355 -15.516   4.897  1.00  0.00     0.011 A 
ENDBRANCH   4   5
BRANCH   4  12
HETATM   12  C   UNL     1      43.309 -12.300   4.897  1.00  0.00     0.190 A 
HETATM   13  N   UNL     1      43.999 -11.528   4.050  1.00  0.00    -0.109 NA
HETATM   14  O   UNL     1      45.092 -11.115   4.820  1.00  0.00    -0.205 OA
HETATM   15  C   UNL     1      44.962 -11.720   6.030  1.00  0.00     0.288 A 
HETATM   16  N   UNL     1      43.904 -12.493   6.127  1.00  0.00    -0.215 NA
ENDBRANCH   4  12
ENDBRANCH   1   4
BRANCH   1  17
HETATM   17  C   UNL     1      39.922 -12.891   3.187  1.00  0.00     0.272 C 
BRANCH  17  18
HETATM   18  C   UNL     1      39.789 -13.318   1.755  1.00  0.00    -0.030 A 
HETATM   19  C   UNL     1      39.535 -12.365   0.755  1.00  0.00     0.048 A 
HETATM   20  C   UNL     1      39.452 -12.752  -0.583  1.00  0.00     0.102 A 
HETATM   21  C   UNL     1      39.593 -14.095  -0.934  1.00  0.00     0.102 A 
HETATM   22  O   UNL     1      39.223 -11.755  -1.494  1.00  0.00    -0.346 OA
HETATM   23  O   UNL     1      39.485 -14.549  -2.221  1.00  0.00    -0.346 OA
HETATM   24  C   UNL     1      39.865 -15.045   0.046  1.00  0.00     0.040 A 
HETATM   25  C   UNL     1      38.855 -13.578  -3.066  1.00  0.00     0.202 C 
HETATM   26  C   UNL     1      39.457 -12.202  -2.838  1.00  0.00     0.202 C 
HETATM   27  C   UNL     1      39.966 -14.661   1.386  1.00  0.00     0.012 A 
ENDBRANCH  17  18
ENDBRANCH   1  17
TORSDOF 5
ENDMDL
MODEL 6
REMARK VINA RESULT:      -7.7      2.978      6.816
REMARK  5 active torsions:
REMARK  status: ('A' for Active; 'I' for Inactive)
REMARK    1  A    between atoms: C_2  and  C_3 
REMARK    2  A    between atoms: C_3  and  N_4 
REMARK    3  A    between atoms: C_3  and  C_18 
REMARK    4  A    between atoms: N_4  and  C_7 
REMARK    5  A    between atoms: C_7  and  C_8 
ROOT
HETATM    1  N   UNL     1      40.069 -14.425   3.608  1.00  0.00    -0.056 N 
HETATM    2  H   UNL     1      40.190 -14.862   2.685  1.00  0.00     0.278 HD
HETATM    3  H   UNL     1      39.326 -14.946   4.086  1.00  0.00     0.278 HD
ENDROOT
BRANCH   1   4
HETATM    4  C   UNL     1      41.366 -14.597   4.346  1.00  0.00     0.292 C 
BRANCH   4   5
HETATM    5  C   UNL     1      42.078 -15.869   3.914  1.00  0.00    -0.020 A 
HETATM    6  C   UNL     1      43.147 -16.419   4.650  1.00  0.00     0.011 A 
HETATM    7  C   UNL     1      43.788 -17.584   4.217  1.00  0.00     0.024 A 
HETATM    8  C   UNL     1      43.374 -18.213   3.047  1.00  0.00     0.034 A 
HETATM    9  C   UNL     1      42.319 -17.687   2.305  1.00  0.00     0.024 A 
HETATM   10 CL   UNL     1      44.163 -19.644   2.519  1.00  0.00    -0.084 Cl
HETATM   11  C   UNL     1      41.675 -16.523   2.734  1.00  0.00     0.011 A 
ENDBRANCH   4   5
BRANCH   4  12
HETATM   12  C   UNL     1      42.335 -13.478   4.094  1.00  0.00     0.190 A 
HETATM   13  N   UNL     1      42.980 -13.312   2.934  1.00  0.00    -0.109 NA
HETATM   14  O   UNL     1      43.797 -12.205   3.184  1.00  0.00    -0.205 OA
HETATM   15  C   UNL     1      43.587 -11.854   4.480  1.00  0.00     0.288 A 
HETATM   16  N   UNL     1      42.725 -12.624   5.106  1.00  0.00    -0.215 NA
ENDBRANCH   4  12
ENDBRANCH   1   4
BRANCH   1  17
HETATM   17  C   UNL     1      39.653 -13.016   3.399  1.00  0.00     0.272 C 
BRANCH  17  18
HETATM   18  C   UNL     1      39.350 -12.764   1.951  1.00  0.00    -0.030 A 
HETATM   19  C   UNL     1      39.938 -13.563   0.957  1.00  0.00     0.048 A 
HETATM   20  C   UNL     1      39.628 -13.360  -0.387  1.00  0.00     0.102 A 
HETATM   21  C   UNL     1      38.750 -12.339  -0.756  1.00  0.00     0.102 A 
HETATM   22  O   UNL     1      40.229 -14.197  -1.287  1.00  0.00    -0.346 OA
HETATM   23  O   UNL     1      38.431 -12.059  -2.058  1.00  0.00    -0.346 OA
HETATM   24  C   UNL     1      38.146 -11.554   0.220  1.00  0.00     0.040 A 
HETATM   25  C   UNL     1      39.364 -12.659  -2.966  1.00  0.00     0.202 C 
HETATM   26  C   UNL     1      39.621 -14.108  -2.585  1.00  0.00     0.202 C 
HETATM   27  C   UNL     1      38.440 -11.765   1.571  1.00  0.00     0.012 A 
ENDBRANCH  17  18
ENDBRANCH   1  17
TORSDOF 5
ENDMDL
MODEL 7
REMARK VINA RESULT:      -7.7      1.647      2.536
REMARK  5 active torsions:
REMARK  status: ('A' for Active; 'I' for Inactive)
REMARK    1  A    between atoms: C_2  and  C_3 
REMARK    2  A    between atoms: C_3  and  N_4 
REMARK    3  A    between atoms: C_3  and  C_18 
REMARK    4  A    between atoms: N_4  and  C_7 
REMARK    5  A    between atoms: C_7  and  C_8 
ROOT
HETATM    1  N   UNL     1      43.111 -12.811   4.592  1.00  0.00    -0.056 N 
HETATM    2  H   UNL     1      42.232 -12.586   5.076  1.00  0.00     0.278 HD
HETATM    3  H   UNL     1      43.572 -13.543   5.141  1.00  0.00     0.278 HD
ENDROOT
BRANCH   1   4
HETATM    4  C   UNL     1      42.738 -13.347   3.239  1.00  0.00     0.292 C 
BRANCH   4   5
HETATM    5  C   UNL     1      42.964 -14.848   3.163  1.00  0.00    -0.020 A 
HETATM    6  C   UNL     1      43.120 -15.644   4.316  1.00  0.00     0.011 A 
HETATM    7  C   UNL     1      43.340 -17.021   4.209  1.00  0.00     0.024 A 
HETATM    8  C   UNL     1      43.409 -17.621   2.955  1.00  0.00     0.034 A 
HETATM    9  C   UNL     1      43.256 -16.853   1.803  1.00  0.00     0.024 A 
HETATM   10 CL   UNL     1      43.678 -19.313   2.828  1.00  0.00    -0.084 Cl
HETATM   11  C   UNL     1      43.035 -15.476   1.905  1.00  0.00     0.011 A 
ENDBRANCH   4   5
BRANCH   4  12
HETATM   12  C   UNL     1      41.290 -13.133   2.903  1.00  0.00     0.190 A 
HETATM   13  N   UNL     1      40.285 -13.597   3.654  1.00  0.00    -0.109 NA
HETATM   14  O   UNL     1      39.150 -13.215   2.932  1.00  0.00    -0.205 OA
HETATM   15  C   UNL     1      39.597 -12.603   1.804  1.00  0.00     0.288 A 
HETATM   16  N   UNL     1      40.907 -12.555   1.710  1.00  0.00    -0.215 NA
ENDBRANCH   4  12
ENDBRANCH   1   4
BRANCH   1  17
HETATM   17  C   UNL     1      43.948 -11.585   4.566  1.00  0.00     0.272 C 
BRANCH  17  18
HETATM   18  C   UNL     1      44.320 -11.171   5.960  1.00  0.00    -0.030 A 
HETATM   19  C   UNL     1      43.342 -10.662   6.830  1.00  0.00     0.048 A 
HETATM   20  C   UNL     1      43.675 -10.313   8.139  1.00  0.00     0.102 A 
HETATM   21  C   UNL     1      44.991 -10.443   8.584  1.00  0.00     0.102 A 
HETATM   22  O   UNL     1      42.656  -9.846   8.925  1.00  0.00    -0.346 OA
HETATM   23  O   UNL     1      45.395 -10.084   9.843  1.00  0.00    -0.346 OA
HETATM   24  C   UNL     1      45.965 -10.965   7.738  1.00  0.00     0.040 A 
HETATM   25  C   UNL     1      44.429  -9.240  10.481  1.00  0.00     0.202 C 
HETATM   26  C   UNL     1      43.030  -9.808  10.311  1.00  0.00     0.202 C 
HETATM   27  C   UNL     1      45.633 -11.331   6.430  1.00  0.00     0.012 A 
ENDBRANCH  17  18
ENDBRANCH   1  17
TORSDOF 5
ENDMDL
MODEL 8
REMARK VINA RESULT:      -7.7      4.357      7.163
REMARK  5 active torsions:
REMARK  status: ('A' for Active; 'I' for Inactive)
REMARK    1  A    between atoms: C_2  and  C_3 
REMARK    2  A    between atoms: C_3  and  N_4 
REMARK    3  A    between atoms: C_3  and  C_18 
REMARK    4  A    between atoms: N_4  and  C_7 
REMARK    5  A    between atoms: C_7  and  C_8 
ROOT
HETATM    1  N   UNL     1      41.473 -13.894   3.485  1.00  0.00    -0.056 N 
HETATM    2  H   UNL     1      40.884 -13.592   4.273  1.00  0.00     0.278 HD
HETATM    3  H   UNL     1      41.041 -14.741   3.100  1.00  0.00     0.278 HD
ENDROOT
BRANCH   1   4
HETATM    4  C   UNL     1      41.433 -12.793   2.464  1.00  0.00     0.292 C 
BRANCH   4   5
HETATM    5  C   UNL     1      40.858 -13.288   1.147  1.00  0.00    -0.020 A 
HETATM    6  C   UNL     1      40.285 -14.569   1.010  1.00  0.00     0.011 A 
HETATM    7  C   UNL     1      39.777 -14.996  -0.221  1.00  0.00     0.024 A 
HETATM    8  C   UNL     1      39.834 -14.155  -1.328  1.00  0.00     0.034 A 
HETATM    9  C   UNL     1      40.395 -12.886  -1.215  1.00  0.00     0.024 A 
HETATM   10 CL   UNL     1      39.208 -14.684  -2.838  1.00  0.00    -0.084 Cl
HETATM   11  C   UNL     1      40.904 -12.453   0.013  1.00  0.00     0.011 A 
ENDBRANCH   4   5
BRANCH   4  12
HETATM   12  C   UNL     1      40.569 -11.639   2.881  1.00  0.00     0.190 A 
HETATM   13  N   UNL     1      41.038 -10.400   3.068  1.00  0.00    -0.109 NA
HETATM   14  O   UNL     1      39.908  -9.697   3.498  1.00  0.00    -0.205 OA
HETATM   15  C   UNL     1      38.894 -10.599   3.565  1.00  0.00     0.288 A 
HETATM   16  N   UNL     1      39.247 -11.821   3.234  1.00  0.00    -0.215 NA
ENDBRANCH   4  12
ENDBRANCH   1   4
BRANCH   1  17
HETATM   17  C   UNL     1      42.824 -14.204   4.015  1.00  0.00     0.272 C 
BRANCH  17  18
HETATM   18  C   UNL     1      43.116 -15.672   3.894  1.00  0.00    -0.030 A 
HETATM   19  C   UNL     1      43.290 -16.453   5.048  1.00  0.00     0.048 A 
HETATM   20  C   UNL     1      43.521 -17.825   4.942  1.00  0.00     0.102 A 
HETATM   21  C   UNL     1      43.607 -18.426   3.685  1.00  0.00     0.102 A 
HETATM   22  O   UNL     1      43.658 -18.514   6.117  1.00  0.00    -0.346 OA
HETATM   23  O   UNL     1      43.868 -19.758   3.508  1.00  0.00    -0.346 OA
HETATM   24  C   UNL     1      43.416 -17.665   2.536  1.00  0.00     0.040 A 
HETATM   25  C   UNL     1      44.402 -20.349   4.699  1.00  0.00     0.202 C 
HETATM   26  C   UNL     1      43.585 -19.933   5.912  1.00  0.00     0.202 C 
HETATM   27  C   UNL     1      43.168 -16.293   2.637  1.00  0.00     0.012 A 
ENDBRANCH  17  18
ENDBRANCH   1  17
TORSDOF 5
ENDMDL
MODEL 9
REMARK VINA RESULT:      -7.5     16.225     18.092
REMARK  5 active torsions:
REMARK  status: ('A' for Active; 'I' for Inactive)
REMARK    1  A    between atoms: C_2  and  C_3 
REMARK    2  A    between atoms: C_3  and  N_4 
REMARK    3  A    between atoms: C_3  and  C_18 
REMARK    4  A    between atoms: N_4  and  C_7 
REMARK    5  A    between atoms: C_7  and  C_8 
ROOT
HETATM    1  N   UNL     1      45.947 -29.594   0.964  1.00  0.00    -0.056 N 
HETATM    2  H   UNL     1      45.752 -29.822   1.948  1.00  0.00     0.278 HD
HETATM    3  H   UNL     1      46.169 -30.478   0.494  1.00  0.00     0.278 HD
ENDROOT
BRANCH   1   4
HETATM    4  C   UNL     1      44.683 -29.017   0.392  1.00  0.00     0.292 C 
BRANCH   4   5
HETATM    5  C   UNL     1      44.575 -29.302  -1.097  1.00  0.00    -0.020 A 
HETATM    6  C   UNL     1      44.723 -28.292  -2.068  1.00  0.00     0.011 A 
HETATM    7  C   UNL     1      44.605 -28.587  -3.430  1.00  0.00     0.024 A 
HETATM    8  C   UNL     1      44.337 -29.890  -3.840  1.00  0.00     0.034 A 
HETATM    9  C   UNL     1      44.188 -30.903  -2.897  1.00  0.00     0.024 A 
HETATM   10 CL   UNL     1      44.193 -30.248  -5.514  1.00  0.00    -0.084 Cl
HETATM   11  C   UNL     1      44.306 -30.613  -1.534  1.00  0.00     0.011 A 
ENDBRANCH   4   5
BRANCH   4  12
HETATM   12  C   UNL     1      43.443 -29.594   1.012  1.00  0.00     0.190 A 
HETATM   13  N   UNL     1      42.238 -29.022   0.914  1.00  0.00    -0.109 NA
HETATM   14  O   UNL     1      41.426 -29.864   1.679  1.00  0.00    -0.205 OA
HETATM   15  C   UNL     1      42.240 -30.826   2.190  1.00  0.00     0.288 A 
HETATM   16  N   UNL     1      43.501 -30.692   1.846  1.00  0.00    -0.215 NA
ENDBRANCH   4  12
ENDBRANCH   1   4
BRANCH   1  17
HETATM   17  C   UNL     1      47.119 -28.685   0.927  1.00  0.00     0.272 C 
BRANCH  17  18
HETATM   18  C   UNL     1      48.179 -29.226   0.011  1.00  0.00    -0.030 A 
HETATM   19  C   UNL     1      49.245 -29.977   0.533  1.00  0.00     0.048 A 
HETATM   20  C   UNL     1      50.209 -30.517  -0.317  1.00  0.00     0.102 A 
HETATM   21  C   UNL     1      50.136 -30.290  -1.693  1.00  0.00     0.102 A 
HETATM   22  O   UNL     1      51.201 -31.253   0.273  1.00  0.00    -0.346 OA
HETATM   23  O   UNL     1      51.069 -30.757  -2.580  1.00  0.00    -0.346 OA
HETATM   24  C   UNL     1      49.074 -29.564  -2.223  1.00  0.00     0.040 A 
HETATM   25  C   UNL     1      52.274 -31.154  -1.912  1.00  0.00     0.202 C 
HETATM   26  C   UNL     1      51.952 -32.004  -0.694  1.00  0.00     0.202 C 
HETATM   27  C   UNL     1      48.095 -29.035  -1.376  1.00  0.00     0.012 A 
ENDBRANCH  17  18
ENDBRANCH   1  17
TORSDOF 5
ENDMDL
MODEL 10
REMARK VINA RESULT:      -7.5      2.485      3.751
REMARK  5 active torsions:
REMARK  status: ('A' for Active; 'I' for Inactive)
REMARK    1  A    between atoms: C_2  and  C_3 
REMARK    2  A    between atoms: C_3  and  N_4 
REMARK    3  A    between atoms: C_3  and  C_18 
REMARK    4  A    between atoms: N_4  and  C_7 
REMARK    5  A    between atoms: C_7  and  C_8 
ROOT
HETATM    1  N   UNL     1      43.589 -12.774   7.161  1.00  0.00    -0.056 N 
HETATM    2  H   UNL     1      42.805 -12.551   7.788  1.00  0.00     0.278 HD
HETATM    3  H   UNL     1      44.082 -13.572   7.575  1.00  0.00     0.278 HD
ENDROOT
BRANCH   1   4
HETATM    4  C   UNL     1      42.993 -13.172   5.841  1.00  0.00     0.292 C 
BRANCH   4   5
HETATM    5  C   UNL     1      43.337 -14.612   5.497  1.00  0.00    -0.020 A 
HETATM    6  C   UNL     1      43.980 -15.471   6.412  1.00  0.00     0.011 A 
HETATM    7  C   UNL     1      44.293 -16.787   6.057  1.00  0.00     0.024 A 
HETATM    8  C   UNL     1      43.971 -17.262   4.789  1.00  0.00     0.034 A 
HETATM    9  C   UNL     1      43.334 -16.432   3.871  1.00  0.00     0.024 A 
HETATM   10 CL   UNL     1      44.356 -18.880   4.358  1.00  0.00    -0.084 Cl
HETATM   11  C   UNL     1      43.019 -15.115   4.221  1.00  0.00     0.011 A 
ENDBRANCH   4   5
BRANCH   4  12
HETATM   12  C   UNL     1      41.494 -13.093   5.828  1.00  0.00     0.190 A 
HETATM   13  N   UNL     1      40.709 -13.910   6.541  1.00  0.00    -0.109 NA
HETATM   14  O   UNL     1      39.421 -13.509   6.172  1.00  0.00    -0.205 OA
HETATM   15  C   UNL     1      39.572 -12.527   5.245  1.00  0.00     0.288 A 
HETATM   16  N   UNL     1      40.826 -12.251   4.963  1.00  0.00    -0.215 NA
ENDBRANCH   4  12
ENDBRANCH   1   4
BRANCH   1  17
HETATM   17  C   UNL     1      44.484 -11.591   7.109  1.00  0.00     0.272 C 
BRANCH  17  18
HETATM   18  C   UNL     1      44.320 -10.748   8.340  1.00  0.00    -0.030 A 
HETATM   19  C   UNL     1      43.053 -10.257   8.694  1.00  0.00     0.048 A 
HETATM   20  C   UNL     1      42.887  -9.508   9.859  1.00  0.00     0.102 A 
HETATM   21  C   UNL     1      43.988  -9.218  10.667  1.00  0.00     0.102 A 
HETATM   22  O   UNL     1      41.615  -9.087  10.140  1.00  0.00    -0.346 OA
HETATM   23  O   UNL     1      43.904  -8.456  11.802  1.00  0.00    -0.346 OA
HETATM   24  C   UNL     1      45.244  -9.715  10.336  1.00  0.00     0.040 A 
HETATM   25  C   UNL     1      42.681  -7.710  11.842  1.00  0.00     0.202 C 
HETATM   26  C   UNL     1      41.502  -8.600  11.486  1.00  0.00     0.202 C 
HETATM   27  C   UNL     1      45.413 -10.481   9.179  1.00  0.00     0.012 A 
ENDBRANCH  17  18
ENDBRANCH   1  17
TORSDOF 5
ENDMDL
