MODEL 1
REMARK VINA RESULT:      -8.8      0.000      0.000
REMARK  8 active torsions:
REMARK  status: ('A' for Active; 'I' for Inactive)
REMARK    1  A    between atoms: C_2  and  O_3 
REMARK    2  A    between atoms: O_3  and  C_4 
REMARK    3  A    between atoms: C_4  and  C_5 
REMARK    4  A    between atoms: N_7  and  C_9 
REMARK    5  A    between atoms: C_9  and  C_10 
REMARK       I    between atoms: C_10  and  N_11 
REMARK    6  A    between atoms: N_11  and  C_12 
REMARK    7  A    between atoms: C_20  and  C_21 
REMARK       I    between atoms: C_21  and  N_22 
REMARK    8  A    between atoms: N_22  and  C_23 
ROOT
HETATM    1  C   UNL     1      39.937 -12.366   1.323  1.00  0.00     0.093 C 
HETATM    2  S   UNL     1      39.238 -11.286   0.219  1.00  0.00    -0.075 SA
HETATM    3  C   UNL     1      39.028 -12.502  -0.933  1.00  0.00    -0.008 C 
HETATM    4  C   UNL     1      39.461 -13.744  -0.496  1.00  0.00    -0.026 C 
HETATM    5  C   UNL     1      39.413 -14.921  -1.439  1.00  0.00     0.041 C 
HETATM    6  C   UNL     1      39.248 -14.499  -2.907  1.00  0.00     0.005 C 
HETATM    7  C   UNL     1      38.140 -13.454  -3.063  1.00  0.00     0.005 C 
HETATM    8  C   UNL     1      38.478 -12.176  -2.291  1.00  0.00     0.047 C 
HETATM    9  C   UNL     1      39.911 -13.694   0.894  1.00  0.00     0.073 C 
ENDROOT
BRANCH   1  10
HETATM   10  N   UNL     1      40.374 -11.893   2.557  1.00  0.00    -0.319 N 
HETATM   11  C   UNL     1      41.539 -11.188   2.747  1.00  0.00     0.248 C 
HETATM   12  O   UNL     1      42.443 -10.985   1.931  1.00  0.00    -0.271 OA
HETATM   13  H   UNL     1      39.936 -12.361   3.355  1.00  0.00     0.169 HD
BRANCH  11  14
HETATM   14  C   UNL     1      41.728 -10.606   4.150  1.00  0.00     0.337 C 
BRANCH  14  15
HETATM   15  N   UNL     1      42.532 -11.612   4.993  1.00  0.00    -0.062 N 
HETATM   16  C   UNL     1      43.538 -10.928   5.902  1.00  0.00     0.249 C 
HETATM   17  C   UNL     1      44.481 -11.975   6.492  1.00  0.00     0.111 C 
HETATM   18  C   UNL     1      43.692 -13.072   7.212  1.00  0.00     0.018 C 
HETATM   19  C   UNL     1      42.618 -13.681   6.312  1.00  0.00     0.029 C 
HETATM   20  C   UNL     1      41.697 -12.626   5.709  1.00  0.00     0.235 C 
HETATM   21  H   UNL     1      43.099 -12.097   4.271  1.00  0.00     0.280 HD
BRANCH  17  22
HETATM   22  C   UNL     1      45.434 -11.272   7.433  1.00  0.00     0.264 C 
HETATM   23  O   UNL     1      46.568 -10.939   7.122  1.00  0.00    -0.265 OA
BRANCH  22  24
HETATM   24  O   UNL     1      44.857 -11.099   8.649  1.00  0.00    -0.322 OA
BRANCH  24  25
HETATM   25  C   UNL     1      45.318  -9.977   9.420  1.00  0.00     0.174 C 
HETATM   26  C   UNL     1      44.653  -8.705   8.929  1.00  0.00     0.034 C 
ENDBRANCH  24  25
ENDBRANCH  22  24
ENDBRANCH  17  22
ENDBRANCH  14  15
ENDBRANCH  11  14
ENDBRANCH   1  10
BRANCH   9  27
HETATM   27  C   UNL     1      40.373 -14.772   1.804  1.00  0.00     0.259 C 
HETATM   28  N   UNL     1      41.639 -15.262   1.560  1.00  0.00    -0.323 N 
HETATM   29  H   UNL     1      42.121 -14.900   0.755  1.00  0.00     0.169 HD
HETATM   30  O   UNL     1      39.617 -15.188   2.683  1.00  0.00    -0.267 OA
BRANCH  28  31
HETATM   31  C   UNL     1      42.356 -16.244   2.275  1.00  0.00     0.035 A 
HETATM   32  C   UNL     1      42.534 -17.562   1.849  1.00  0.00     0.031 A 
HETATM   33  C   UNL     1      43.265 -18.466   2.631  1.00  0.00     0.026 A 
HETATM   34  C   UNL     1      43.811 -18.060   3.845  1.00  0.00     0.034 A 
HETATM   35 CL   UNL     1      44.701 -19.176   4.804  1.00  0.00    -0.084 Cl
HETATM   36  C   UNL     1      43.636 -16.753   4.287  1.00  0.00     0.026 A 
HETATM   37  C   UNL     1      42.915 -15.848   3.501  1.00  0.00     0.031 A 
ENDBRANCH  28  31
ENDBRANCH   9  27
TORSDOF 8
ENDMDL
MODEL 2
REMARK VINA RESULT:      -8.7      1.209      1.593
REMARK  8 active torsions:
REMARK  status: ('A' for Active; 'I' for Inactive)
REMARK    1  A    between atoms: C_2  and  O_3 
REMARK    2  A    between atoms: O_3  and  C_4 
REMARK    3  A    between atoms: C_4  and  C_5 
REMARK    4  A    between atoms: N_7  and  C_9 
REMARK    5  A    between atoms: C_9  and  C_10 
REMARK       I    between atoms: C_10  and  N_11 
REMARK    6  A    between atoms: N_11  and  C_12 
REMARK    7  A    between atoms: C_20  and  C_21 
REMARK       I    between atoms: C_21  and  N_22 
REMARK    8  A    between atoms: N_22  and  C_23 
ROOT
HETATM    1  C   UNL     1      40.047 -11.784   1.914  1.00  0.00     0.093 C 
HETATM    2  S   UNL     1      38.760 -11.087   1.058  1.00  0.00    -0.075 SA
HETATM    3  C   UNL     1      38.831 -12.276  -0.138  1.00  0.00    -0.008 C 
HETATM    4  C   UNL     1      39.810 -13.228   0.099  1.00  0.00    -0.026 C 
HETATM    5  C   UNL     1      40.052 -14.313  -0.920  1.00  0.00     0.041 C 
HETATM    6  C   UNL     1      39.434 -13.992  -2.289  1.00  0.00     0.005 C 
HETATM    7  C   UNL     1      37.990 -13.500  -2.145  1.00  0.00     0.005 C 
HETATM    8  C   UNL     1      37.931 -12.201  -1.338  1.00  0.00     0.047 C 
HETATM    9  C   UNL     1      40.475 -13.001   1.381  1.00  0.00     0.073 C 
ENDROOT
BRANCH   1  10
HETATM   10  N   UNL     1      40.496 -11.177   3.084  1.00  0.00    -0.319 N 
HETATM   11  C   UNL     1      40.043 -11.494   4.343  1.00  0.00     0.248 C 
HETATM   12  O   UNL     1      39.097 -12.227   4.645  1.00  0.00    -0.271 OA
HETATM   13  H   UNL     1      40.955 -10.276   2.929  1.00  0.00     0.169 HD
BRANCH  11  14
HETATM   14  C   UNL     1      40.807 -10.837   5.496  1.00  0.00     0.337 C 
BRANCH  14  15
HETATM   15  N   UNL     1      42.164 -11.548   5.651  1.00  0.00    -0.062 N 
HETATM   16  C   UNL     1      43.142 -10.745   6.491  1.00  0.00     0.249 C 
HETATM   17  C   UNL     1      44.535 -11.361   6.373  1.00  0.00     0.111 C 
HETATM   18  C   UNL     1      44.508 -12.842   6.760  1.00  0.00     0.018 C 
HETATM   19  C   UNL     1      43.449 -13.615   5.974  1.00  0.00     0.029 C 
HETATM   20  C   UNL     1      42.068 -12.978   6.078  1.00  0.00     0.235 C 
HETATM   21  H   UNL     1      42.540 -11.514   4.683  1.00  0.00     0.280 HD
BRANCH  17  22
HETATM   22  C   UNL     1      45.473 -10.575   7.261  1.00  0.00     0.264 C 
HETATM   23  O   UNL     1      46.660 -10.839   7.391  1.00  0.00    -0.265 OA
BRANCH  22  24
HETATM   24  O   UNL     1      44.803  -9.578   7.891  1.00  0.00    -0.322 OA
BRANCH  24  25
HETATM   25  C   UNL     1      45.435  -9.023   9.058  1.00  0.00     0.174 C 
HETATM   26  C   UNL     1      45.050  -9.829  10.285  1.00  0.00     0.034 C 
ENDBRANCH  24  25
ENDBRANCH  22  24
ENDBRANCH  17  22
ENDBRANCH  14  15
ENDBRANCH  11  14
ENDBRANCH   1  10
BRANCH   9  27
HETATM   27  C   UNL     1      41.510 -13.794   2.091  1.00  0.00     0.259 C 
HETATM   28  N   UNL     1      41.176 -15.102   2.373  1.00  0.00    -0.323 N 
HETATM   29  H   UNL     1      40.244 -15.396   2.135  1.00  0.00     0.169 HD
HETATM   30  O   UNL     1      42.569 -13.254   2.414  1.00  0.00    -0.267 OA
BRANCH  28  31
HETATM   31  C   UNL     1      41.961 -16.097   2.991  1.00  0.00     0.035 A 
HETATM   32  C   UNL     1      42.018 -16.318   4.368  1.00  0.00     0.031 A 
HETATM   33  C   UNL     1      42.830 -17.336   4.889  1.00  0.00     0.026 A 
HETATM   34  C   UNL     1      43.594 -18.127   4.036  1.00  0.00     0.034 A 
HETATM   35 CL   UNL     1      44.593 -19.369   4.681  1.00  0.00    -0.084 Cl
HETATM   36  C   UNL     1      43.553 -17.914   2.662  1.00  0.00     0.026 A 
HETATM   37  C   UNL     1      42.735 -16.906   2.143  1.00  0.00     0.031 A 
ENDBRANCH  28  31
ENDBRANCH   9  27
TORSDOF 8
ENDMDL
MODEL 3
REMARK VINA RESULT:      -8.6      1.659      2.287
REMARK  8 active torsions:
REMARK  status: ('A' for Active; 'I' for Inactive)
REMARK    1  A    between atoms: C_2  and  O_3 
REMARK    2  A    between atoms: O_3  and  C_4 
REMARK    3  A    between atoms: C_4  and  C_5 
REMARK    4  A    between atoms: N_7  and  C_9 
REMARK    5  A    between atoms: C_9  and  C_10 
REMARK       I    between atoms: C_10  and  N_11 
REMARK    6  A    between atoms: N_11  and  C_12 
REMARK    7  A    between atoms: C_20  and  C_21 
REMARK       I    between atoms: C_21  and  N_22 
REMARK    8  A    between atoms: N_22  and  C_23 
ROOT
HETATM    1  C   UNL     1      41.701 -12.985   2.262  1.00  0.00     0.093 C 
HETATM    2  S   UNL     1      41.243 -11.604   1.391  1.00  0.00    -0.075 SA
HETATM    3  C   UNL     1      40.417 -12.527   0.243  1.00  0.00    -0.008 C 
HETATM    4  C   UNL     1      40.455 -13.886   0.510  1.00  0.00    -0.026 C 
HETATM    5  C   UNL     1      39.830 -14.852  -0.466  1.00  0.00     0.041 C 
HETATM    6  C   UNL     1      39.566 -14.220  -1.841  1.00  0.00     0.005 C 
HETATM    7  C   UNL     1      38.888 -12.854  -1.703  1.00  0.00     0.005 C 
HETATM    8  C   UNL     1      39.786 -11.869  -0.950  1.00  0.00     0.047 C 
HETATM    9  C   UNL     1      41.133 -14.163   1.775  1.00  0.00     0.073 C 
ENDROOT
BRANCH   1  10
HETATM   10  N   UNL     1      42.488 -12.842   3.401  1.00  0.00    -0.319 N 
HETATM   11  C   UNL     1      42.006 -12.903   4.687  1.00  0.00     0.248 C 
HETATM   12  O   UNL     1      40.827 -12.941   5.053  1.00  0.00    -0.271 OA
HETATM   13  H   UNL     1      43.388 -12.387   3.225  1.00  0.00     0.169 HD
BRANCH  11  14
HETATM   14  C   UNL     1      43.073 -12.908   5.785  1.00  0.00     0.337 C 
BRANCH  14  15
HETATM   15  N   UNL     1      42.878 -11.657   6.662  1.00  0.00    -0.062 N 
HETATM   16  C   UNL     1      44.027 -11.450   7.632  1.00  0.00     0.249 C 
HETATM   17  C   UNL     1      43.644 -10.374   8.648  1.00  0.00     0.111 C 
HETATM   18  C   UNL     1      43.234  -9.080   7.940  1.00  0.00     0.018 C 
HETATM   19  C   UNL     1      42.145  -9.326   6.896  1.00  0.00     0.029 C 
HETATM   20  C   UNL     1      42.527 -10.417   5.903  1.00  0.00     0.235 C 
HETATM   21  H   UNL     1      42.066 -11.928   7.250  1.00  0.00     0.280 HD
BRANCH  17  22
HETATM   22  C   UNL     1      44.826 -10.152   9.565  1.00  0.00     0.264 C 
HETATM   23  O   UNL     1      45.820  -9.517   9.243  1.00  0.00    -0.265 OA
BRANCH  22  24
HETATM   24  O   UNL     1      44.625 -10.771  10.755  1.00  0.00    -0.322 OA
BRANCH  24  25
HETATM   25  C   UNL     1      43.461 -10.367  11.496  1.00  0.00     0.174 C 
HETATM   26  C   UNL     1      43.600  -8.919  11.926  1.00  0.00     0.034 C 
ENDBRANCH  24  25
ENDBRANCH  22  24
ENDBRANCH  17  22
ENDBRANCH  14  15
ENDBRANCH  11  14
ENDBRANCH   1  10
BRANCH   9  27
HETATM   27  C   UNL     1      41.340 -15.438   2.507  1.00  0.00     0.259 C 
HETATM   28  N   UNL     1      42.581 -16.022   2.358  1.00  0.00    -0.323 N 
HETATM   29  H   UNL     1      43.221 -15.576   1.724  1.00  0.00     0.169 HD
HETATM   30  O   UNL     1      40.413 -15.917   3.162  1.00  0.00    -0.267 OA
BRANCH  28  31
HETATM   31  C   UNL     1      43.079 -17.197   2.958  1.00  0.00     0.035 A 
HETATM   32  C   UNL     1      43.143 -18.441   2.328  1.00  0.00     0.031 A 
HETATM   33  C   UNL     1      43.657 -19.554   3.008  1.00  0.00     0.026 A 
HETATM   34  C   UNL     1      44.096 -19.429   4.323  1.00  0.00     0.034 A 
HETATM   35 CL   UNL     1      44.719 -20.798   5.155  1.00  0.00    -0.084 Cl
HETATM   36  C   UNL     1      44.031 -18.198   4.967  1.00  0.00     0.026 A 
HETATM   37  C   UNL     1      43.528 -17.086   4.284  1.00  0.00     0.031 A 
ENDBRANCH  28  31
ENDBRANCH   9  27
TORSDOF 8
ENDMDL
MODEL 4
REMARK VINA RESULT:      -8.6      3.738      7.117
REMARK  8 active torsions:
REMARK  status: ('A' for Active; 'I' for Inactive)
REMARK    1  A    between atoms: C_2  and  O_3 
REMARK    2  A    between atoms: O_3  and  C_4 
REMARK    3  A    between atoms: C_4  and  C_5 
REMARK    4  A    between atoms: N_7  and  C_9 
REMARK    5  A    between atoms: C_9  and  C_10 
REMARK       I    between atoms: C_10  and  N_11 
REMARK    6  A    between atoms: N_11  and  C_12 
REMARK    7  A    between atoms: C_20  and  C_21 
REMARK       I    between atoms: C_21  and  N_22 
REMARK    8  A    between atoms: N_22  and  C_23 
ROOT
HETATM    1  C   UNL     1      43.234 -16.282   4.572  1.00  0.00     0.093 C 
HETATM    2  S   UNL     1      43.713 -17.453   5.701  1.00  0.00    -0.075 SA
HETATM    3  C   UNL     1      43.775 -18.657   4.519  1.00  0.00    -0.008 C 
HETATM    4  C   UNL     1      43.457 -18.192   3.252  1.00  0.00    -0.026 C 
HETATM    5  C   UNL     1      43.391 -19.163   2.100  1.00  0.00     0.041 C 
HETATM    6  C   UNL     1      43.305 -20.626   2.559  1.00  0.00     0.005 C 
HETATM    7  C   UNL     1      44.341 -20.927   3.647  1.00  0.00     0.005 C 
HETATM    8  C   UNL     1      44.090 -20.076   4.894  1.00  0.00     0.047 C 
HETATM    9  C   UNL     1      43.234 -16.747   3.256  1.00  0.00     0.073 C 
ENDROOT
BRANCH   1  10
HETATM   10  N   UNL     1      42.986 -14.982   5.002  1.00  0.00    -0.319 N 
HETATM   11  C   UNL     1      41.847 -14.591   5.666  1.00  0.00     0.248 C 
HETATM   12  O   UNL     1      40.820 -15.249   5.862  1.00  0.00    -0.271 OA
HETATM   13  H   UNL     1      43.556 -14.277   4.528  1.00  0.00     0.169 HD
BRANCH  11  14
HETATM   14  C   UNL     1      41.867 -13.160   6.209  1.00  0.00     0.337 C 
BRANCH  14  15
HETATM   15  N   UNL     1      41.616 -12.190   5.039  1.00  0.00    -0.062 N 
HETATM   16  C   UNL     1      40.255 -11.523   5.126  1.00  0.00     0.249 C 
HETATM   17  C   UNL     1      39.959 -10.802   3.812  1.00  0.00     0.111 C 
HETATM   18  C   UNL     1      41.077  -9.813   3.472  1.00  0.00     0.018 C 
HETATM   19  C   UNL     1      42.451 -10.482   3.486  1.00  0.00     0.029 C 
HETATM   20  C   UNL     1      42.726 -11.219   4.792  1.00  0.00     0.235 C 
HETATM   21  H   UNL     1      41.554 -12.837   4.229  1.00  0.00     0.280 HD
BRANCH  17  22
HETATM   22  C   UNL     1      38.625 -10.103   3.949  1.00  0.00     0.264 C 
HETATM   23  O   UNL     1      38.171  -9.718   5.017  1.00  0.00    -0.265 OA
BRANCH  22  24
HETATM   24  O   UNL     1      38.020  -9.998   2.739  1.00  0.00    -0.322 OA
BRANCH  24  25
HETATM   25  C   UNL     1      37.919 -11.208   1.969  1.00  0.00     0.174 C 
HETATM   26  C   UNL     1      36.994 -10.991   0.786  1.00  0.00     0.034 C 
ENDBRANCH  24  25
ENDBRANCH  22  24
ENDBRANCH  17  22
ENDBRANCH  14  15
ENDBRANCH  11  14
ENDBRANCH   1  10
BRANCH   9  27
HETATM   27  C   UNL     1      42.957 -15.805   2.142  1.00  0.00     0.259 C 
HETATM   28  N   UNL     1      41.642 -15.415   1.998  1.00  0.00    -0.323 N 
HETATM   29  H   UNL     1      40.970 -15.843   2.611  1.00  0.00     0.169 HD
HETATM   30  O   UNL     1      43.879 -15.455   1.403  1.00  0.00    -0.267 OA
BRANCH  28  31
HETATM   31  C   UNL     1      41.090 -14.507   1.070  1.00  0.00     0.035 A 
HETATM   32  C   UNL     1      41.431 -13.157   0.986  1.00  0.00     0.031 A 
HETATM   33  C   UNL     1      40.827 -12.332   0.027  1.00  0.00     0.026 A 
HETATM   34  C   UNL     1      39.873 -12.852  -0.842  1.00  0.00     0.034 A 
HETATM   35 CL   UNL     1      39.130 -11.835  -2.012  1.00  0.00    -0.084 Cl
HETATM   36  C   UNL     1      39.517 -14.194  -0.766  1.00  0.00     0.026 A 
HETATM   37  C   UNL     1      40.128 -15.019   0.184  1.00  0.00     0.031 A 
ENDBRANCH  28  31
ENDBRANCH   9  27
TORSDOF 8
ENDMDL
MODEL 5
REMARK VINA RESULT:      -8.5      2.398      7.542
REMARK  8 active torsions:
REMARK  status: ('A' for Active; 'I' for Inactive)
REMARK    1  A    between atoms: C_2  and  O_3 
REMARK    2  A    between atoms: O_3  and  C_4 
REMARK    3  A    between atoms: C_4  and  C_5 
REMARK    4  A    between atoms: N_7  and  C_9 
REMARK    5  A    between atoms: C_9  and  C_10 
REMARK       I    between atoms: C_10  and  N_11 
REMARK    6  A    between atoms: N_11  and  C_12 
REMARK    7  A    between atoms: C_20  and  C_21 
REMARK       I    between atoms: C_21  and  N_22 
REMARK    8  A    between atoms: N_22  and  C_23 
ROOT
HETATM    1  C   UNL     1      41.633 -10.399   6.230  1.00  0.00     0.093 C 
HETATM    2  S   UNL     1      41.687  -8.803   6.801  1.00  0.00    -0.075 SA
HETATM    3  C   UNL     1      43.131  -9.082   7.630  1.00  0.00    -0.008 C 
HETATM    4  C   UNL     1      43.607 -10.375   7.472  1.00  0.00    -0.026 C 
HETATM    5  C   UNL     1      44.847 -10.805   8.214  1.00  0.00     0.041 C 
HETATM    6  C   UNL     1      45.209  -9.856   9.367  1.00  0.00     0.005 C 
HETATM    7  C   UNL     1      45.154  -8.393   8.919  1.00  0.00     0.005 C 
HETATM    8  C   UNL     1      43.740  -8.006   8.480  1.00  0.00     0.047 C 
HETATM    9  C   UNL     1      42.771 -11.142   6.549  1.00  0.00     0.073 C 
ENDROOT
BRANCH   1  10
HETATM   10  N   UNL     1      40.562 -10.805   5.440  1.00  0.00    -0.319 N 
HETATM   11  C   UNL     1      40.470 -10.579   4.086  1.00  0.00     0.248 C 
HETATM   12  O   UNL     1      41.205  -9.881   3.383  1.00  0.00    -0.271 OA
HETATM   13  H   UNL     1      39.712 -11.007   5.973  1.00  0.00     0.169 HD
BRANCH  11  14
HETATM   14  C   UNL     1      39.298 -11.274   3.387  1.00  0.00     0.337 C 
BRANCH  14  15
HETATM   15  N   UNL     1      39.863 -12.326   2.415  1.00  0.00    -0.062 N 
HETATM   16  C   UNL     1      40.003 -13.692   3.061  1.00  0.00     0.249 C 
HETATM   17  C   UNL     1      40.818 -14.604   2.146  1.00  0.00     0.111 C 
HETATM   18  C   UNL     1      40.188 -14.678   0.753  1.00  0.00     0.018 C 
HETATM   19  C   UNL     1      39.963 -13.287   0.158  1.00  0.00     0.029 C 
HETATM   20  C   UNL     1      39.171 -12.377   1.090  1.00  0.00     0.235 C 
HETATM   21  H   UNL     1      40.834 -11.988   2.270  1.00  0.00     0.280 HD
BRANCH  17  22
HETATM   22  C   UNL     1      40.893 -15.971   2.791  1.00  0.00     0.264 C 
HETATM   23  O   UNL     1      40.309 -16.263   3.824  1.00  0.00    -0.265 OA
BRANCH  22  24
HETATM   24  O   UNL     1      41.709 -16.786   2.076  1.00  0.00    -0.322 OA
BRANCH  24  25
HETATM   25  C   UNL     1      43.039 -16.967   2.590  1.00  0.00     0.174 C 
HETATM   26  C   UNL     1      43.393 -18.443   2.598  1.00  0.00     0.034 C 
ENDBRANCH  24  25
ENDBRANCH  22  24
ENDBRANCH  17  22
ENDBRANCH  14  15
ENDBRANCH  11  14
ENDBRANCH   1  10
BRANCH   9  27
HETATM   27  C   UNL     1      42.928 -12.517   6.012  1.00  0.00     0.259 C 
HETATM   28  N   UNL     1      42.946 -13.529   6.950  1.00  0.00    -0.323 N 
HETATM   29  H   UNL     1      42.916 -13.255   7.916  1.00  0.00     0.169 HD
HETATM   30  O   UNL     1      43.064 -12.682   4.799  1.00  0.00    -0.267 OA
BRANCH  28  31
HETATM   31  C   UNL     1      43.037 -14.921   6.741  1.00  0.00     0.035 A 
HETATM   32  C   UNL     1      41.969 -15.810   6.864  1.00  0.00     0.031 A 
HETATM   33  C   UNL     1      42.157 -17.180   6.634  1.00  0.00     0.026 A 
HETATM   34  C   UNL     1      43.416 -17.665   6.291  1.00  0.00     0.034 A 
HETATM   35 CL   UNL     1      43.644 -19.347   6.017  1.00  0.00    -0.084 Cl
HETATM   36  C   UNL     1      44.492 -16.792   6.171  1.00  0.00     0.026 A 
HETATM   37  C   UNL     1      44.300 -15.424   6.391  1.00  0.00     0.031 A 
ENDBRANCH  28  31
ENDBRANCH   9  27
TORSDOF 8
ENDMDL
MODEL 6
REMARK VINA RESULT:      -8.5      2.104      3.413
REMARK  8 active torsions:
REMARK  status: ('A' for Active; 'I' for Inactive)
REMARK    1  A    between atoms: C_2  and  O_3 
REMARK    2  A    between atoms: O_3  and  C_4 
REMARK    3  A    between atoms: C_4  and  C_5 
REMARK    4  A    between atoms: N_7  and  C_9 
REMARK    5  A    between atoms: C_9  and  C_10 
REMARK       I    between atoms: C_10  and  N_11 
REMARK    6  A    between atoms: N_11  and  C_12 
REMARK    7  A    between atoms: C_20  and  C_21 
REMARK       I    between atoms: C_21  and  N_22 
REMARK    8  A    between atoms: N_22  and  C_23 
ROOT
HETATM    1  C   UNL     1      42.058 -12.266   3.405  1.00  0.00     0.093 C 
HETATM    2  S   UNL     1      41.805 -10.700   2.805  1.00  0.00    -0.075 SA
HETATM    3  C   UNL     1      41.218 -11.291   1.337  1.00  0.00    -0.008 C 
HETATM    4  C   UNL     1      41.182 -12.675   1.283  1.00  0.00    -0.026 C 
HETATM    5  C   UNL     1      40.756 -13.358   0.008  1.00  0.00     0.041 C 
HETATM    6  C   UNL     1      40.786 -12.419  -1.208  1.00  0.00     0.005 C 
HETATM    7  C   UNL     1      40.112 -11.081  -0.892  1.00  0.00     0.005 C 
HETATM    8  C   UNL     1      40.851 -10.346   0.230  1.00  0.00     0.047 C 
HETATM    9  C   UNL     1      41.585 -13.269   2.557  1.00  0.00     0.073 C 
ENDROOT
BRANCH   1  10
HETATM   10  N   UNL     1      42.599 -12.430   4.677  1.00  0.00    -0.319 N 
HETATM   11  C   UNL     1      43.793 -11.884   5.087  1.00  0.00     0.248 C 
HETATM   12  O   UNL     1      44.637 -11.305   4.397  1.00  0.00    -0.271 OA
HETATM   13  H   UNL     1      42.211 -13.227   5.189  1.00  0.00     0.169 HD
BRANCH  11  14
HETATM   14  C   UNL     1      44.102 -12.036   6.578  1.00  0.00     0.337 C 
BRANCH  14  15
HETATM   15  N   UNL     1      44.560 -10.671   7.124  1.00  0.00    -0.062 N 
HETATM   16  C   UNL     1      43.513 -10.027   8.016  1.00  0.00     0.249 C 
HETATM   17  C   UNL     1      43.906  -8.576   8.290  1.00  0.00     0.111 C 
HETATM   18  C   UNL     1      45.313  -8.499   8.888  1.00  0.00     0.018 C 
HETATM   19  C   UNL     1      46.337  -9.237   8.027  1.00  0.00     0.029 C 
HETATM   20  C   UNL     1      45.924 -10.676   7.738  1.00  0.00     0.235 C 
HETATM   21  H   UNL     1      44.584 -10.090   6.264  1.00  0.00     0.280 HD
BRANCH  17  22
HETATM   22  C   UNL     1      42.876  -7.979   9.223  1.00  0.00     0.264 C 
HETATM   23  O   UNL     1      42.617  -6.785   9.268  1.00  0.00    -0.265 OA
BRANCH  22  24
HETATM   24  O   UNL     1      42.321  -8.946   9.997  1.00  0.00    -0.322 OA
BRANCH  24  25
HETATM   25  C   UNL     1      42.142  -8.626  11.387  1.00  0.00     0.174 C 
HETATM   26  C   UNL     1      43.475  -8.693  12.108  1.00  0.00     0.034 C 
ENDBRANCH  24  25
ENDBRANCH  22  24
ENDBRANCH  17  22
ENDBRANCH  14  15
ENDBRANCH  11  14
ENDBRANCH   1  10
BRANCH   9  27
HETATM   27  C   UNL     1      41.621 -14.685   3.000  1.00  0.00     0.259 C 
HETATM   28  N   UNL     1      42.859 -15.294   2.965  1.00  0.00    -0.323 N 
HETATM   29  H   UNL     1      43.621 -14.757   2.588  1.00  0.00     0.169 HD
HETATM   30  O   UNL     1      40.574 -15.243   3.333  1.00  0.00    -0.267 OA
BRANCH  28  31
HETATM   31  C   UNL     1      43.208 -16.602   3.361  1.00  0.00     0.035 A 
HETATM   32  C   UNL     1      43.608 -16.957   4.650  1.00  0.00     0.031 A 
HETATM   33  C   UNL     1      43.935 -18.287   4.949  1.00  0.00     0.026 A 
HETATM   34  C   UNL     1      43.873 -19.262   3.958  1.00  0.00     0.034 A 
HETATM   35 CL   UNL     1      44.281 -20.891   4.328  1.00  0.00    -0.084 Cl
HETATM   36  C   UNL     1      43.484 -18.922   2.667  1.00  0.00     0.026 A 
HETATM   37  C   UNL     1      43.148 -17.597   2.373  1.00  0.00     0.031 A 
ENDBRANCH  28  31
ENDBRANCH   9  27
TORSDOF 8
ENDMDL
MODEL 7
REMARK VINA RESULT:      -8.4      3.685      6.553
REMARK  8 active torsions:
REMARK  status: ('A' for Active; 'I' for Inactive)
REMARK    1  A    between atoms: C_2  and  O_3 
REMARK    2  A    between atoms: O_3  and  C_4 
REMARK    3  A    between atoms: C_4  and  C_5 
REMARK    4  A    between atoms: N_7  and  C_9 
REMARK    5  A    between atoms: C_9  and  C_10 
REMARK       I    between atoms: C_10  and  N_11 
REMARK    6  A    between atoms: N_11  and  C_12 
REMARK    7  A    between atoms: C_20  and  C_21 
REMARK       I    between atoms: C_21  and  N_22 
REMARK    8  A    between atoms: N_22  and  C_23 
ROOT
HETATM    1  C   UNL     1      43.389 -16.266   4.687  1.00  0.00     0.093 C 
HETATM    2  S   UNL     1      43.984 -17.506   5.679  1.00  0.00    -0.075 SA
HETATM    3  C   UNL     1      43.864 -18.642   4.435  1.00  0.00    -0.008 C 
HETATM    4  C   UNL     1      43.394 -18.101   3.249  1.00  0.00    -0.026 C 
HETATM    5  C   UNL     1      43.155 -19.004   2.064  1.00  0.00     0.041 C 
HETATM    6  C   UNL     1      43.097 -20.489   2.451  1.00  0.00     0.005 C 
HETATM    7  C   UNL     1      44.258 -20.868   3.375  1.00  0.00     0.005 C 
HETATM    8  C   UNL     1      44.192 -20.085   4.689  1.00  0.00     0.047 C 
HETATM    9  C   UNL     1      43.206 -16.655   3.359  1.00  0.00     0.073 C 
ENDROOT
BRANCH   1  10
HETATM   10  N   UNL     1      43.229 -14.988   5.216  1.00  0.00    -0.319 N 
HETATM   11  C   UNL     1      42.014 -14.433   5.543  1.00  0.00     0.248 C 
HETATM   12  O   UNL     1      40.888 -14.879   5.303  1.00  0.00    -0.271 OA
HETATM   13  H   UNL     1      44.034 -14.376   5.060  1.00  0.00     0.169 HD
BRANCH  11  14
HETATM   14  C   UNL     1      42.086 -13.094   6.282  1.00  0.00     0.337 C 
BRANCH  14  15
HETATM   15  N   UNL     1      41.598 -11.985   5.332  1.00  0.00    -0.062 N 
HETATM   16  C   UNL     1      40.500 -11.139   5.952  1.00  0.00     0.249 C 
HETATM   17  C   UNL     1      39.874 -10.254   4.875  1.00  0.00     0.111 C 
HETATM   18  C   UNL     1      40.943  -9.408   4.178  1.00  0.00     0.018 C 
HETATM   19  C   UNL     1      42.089 -10.269   3.647  1.00  0.00     0.029 C 
HETATM   20  C   UNL     1      42.691 -11.166   4.723  1.00  0.00     0.235 C 
HETATM   21  H   UNL     1      41.133 -12.531   4.581  1.00  0.00     0.280 HD
BRANCH  17  22
HETATM   22  C   UNL     1      38.825  -9.385   5.533  1.00  0.00     0.264 C 
HETATM   23  O   UNL     1      37.680  -9.756   5.749  1.00  0.00    -0.265 OA
BRANCH  22  24
HETATM   24  O   UNL     1      39.333  -8.158   5.811  1.00  0.00    -0.322 OA
BRANCH  24  25
HETATM   25  C   UNL     1      39.309  -7.757   7.192  1.00  0.00     0.174 C 
HETATM   26  C   UNL     1      40.722  -7.728   7.745  1.00  0.00     0.034 C 
ENDBRANCH  24  25
ENDBRANCH  22  24
ENDBRANCH  17  22
ENDBRANCH  14  15
ENDBRANCH  11  14
ENDBRANCH   1  10
BRANCH   9  27
HETATM   27  C   UNL     1      42.809 -15.648   2.344  1.00  0.00     0.259 C 
HETATM   28  N   UNL     1      41.453 -15.421   2.222  1.00  0.00    -0.323 N 
HETATM   29  H   UNL     1      40.843 -15.994   2.778  1.00  0.00     0.169 HD
HETATM   30  O   UNL     1      43.676 -15.105   1.658  1.00  0.00    -0.267 OA
BRANCH  28  31
HETATM   31  C   UNL     1      40.787 -14.502   1.384  1.00  0.00     0.035 A 
HETATM   32  C   UNL     1      40.255 -14.815   0.132  1.00  0.00     0.031 A 
HETATM   33  C   UNL     1      39.607 -13.831  -0.628  1.00  0.00     0.026 A 
HETATM   34  C   UNL     1      39.499 -12.531  -0.143  1.00  0.00     0.034 A 
HETATM   35 CL   UNL     1      38.710 -11.326  -1.082  1.00  0.00    -0.084 Cl
HETATM   36  C   UNL     1      40.031 -12.202   1.100  1.00  0.00     0.026 A 
HETATM   37  C   UNL     1      40.667 -13.187   1.861  1.00  0.00     0.031 A 
ENDBRANCH  28  31
ENDBRANCH   9  27
TORSDOF 8
ENDMDL
MODEL 8
REMARK VINA RESULT:      -8.4      3.116      5.796
REMARK  8 active torsions:
REMARK  status: ('A' for Active; 'I' for Inactive)
REMARK    1  A    between atoms: C_2  and  O_3 
REMARK    2  A    between atoms: O_3  and  C_4 
REMARK    3  A    between atoms: C_4  and  C_5 
REMARK    4  A    between atoms: N_7  and  C_9 
REMARK    5  A    between atoms: C_9  and  C_10 
REMARK       I    between atoms: C_10  and  N_11 
REMARK    6  A    between atoms: N_11  and  C_12 
REMARK    7  A    between atoms: C_20  and  C_21 
REMARK       I    between atoms: C_21  and  N_22 
REMARK    8  A    between atoms: N_22  and  C_23 
ROOT
HETATM    1  C   UNL     1      42.688 -14.742   4.399  1.00  0.00     0.093 C 
HETATM    2  S   UNL     1      43.468 -15.806   5.465  1.00  0.00    -0.075 SA
HETATM    3  C   UNL     1      43.544 -17.021   4.294  1.00  0.00    -0.008 C 
HETATM    4  C   UNL     1      43.004 -16.636   3.077  1.00  0.00    -0.026 C 
HETATM    5  C   UNL     1      42.925 -17.637   1.950  1.00  0.00     0.041 C 
HETATM    6  C   UNL     1      43.105 -19.085   2.429  1.00  0.00     0.005 C 
HETATM    7  C   UNL     1      44.303 -19.213   3.373  1.00  0.00     0.005 C 
HETATM    8  C   UNL     1      44.099 -18.373   4.636  1.00  0.00     0.047 C 
HETATM    9  C   UNL     1      42.583 -15.236   3.098  1.00  0.00     0.073 C 
ENDROOT
BRANCH   1  10
HETATM   10  N   UNL     1      42.318 -13.477   4.848  1.00  0.00    -0.319 N 
HETATM   11  C   UNL     1      41.404 -13.249   5.849  1.00  0.00     0.248 C 
HETATM   12  O   UNL     1      40.667 -14.069   6.404  1.00  0.00    -0.271 OA
HETATM   13  H   UNL     1      42.535 -12.727   4.186  1.00  0.00     0.169 HD
BRANCH  11  14
HETATM   14  C   UNL     1      41.289 -11.792   6.308  1.00  0.00     0.337 C 
BRANCH  14  15
HETATM   15  N   UNL     1      42.698 -11.276   6.654  1.00  0.00    -0.062 N 
HETATM   16  C   UNL     1      42.657 -10.025   7.513  1.00  0.00     0.249 C 
HETATM   17  C   UNL     1      44.055  -9.414   7.584  1.00  0.00     0.111 C 
HETATM   18  C   UNL     1      45.071 -10.441   8.091  1.00  0.00     0.018 C 
HETATM   19  C   UNL     1      45.029 -11.732   7.275  1.00  0.00     0.029 C 
HETATM   20  C   UNL     1      43.625 -12.320   7.190  1.00  0.00     0.235 C 
HETATM   21  H   UNL     1      43.048 -10.963   5.728  1.00  0.00     0.280 HD
BRANCH  17  22
HETATM   22  C   UNL     1      43.994  -8.204   8.489  1.00  0.00     0.264 C 
HETATM   23  O   UNL     1      44.876  -7.359   8.548  1.00  0.00    -0.265 OA
BRANCH  22  24
HETATM   24  O   UNL     1      42.852  -8.218   9.221  1.00  0.00    -0.322 OA
BRANCH  24  25
HETATM   25  C   UNL     1      42.993  -7.949  10.627  1.00  0.00     0.174 C 
HETATM   26  C   UNL     1      43.841  -9.026  11.276  1.00  0.00     0.034 C 
ENDBRANCH  24  25
ENDBRANCH  22  24
ENDBRANCH  17  22
ENDBRANCH  14  15
ENDBRANCH  11  14
ENDBRANCH   1  10
BRANCH   9  27
HETATM   27  C   UNL     1      42.037 -14.370   2.023  1.00  0.00     0.259 C 
HETATM   28  N   UNL     1      40.811 -14.747   1.514  1.00  0.00    -0.323 N 
HETATM   29  H   UNL     1      40.416 -15.603   1.862  1.00  0.00     0.169 HD
HETATM   30  O   UNL     1      42.697 -13.409   1.625  1.00  0.00    -0.267 OA
BRANCH  28  31
HETATM   31  C   UNL     1      40.032 -14.103   0.529  1.00  0.00     0.035 A 
HETATM   32  C   UNL     1      39.754 -14.634  -0.731  1.00  0.00     0.031 A 
HETATM   33  C   UNL     1      38.967 -13.918  -1.644  1.00  0.00     0.026 A 
HETATM   34  C   UNL     1      38.465 -12.665  -1.302  1.00  0.00     0.034 A 
HETATM   35 CL   UNL     1      37.506 -11.788  -2.427  1.00  0.00    -0.084 Cl
HETATM   36  C   UNL     1      38.740 -12.120  -0.053  1.00  0.00     0.026 A 
HETATM   37  C   UNL     1      39.517 -12.840   0.860  1.00  0.00     0.031 A 
ENDBRANCH  28  31
ENDBRANCH   9  27
TORSDOF 8
ENDMDL
MODEL 9
REMARK VINA RESULT:      -8.3      3.166      8.290
REMARK  8 active torsions:
REMARK  status: ('A' for Active; 'I' for Inactive)
REMARK    1  A    between atoms: C_2  and  O_3 
REMARK    2  A    between atoms: O_3  and  C_4 
REMARK    3  A    between atoms: C_4  and  C_5 
REMARK    4  A    between atoms: N_7  and  C_9 
REMARK    5  A    between atoms: C_9  and  C_10 
REMARK       I    between atoms: C_10  and  N_11 
REMARK    6  A    between atoms: N_11  and  C_12 
REMARK    7  A    between atoms: C_20  and  C_21 
REMARK       I    between atoms: C_21  and  N_22 
REMARK    8  A    between atoms: N_22  and  C_23 
ROOT
HETATM    1  C   UNL     1      41.765 -14.819   3.111  1.00  0.00     0.093 C 
HETATM    2  S   UNL     1      41.707 -16.098   1.999  1.00  0.00    -0.075 SA
HETATM    3  C   UNL     1      42.688 -17.069   2.971  1.00  0.00    -0.008 C 
HETATM    4  C   UNL     1      43.056 -16.454   4.157  1.00  0.00    -0.026 C 
HETATM    5  C   UNL     1      43.998 -17.162   5.100  1.00  0.00     0.041 C 
HETATM    6  C   UNL     1      44.742 -18.328   4.432  1.00  0.00     0.005 C 
HETATM    7  C   UNL     1      43.782 -19.213   3.632  1.00  0.00     0.005 C 
HETATM    8  C   UNL     1      43.124 -18.425   2.497  1.00  0.00     0.047 C 
HETATM    9  C   UNL     1      42.422 -15.144   4.299  1.00  0.00     0.073 C 
ENDROOT
BRANCH   1  10
HETATM   10  N   UNL     1      41.101 -13.630   2.819  1.00  0.00    -0.319 N 
HETATM   11  C   UNL     1      41.729 -12.465   2.446  1.00  0.00     0.248 C 
HETATM   12  O   UNL     1      42.940 -12.223   2.447  1.00  0.00    -0.271 OA
HETATM   13  H   UNL     1      40.149 -13.589   3.192  1.00  0.00     0.169 HD
BRANCH  11  14
HETATM   14  C   UNL     1      40.797 -11.339   1.992  1.00  0.00     0.337 C 
BRANCH  14  15
HETATM   15  N   UNL     1      41.134 -10.984   0.532  1.00  0.00    -0.062 N 
HETATM   16  C   UNL     1      40.095 -11.510  -0.442  1.00  0.00     0.249 C 
HETATM   17  C   UNL     1      40.624 -11.373  -1.869  1.00  0.00     0.111 C 
HETATM   18  C   UNL     1      41.022  -9.924  -2.163  1.00  0.00     0.018 C 
HETATM   19  C   UNL     1      41.992  -9.379  -1.116  1.00  0.00     0.029 C 
HETATM   20  C   UNL     1      41.467  -9.543   0.306  1.00  0.00     0.235 C 
HETATM   21  H   UNL     1      41.985 -11.553   0.360  1.00  0.00     0.280 HD
BRANCH  17  22
HETATM   22  C   UNL     1      39.548 -11.853  -2.818  1.00  0.00     0.264 C 
HETATM   23  O   UNL     1      38.484 -11.273  -2.981  1.00  0.00    -0.265 OA
BRANCH  22  24
HETATM   24  O   UNL     1      39.928 -13.008  -3.419  1.00  0.00    -0.322 OA
BRANCH  24  25
HETATM   25  C   UNL     1      39.794 -14.208  -2.638  1.00  0.00     0.174 C 
HETATM   26  C   UNL     1      38.542 -14.957  -3.055  1.00  0.00     0.034 C 
ENDBRANCH  24  25
ENDBRANCH  22  24
ENDBRANCH  17  22
ENDBRANCH  14  15
ENDBRANCH  11  14
ENDBRANCH   1  10
BRANCH   9  27
HETATM   27  C   UNL     1      42.445 -14.170   5.419  1.00  0.00     0.259 C 
HETATM   28  N   UNL     1      43.413 -13.190   5.341  1.00  0.00    -0.323 N 
HETATM   29  H   UNL     1      44.059 -13.247   4.573  1.00  0.00     0.169 HD
HETATM   30  O   UNL     1      41.650 -14.299   6.350  1.00  0.00    -0.267 OA
BRANCH  28  31
HETATM   31  C   UNL     1      43.649 -12.114   6.223  1.00  0.00     0.035 A 
HETATM   32  C   UNL     1      42.722 -11.111   6.512  1.00  0.00     0.031 A 
HETATM   33  C   UNL     1      43.049 -10.081   7.405  1.00  0.00     0.026 A 
HETATM   34  C   UNL     1      44.306 -10.046   8.002  1.00  0.00     0.034 A 
HETATM   35 CL   UNL     1      44.705  -8.777   9.092  1.00  0.00    -0.084 Cl
HETATM   36  C   UNL     1      45.242 -11.034   7.718  1.00  0.00     0.026 A 
HETATM   37  C   UNL     1      44.911 -12.067   6.835  1.00  0.00     0.031 A 
ENDBRANCH  28  31
ENDBRANCH   9  27
TORSDOF 8
ENDMDL
MODEL 10
REMARK VINA RESULT:      -8.2      2.326      7.929
REMARK  8 active torsions:
REMARK  status: ('A' for Active; 'I' for Inactive)
REMARK    1  A    between atoms: C_2  and  O_3 
REMARK    2  A    between atoms: O_3  and  C_4 
REMARK    3  A    between atoms: C_4  and  C_5 
REMARK    4  A    between atoms: N_7  and  C_9 
REMARK    5  A    between atoms: C_9  and  C_10 
REMARK       I    between atoms: C_10  and  N_11 
REMARK    6  A    between atoms: N_11  and  C_12 
REMARK    7  A    between atoms: C_20  and  C_21 
REMARK       I    between atoms: C_21  and  N_22 
REMARK    8  A    between atoms: N_22  and  C_23 
ROOT
HETATM    1  C   UNL     1      41.535 -11.020   4.502  1.00  0.00     0.093 C 
HETATM    2  S   UNL     1      41.359  -9.607   5.422  1.00  0.00    -0.075 SA
HETATM    3  C   UNL     1      42.651 -10.024   6.425  1.00  0.00    -0.008 C 
HETATM    4  C   UNL     1      43.250 -11.223   6.069  1.00  0.00    -0.026 C 
HETATM    5  C   UNL     1      44.370 -11.773   6.916  1.00  0.00     0.041 C 
HETATM    6  C   UNL     1      44.445 -11.116   8.302  1.00  0.00     0.005 C 
HETATM    7  C   UNL     1      44.354  -9.591   8.199  1.00  0.00     0.005 C 
HETATM    8  C   UNL     1      43.012  -9.161   7.599  1.00  0.00     0.047 C 
HETATM    9  C   UNL     1      42.655 -11.776   4.854  1.00  0.00     0.073 C 
ENDROOT
BRANCH   1  10
HETATM   10  N   UNL     1      40.656 -11.264   3.451  1.00  0.00    -0.319 N 
HETATM   11  C   UNL     1      39.676 -12.228   3.469  1.00  0.00     0.248 C 
HETATM   12  O   UNL     1      39.498 -13.111   4.313  1.00  0.00    -0.271 OA
HETATM   13  H   UNL     1      40.978 -10.894   2.553  1.00  0.00     0.169 HD
BRANCH  11  14
HETATM   14  C   UNL     1      38.706 -12.196   2.285  1.00  0.00     0.337 C 
BRANCH  14  15
HETATM   15  N   UNL     1      39.485 -11.768   1.027  1.00  0.00    -0.062 N 
HETATM   16  C   UNL     1      39.433 -12.819  -0.067  1.00  0.00     0.249 C 
HETATM   17  C   UNL     1      40.441 -12.464  -1.159  1.00  0.00     0.111 C 
HETATM   18  C   UNL     1      40.188 -11.051  -1.691  1.00  0.00     0.018 C 
HETATM   19  C   UNL     1      40.145 -10.019  -0.564  1.00  0.00     0.029 C 
HETATM   20  C   UNL     1      39.155 -10.396   0.532  1.00  0.00     0.235 C 
HETATM   21  H   UNL     1      40.466 -11.773   1.367  1.00  0.00     0.280 HD
BRANCH  17  22
HETATM   22  C   UNL     1      40.327 -13.497  -2.258  1.00  0.00     0.264 C 
HETATM   23  O   UNL     1      41.018 -13.488  -3.266  1.00  0.00    -0.265 OA
BRANCH  22  24
HETATM   24  O   UNL     1      39.347 -14.390  -1.968  1.00  0.00    -0.322 OA
BRANCH  24  25
HETATM   25  C   UNL     1      38.371 -14.623  -2.998  1.00  0.00     0.174 C 
HETATM   26  C   UNL     1      37.302 -13.548  -2.946  1.00  0.00     0.034 C 
ENDBRANCH  24  25
ENDBRANCH  22  24
ENDBRANCH  17  22
ENDBRANCH  14  15
ENDBRANCH  11  14
ENDBRANCH   1  10
BRANCH   9  27
HETATM   27  C   UNL     1      43.013 -12.976   4.057  1.00  0.00     0.259 C 
HETATM   28  N   UNL     1      42.608 -14.187   4.580  1.00  0.00    -0.323 N 
HETATM   29  H   UNL     1      42.162 -14.168   5.480  1.00  0.00     0.169 HD
HETATM   30  O   UNL     1      43.664 -12.842   3.020  1.00  0.00    -0.267 OA
BRANCH  28  31
HETATM   31  C   UNL     1      42.764 -15.478   4.034  1.00  0.00     0.035 A 
HETATM   32  C   UNL     1      43.692 -16.420   4.481  1.00  0.00     0.031 A 
HETATM   33  C   UNL     1      43.771 -17.681   3.874  1.00  0.00     0.026 A 
HETATM   34  C   UNL     1      42.931 -17.999   2.810  1.00  0.00     0.034 A 
HETATM   35 CL   UNL     1      43.036 -19.544   2.064  1.00  0.00    -0.084 Cl
HETATM   36  C   UNL     1      42.006 -17.068   2.348  1.00  0.00     0.026 A 
HETATM   37  C   UNL     1      41.921 -15.815   2.962  1.00  0.00     0.031 A 
ENDBRANCH  28  31
ENDBRANCH   9  27
TORSDOF 8
ENDMDL
