MODEL 1
REMARK VINA RESULT:      -8.5      0.000      0.000
REMARK  5 active torsions:
REMARK  status: ('A' for Active; 'I' for Inactive)
REMARK    1  A    between atoms: O_2  and  C_3 
REMARK    2  A    between atoms: C_5  and  C_15 
REMARK    3  A    between atoms: C_8  and  C_9 
REMARK       I    between atoms: C_15  and  N_17 
REMARK    4  A    between atoms: N_17  and  C_18 
REMARK    5  A    between atoms: C_20  and  C_21 
ROOT
HETATM    1  C   UNL     1      39.562 -13.556  -1.830  1.00  0.00     0.080 A 
HETATM    2  C   UNL     1      39.887 -14.467  -0.815  1.00  0.00     0.054 A 
HETATM    3  C   UNL     1      40.029 -14.040   0.513  1.00  0.00     0.034 A 
HETATM    4  C   UNL     1      39.832 -12.696   0.835  1.00  0.00     0.018 A 
HETATM    5  C   UNL     1      39.518 -11.781  -0.173  1.00  0.00     0.016 A 
HETATM    6  C   UNL     1      39.383 -12.193  -1.511  1.00  0.00     0.010 A 
ENDROOT
BRANCH   3   7
HETATM    7  C   UNL     1      40.345 -15.062   1.549  1.00  0.00     0.252 C 
HETATM    8  O   UNL     1      39.438 -15.725   2.043  1.00  0.00    -0.268 OA
HETATM    9  N   UNL     1      41.678 -15.217   1.874  1.00  0.00    -0.352 N 
HETATM   10  H   UNL     1      42.387 -14.769   1.307  1.00  0.00     0.163 HD
BRANCH   9  11
HETATM   11  C   UNL     1      42.105 -16.164   2.861  1.00  0.00     0.094 A 
HETATM   12  C   UNL     1      43.192 -15.800   3.830  1.00  0.00     0.037 A 
HETATM   13  C   UNL     1      43.462 -16.833   2.762  1.00  0.00     0.043 A 
BRANCH  13  14
HETATM   14  C   UNL     1      43.625 -18.284   3.151  1.00  0.00    -0.052 A 
HETATM   15  C   UNL     1      43.394 -19.321   2.232  1.00  0.00     0.007 A 
HETATM   16  C   UNL     1      43.556 -20.663   2.592  1.00  0.00     0.001 A 
HETATM   17  C   UNL     1      43.963 -20.994   3.880  1.00  0.00     0.000 A 
HETATM   18  C   UNL     1      44.210 -19.985   4.807  1.00  0.00     0.001 A 
HETATM   19  C   UNL     1      44.046 -18.647   4.442  1.00  0.00     0.007 A 
ENDBRANCH  13  14
ENDBRANCH   9  11
ENDBRANCH   3   7
BRANCH   1  20
HETATM   20  O   UNL     1      39.407 -13.919  -3.145  1.00  0.00    -0.355 OA
HETATM   21  C   UNL     1      38.312 -14.767  -3.470  1.00  0.00     0.210 C 
ENDBRANCH   1  20
BRANCH   6  22
HETATM   22  C   UNL     1      39.055 -11.200  -2.528  1.00  0.00     0.013 A 
HETATM   23  C   UNL     1      39.880 -10.340  -3.290  1.00  0.00     0.152 A 
HETATM   24  N   UNL     1      39.186  -9.563  -4.128  1.00  0.00    -0.187 NA
HETATM   25  N   UNL     1      37.916  -9.940  -3.923  1.00  0.00    -0.289 N 
HETATM   26  H   UNL     1      37.188  -9.494  -4.471  1.00  0.00     0.188 HD
HETATM   27  C   UNL     1      37.781 -10.909  -2.970  1.00  0.00     0.123 A 
ENDBRANCH   6  22
TORSDOF 5
ENDMDL
MODEL 2
REMARK VINA RESULT:      -8.2      5.728     10.130
REMARK  5 active torsions:
REMARK  status: ('A' for Active; 'I' for Inactive)
REMARK    1  A    between atoms: O_2  and  C_3 
REMARK    2  A    between atoms: C_5  and  C_15 
REMARK    3  A    between atoms: C_8  and  C_9 
REMARK       I    between atoms: C_15  and  N_17 
REMARK    4  A    between atoms: N_17  and  C_18 
REMARK    5  A    between atoms: C_20  and  C_21 
ROOT
HETATM    1  C   UNL     1      42.790 -16.763   4.073  1.00  0.00     0.080 A 
HETATM    2  C   UNL     1      42.658 -15.448   4.540  1.00  0.00     0.054 A 
HETATM    3  C   UNL     1      43.377 -15.010   5.662  1.00  0.00     0.034 A 
HETATM    4  C   UNL     1      44.244 -15.886   6.316  1.00  0.00     0.018 A 
HETATM    5  C   UNL     1      44.372 -17.202   5.862  1.00  0.00     0.016 A 
HETATM    6  C   UNL     1      43.650 -17.658   4.745  1.00  0.00     0.010 A 
ENDROOT
BRANCH   3   7
HETATM    7  C   UNL     1      43.216 -13.592   6.089  1.00  0.00     0.252 C 
HETATM    8  O   UNL     1      42.113 -13.059   6.017  1.00  0.00    -0.268 OA
HETATM    9  N   UNL     1      44.346 -12.963   6.574  1.00  0.00    -0.352 N 
HETATM   10  H   UNL     1      45.176 -13.508   6.773  1.00  0.00     0.163 HD
BRANCH   9  11
HETATM   11  C   UNL     1      44.317 -11.599   7.009  1.00  0.00     0.094 A 
HETATM   12  C   UNL     1      45.544 -10.745   6.883  1.00  0.00     0.037 A 
HETATM   13  C   UNL     1      45.067 -11.161   8.253  1.00  0.00     0.043 A 
BRANCH  13  14
HETATM   14  C   UNL     1      44.466 -10.130   9.180  1.00  0.00    -0.052 A 
HETATM   15  C   UNL     1      44.161 -10.434  10.517  1.00  0.00     0.007 A 
HETATM   16  C   UNL     1      43.615  -9.475  11.376  1.00  0.00     0.001 A 
HETATM   17  C   UNL     1      43.372  -8.185  10.915  1.00  0.00     0.000 A 
HETATM   18  C   UNL     1      43.676  -7.854   9.597  1.00  0.00     0.001 A 
HETATM   19  C   UNL     1      44.221  -8.817   8.744  1.00  0.00     0.007 A 
ENDBRANCH  13  14
ENDBRANCH   9  11
ENDBRANCH   3   7
BRANCH   1  20
HETATM   20  O   UNL     1      42.114 -17.244   2.979  1.00  0.00    -0.355 OA
HETATM   21  C   UNL     1      41.311 -16.327   2.245  1.00  0.00     0.210 C 
ENDBRANCH   1  20
BRANCH   6  22
HETATM   22  C   UNL     1      43.818 -19.040   4.310  1.00  0.00     0.013 A 
HETATM   23  C   UNL     1      43.828 -19.615   3.018  1.00  0.00     0.152 A 
HETATM   24  N   UNL     1      44.009 -20.939   3.041  1.00  0.00    -0.187 NA
HETATM   25  N   UNL     1      44.141 -21.214   4.347  1.00  0.00    -0.289 N 
HETATM   26  H   UNL     1      44.310 -22.175   4.620  1.00  0.00     0.188 HD
HETATM   27  C   UNL     1      44.025 -20.115   5.150  1.00  0.00     0.123 A 
ENDBRANCH   6  22
TORSDOF 5
ENDMDL
MODEL 3
REMARK VINA RESULT:      -7.8      7.385     10.539
REMARK  5 active torsions:
REMARK  status: ('A' for Active; 'I' for Inactive)
REMARK    1  A    between atoms: O_2  and  C_3 
REMARK    2  A    between atoms: C_5  and  C_15 
REMARK    3  A    between atoms: C_8  and  C_9 
REMARK       I    between atoms: C_15  and  N_17 
REMARK    4  A    between atoms: N_17  and  C_18 
REMARK    5  A    between atoms: C_20  and  C_21 
ROOT
HETATM    1  C   UNL     1      43.346 -14.269   5.900  1.00  0.00     0.080 A 
HETATM    2  C   UNL     1      43.458 -13.161   6.752  1.00  0.00     0.054 A 
HETATM    3  C   UNL     1      43.060 -11.885   6.327  1.00  0.00     0.034 A 
HETATM    4  C   UNL     1      42.532 -11.714   5.046  1.00  0.00     0.018 A 
HETATM    5  C   UNL     1      42.427 -12.812   4.188  1.00  0.00     0.016 A 
HETATM    6  C   UNL     1      42.832 -14.095   4.597  1.00  0.00     0.010 A 
ENDROOT
BRANCH   3   7
HETATM    7  C   UNL     1      43.177 -10.756   7.291  1.00  0.00     0.252 C 
HETATM    8  O   UNL     1      42.914  -9.616   6.924  1.00  0.00    -0.268 OA
HETATM    9  N   UNL     1      43.560 -11.083   8.577  1.00  0.00    -0.352 N 
HETATM   10  H   UNL     1      43.588 -12.054   8.860  1.00  0.00     0.163 HD
BRANCH   9  11
HETATM   11  C   UNL     1      43.713 -10.083   9.591  1.00  0.00     0.094 A 
HETATM   12  C   UNL     1      45.022  -9.937  10.310  1.00  0.00     0.037 A 
HETATM   13  C   UNL     1      43.820 -10.467  11.054  1.00  0.00     0.043 A 
BRANCH  13  14
HETATM   14  C   UNL     1      43.164  -9.614  12.115  1.00  0.00    -0.052 A 
HETATM   15  C   UNL     1      43.634  -8.324  12.415  1.00  0.00     0.007 A 
HETATM   16  C   UNL     1      43.017  -7.533  13.390  1.00  0.00     0.001 A 
HETATM   17  C   UNL     1      41.909  -8.014  14.080  1.00  0.00     0.000 A 
HETATM   18  C   UNL     1      41.416  -9.285  13.793  1.00  0.00     0.001 A 
HETATM   19  C   UNL     1      42.037 -10.070  12.819  1.00  0.00     0.007 A 
ENDBRANCH  13  14
ENDBRANCH   9  11
ENDBRANCH   3   7
BRANCH   1  20
HETATM   20  O   UNL     1      43.717 -15.539   6.264  1.00  0.00    -0.355 OA
HETATM   21  C   UNL     1      43.138 -16.082   7.445  1.00  0.00     0.210 C 
ENDBRANCH   1  20
BRANCH   6  22
HETATM   22  C   UNL     1      42.703 -15.208   3.664  1.00  0.00     0.013 A 
HETATM   23  C   UNL     1      41.941 -16.399   3.734  1.00  0.00     0.152 A 
HETATM   24  N   UNL     1      42.098 -17.179   2.661  1.00  0.00    -0.187 NA
HETATM   25  N   UNL     1      42.942 -16.480   1.887  1.00  0.00    -0.289 N 
HETATM   26  H   UNL     1      43.204 -16.871   0.988  1.00  0.00     0.188 HD
HETATM   27  C   UNL     1      43.342 -15.300   2.444  1.00  0.00     0.123 A 
ENDBRANCH   6  22
TORSDOF 5
ENDMDL
MODEL 4
REMARK VINA RESULT:      -7.6      7.646     10.557
REMARK  5 active torsions:
REMARK  status: ('A' for Active; 'I' for Inactive)
REMARK    1  A    between atoms: O_2  and  C_3 
REMARK    2  A    between atoms: C_5  and  C_15 
REMARK    3  A    between atoms: C_8  and  C_9 
REMARK       I    between atoms: C_15  and  N_17 
REMARK    4  A    between atoms: N_17  and  C_18 
REMARK    5  A    between atoms: C_20  and  C_21 
ROOT
HETATM    1  C   UNL     1      42.521 -12.571   4.654  1.00  0.00     0.080 A 
HETATM    2  C   UNL     1      42.862 -11.604   5.610  1.00  0.00     0.054 A 
HETATM    3  C   UNL     1      43.579 -11.956   6.762  1.00  0.00     0.034 A 
HETATM    4  C   UNL     1      43.972 -13.280   6.958  1.00  0.00     0.018 A 
HETATM    5  C   UNL     1      43.627 -14.252   6.015  1.00  0.00     0.016 A 
HETATM    6  C   UNL     1      42.899 -13.916   4.860  1.00  0.00     0.010 A 
ENDROOT
BRANCH   3   7
HETATM    7  C   UNL     1      43.936 -10.875   7.723  1.00  0.00     0.252 C 
HETATM    8  O   UNL     1      44.806 -10.063   7.426  1.00  0.00    -0.268 OA
HETATM    9  N   UNL     1      43.225 -10.845   8.907  1.00  0.00    -0.352 N 
HETATM   10  H   UNL     1      42.406 -11.429   9.014  1.00  0.00     0.163 HD
BRANCH   9  11
HETATM   11  C   UNL     1      43.483  -9.858   9.912  1.00  0.00     0.094 A 
HETATM   12  C   UNL     1      44.823  -9.802  10.584  1.00  0.00     0.037 A 
HETATM   13  C   UNL     1      43.615 -10.247  11.372  1.00  0.00     0.043 A 
BRANCH  13  14
HETATM   14  C   UNL     1      43.056  -9.351  12.452  1.00  0.00    -0.052 A 
HETATM   15  C   UNL     1      43.606  -8.085  12.714  1.00  0.00     0.007 A 
HETATM   16  C   UNL     1      43.080  -7.253  13.707  1.00  0.00     0.001 A 
HETATM   17  C   UNL     1      41.983  -7.668  14.455  1.00  0.00     0.000 A 
HETATM   18  C   UNL     1      41.411  -8.913  14.209  1.00  0.00     0.001 A 
HETATM   19  C   UNL     1      41.942  -9.740  13.215  1.00  0.00     0.007 A 
ENDBRANCH  13  14
ENDBRANCH   9  11
ENDBRANCH   3   7
BRANCH   1  20
HETATM   20  O   UNL     1      41.823 -12.284   3.508  1.00  0.00    -0.355 OA
HETATM   21  C   UNL     1      42.432 -11.404   2.569  1.00  0.00     0.210 C 
ENDBRANCH   1  20
BRANCH   6  22
HETATM   22  C   UNL     1      42.562 -14.966   3.905  1.00  0.00     0.013 A 
HETATM   23  C   UNL     1      43.229 -15.416   2.741  1.00  0.00     0.152 A 
HETATM   24  N   UNL     1      42.587 -16.415   2.128  1.00  0.00    -0.187 NA
HETATM   25  N   UNL     1      41.519 -16.626   2.911  1.00  0.00    -0.289 N 
HETATM   26  H   UNL     1      40.875 -17.366   2.655  1.00  0.00     0.188 HD
HETATM   27  C   UNL     1      41.451 -15.781   3.981  1.00  0.00     0.123 A 
ENDBRANCH   6  22
TORSDOF 5
ENDMDL
MODEL 5
REMARK VINA RESULT:      -7.5      6.193      9.811
REMARK  5 active torsions:
REMARK  status: ('A' for Active; 'I' for Inactive)
REMARK    1  A    between atoms: O_2  and  C_3 
REMARK    2  A    between atoms: C_5  and  C_15 
REMARK    3  A    between atoms: C_8  and  C_9 
REMARK       I    between atoms: C_15  and  N_17 
REMARK    4  A    between atoms: N_17  and  C_18 
REMARK    5  A    between atoms: C_20  and  C_21 
ROOT
HETATM    1  C   UNL     1      43.069 -15.031   3.407  1.00  0.00     0.080 A 
HETATM    2  C   UNL     1      42.962 -13.802   4.072  1.00  0.00     0.054 A 
HETATM    3  C   UNL     1      43.085 -13.727   5.466  1.00  0.00     0.034 A 
HETATM    4  C   UNL     1      43.330 -14.886   6.204  1.00  0.00     0.018 A 
HETATM    5  C   UNL     1      43.427 -16.117   5.550  1.00  0.00     0.016 A 
HETATM    6  C   UNL     1      43.295 -16.208   4.152  1.00  0.00     0.010 A 
ENDROOT
BRANCH   3   7
HETATM    7  C   UNL     1      42.993 -12.386   6.108  1.00  0.00     0.252 C 
HETATM    8  O   UNL     1      42.366 -11.490   5.552  1.00  0.00    -0.268 OA
HETATM    9  N   UNL     1      43.615 -12.246   7.333  1.00  0.00    -0.352 N 
HETATM   10  H   UNL     1      43.960 -13.066   7.816  1.00  0.00     0.163 HD
BRANCH   9  11
HETATM   11  C   UNL     1      43.601 -11.003   8.044  1.00  0.00     0.094 A 
HETATM   12  C   UNL     1      44.825 -10.135   8.065  1.00  0.00     0.037 A 
HETATM   13  C   UNL     1      44.386 -10.832   9.331  1.00  0.00     0.043 A 
BRANCH  13  14
HETATM   14  C   UNL     1      43.813 -10.020  10.469  1.00  0.00    -0.052 A 
HETATM   15  C   UNL     1      43.357 -10.631  11.650  1.00  0.00     0.007 A 
HETATM   16  C   UNL     1      42.838  -9.876  12.706  1.00  0.00     0.001 A 
HETATM   17  C   UNL     1      42.772  -8.490  12.606  1.00  0.00     0.000 A 
HETATM   18  C   UNL     1      43.227  -7.859  11.452  1.00  0.00     0.001 A 
HETATM   19  C   UNL     1      43.745  -8.618  10.400  1.00  0.00     0.007 A 
ENDBRANCH  13  14
ENDBRANCH   9  11
ENDBRANCH   3   7
BRANCH   1  20
HETATM   20  O   UNL     1      42.959 -15.163   2.044  1.00  0.00    -0.355 OA
HETATM   21  C   UNL     1      41.804 -14.615   1.421  1.00  0.00     0.210 C 
ENDBRANCH   1  20
BRANCH   6  22
HETATM   22  C   UNL     1      43.403 -17.515   3.516  1.00  0.00     0.013 A 
HETATM   23  C   UNL     1      42.755 -18.055   2.379  1.00  0.00     0.152 A 
HETATM   24  N   UNL     1      43.131 -19.310   2.115  1.00  0.00    -0.187 NA
HETATM   25  N   UNL     1      44.040 -19.571   3.066  1.00  0.00    -0.289 N 
HETATM   26  H   UNL     1      44.491 -20.479   3.063  1.00  0.00     0.188 HD
HETATM   27  C   UNL     1      44.233 -18.536   3.935  1.00  0.00     0.123 A 
ENDBRANCH   6  22
TORSDOF 5
ENDMDL
MODEL 6
REMARK VINA RESULT:      -7.5      8.572     11.396
REMARK  5 active torsions:
REMARK  status: ('A' for Active; 'I' for Inactive)
REMARK    1  A    between atoms: O_2  and  C_3 
REMARK    2  A    between atoms: C_5  and  C_15 
REMARK    3  A    between atoms: C_8  and  C_9 
REMARK       I    between atoms: C_15  and  N_17 
REMARK    4  A    between atoms: N_17  and  C_18 
REMARK    5  A    between atoms: C_20  and  C_21 
ROOT
HETATM    1  C   UNL     1      42.279  -9.165  10.397  1.00  0.00     0.080 A 
HETATM    2  C   UNL     1      42.720  -9.863   9.264  1.00  0.00     0.054 A 
HETATM    3  C   UNL     1      44.047 -10.303   9.163  1.00  0.00     0.034 A 
HETATM    4  C   UNL     1      44.941 -10.057  10.206  1.00  0.00     0.018 A 
HETATM    5  C   UNL     1      44.512  -9.352  11.334  1.00  0.00     0.016 A 
HETATM    6  C   UNL     1      43.186  -8.896  11.444  1.00  0.00     0.010 A 
ENDROOT
BRANCH   3   7
HETATM    7  C   UNL     1      44.443 -11.066   7.947  1.00  0.00     0.252 C 
HETATM    8  O   UNL     1      45.473 -10.766   7.352  1.00  0.00    -0.268 OA
HETATM    9  N   UNL     1      43.613 -12.105   7.575  1.00  0.00    -0.352 N 
HETATM   10  H   UNL     1      42.882 -12.412   8.204  1.00  0.00     0.163 HD
BRANCH   9  11
HETATM   11  C   UNL     1      43.885 -12.907   6.420  1.00  0.00     0.094 A 
HETATM   12  C   UNL     1      43.267 -12.555   5.098  1.00  0.00     0.037 A 
HETATM   13  C   UNL     1      42.816 -13.801   5.821  1.00  0.00     0.043 A 
BRANCH  13  14
HETATM   14  C   UNL     1      43.181 -15.159   5.268  1.00  0.00    -0.052 A 
HETATM   15  C   UNL     1      42.918 -15.502   3.931  1.00  0.00     0.007 A 
HETATM   16  C   UNL     1      43.267 -16.755   3.419  1.00  0.00     0.001 A 
HETATM   17  C   UNL     1      43.896 -17.691   4.234  1.00  0.00     0.000 A 
HETATM   18  C   UNL     1      44.178 -17.372   5.560  1.00  0.00     0.001 A 
HETATM   19  C   UNL     1      43.827 -16.119   6.065  1.00  0.00     0.007 A 
ENDBRANCH  13  14
ENDBRANCH   9  11
ENDBRANCH   3   7
BRANCH   1  20
HETATM   20  O   UNL     1      40.992  -8.714  10.551  1.00  0.00    -0.355 OA
HETATM   21  C   UNL     1      39.984  -9.681  10.823  1.00  0.00     0.210 C 
ENDBRANCH   1  20
BRANCH   6  22
HETATM   22  C   UNL     1      42.787  -8.165  12.641  1.00  0.00     0.013 A 
HETATM   23  C   UNL     1      42.697  -6.776  12.898  1.00  0.00     0.152 A 
HETATM   24  N   UNL     1      42.287  -6.504  14.141  1.00  0.00    -0.187 NA
HETATM   25  N   UNL     1      42.089  -7.717  14.677  1.00  0.00    -0.289 N 
HETATM   26  H   UNL     1      41.751  -7.770  15.632  1.00  0.00     0.188 HD
HETATM   27  C   UNL     1      42.382  -8.744  13.827  1.00  0.00     0.123 A 
ENDBRANCH   6  22
TORSDOF 5
ENDMDL
MODEL 7
REMARK VINA RESULT:      -7.5      2.858      9.732
REMARK  5 active torsions:
REMARK  status: ('A' for Active; 'I' for Inactive)
REMARK    1  A    between atoms: O_2  and  C_3 
REMARK    2  A    between atoms: C_5  and  C_15 
REMARK    3  A    between atoms: C_8  and  C_9 
REMARK       I    between atoms: C_15  and  N_17 
REMARK    4  A    between atoms: N_17  and  C_18 
REMARK    5  A    between atoms: C_20  and  C_21 
ROOT
HETATM    1  C   UNL     1      42.576 -16.744   4.083  1.00  0.00     0.080 A 
HETATM    2  C   UNL     1      42.192 -15.492   3.584  1.00  0.00     0.054 A 
HETATM    3  C   UNL     1      42.476 -15.129   2.259  1.00  0.00     0.034 A 
HETATM    4  C   UNL     1      43.137 -16.028   1.421  1.00  0.00     0.018 A 
HETATM    5  C   UNL     1      43.533 -17.274   1.914  1.00  0.00     0.016 A 
HETATM    6  C   UNL     1      43.264 -17.647   3.244  1.00  0.00     0.010 A 
ENDROOT
BRANCH   3   7
HETATM    7  C   UNL     1      42.013 -13.797   1.782  1.00  0.00     0.252 C 
HETATM    8  O   UNL     1      42.310 -12.790   2.416  1.00  0.00    -0.268 OA
HETATM    9  N   UNL     1      41.283 -13.783   0.609  1.00  0.00    -0.352 N 
HETATM   10  H   UNL     1      41.226 -14.621   0.045  1.00  0.00     0.163 HD
BRANCH   9  11
HETATM   11  C   UNL     1      40.778 -12.563   0.054  1.00  0.00     0.094 A 
HETATM   12  C   UNL     1      39.543 -12.579  -0.797  1.00  0.00     0.037 A 
HETATM   13  C   UNL     1      40.880 -12.282  -1.433  1.00  0.00     0.043 A 
BRANCH  13  14
HETATM   14  C   UNL     1      41.179 -10.885  -1.925  1.00  0.00    -0.052 A 
HETATM   15  C   UNL     1      41.930  -9.980  -1.156  1.00  0.00     0.007 A 
HETATM   16  C   UNL     1      42.214  -8.692  -1.619  1.00  0.00     0.001 A 
HETATM   17  C   UNL     1      41.758  -8.284  -2.868  1.00  0.00     0.000 A 
HETATM   18  C   UNL     1      41.021  -9.164  -3.655  1.00  0.00     0.001 A 
HETATM   19  C   UNL     1      40.740 -10.450  -3.187  1.00  0.00     0.007 A 
ENDBRANCH  13  14
ENDBRANCH   9  11
ENDBRANCH   3   7
BRANCH   1  20
HETATM   20  O   UNL     1      42.322 -17.152   5.369  1.00  0.00    -0.355 OA
HETATM   21  C   UNL     1      41.791 -16.190   6.273  1.00  0.00     0.210 C 
ENDBRANCH   1  20
BRANCH   6  22
HETATM   22  C   UNL     1      43.697 -18.958   3.712  1.00  0.00     0.013 A 
HETATM   23  C   UNL     1      44.290 -19.363   4.932  1.00  0.00     0.152 A 
HETATM   24  N   UNL     1      44.545 -20.674   4.975  1.00  0.00    -0.187 NA
HETATM   25  N   UNL     1      44.094 -21.119   3.793  1.00  0.00    -0.289 N 
HETATM   26  H   UNL     1      44.163 -22.111   3.595  1.00  0.00     0.188 HD
HETATM   27  C   UNL     1      43.586 -20.133   2.996  1.00  0.00     0.123 A 
ENDBRANCH   6  22
TORSDOF 5
ENDMDL
MODEL 8
REMARK VINA RESULT:      -7.4      1.452      2.516
REMARK  5 active torsions:
REMARK  status: ('A' for Active; 'I' for Inactive)
REMARK    1  A    between atoms: O_2  and  C_3 
REMARK    2  A    between atoms: C_5  and  C_15 
REMARK    3  A    between atoms: C_8  and  C_9 
REMARK       I    between atoms: C_15  and  N_17 
REMARK    4  A    between atoms: N_17  and  C_18 
REMARK    5  A    between atoms: C_20  and  C_21 
ROOT
HETATM    1  C   UNL     1      39.059 -11.681   0.685  1.00  0.00     0.080 A 
HETATM    2  C   UNL     1      39.398 -12.766   1.506  1.00  0.00     0.054 A 
HETATM    3  C   UNL     1      39.929 -13.942   0.958  1.00  0.00     0.034 A 
HETATM    4  C   UNL     1      40.135 -14.034  -0.419  1.00  0.00     0.018 A 
HETATM    5  C   UNL     1      39.789 -12.962  -1.245  1.00  0.00     0.016 A 
HETATM    6  C   UNL     1      39.246 -11.780  -0.710  1.00  0.00     0.010 A 
ENDROOT
BRANCH   3   7
HETATM    7  C   UNL     1      40.297 -15.046   1.888  1.00  0.00     0.252 C 
HETATM    8  O   UNL     1      39.444 -15.853   2.239  1.00  0.00    -0.268 OA
HETATM    9  N   UNL     1      41.620 -15.101   2.283  1.00  0.00    -0.352 N 
HETATM   10  H   UNL     1      42.306 -14.517   1.821  1.00  0.00     0.163 HD
BRANCH   9  11
HETATM   11  C   UNL     1      42.093 -16.113   3.180  1.00  0.00     0.094 A 
HETATM   12  C   UNL     1      43.224 -15.814   4.120  1.00  0.00     0.037 A 
HETATM   13  C   UNL     1      43.444 -16.769   2.972  1.00  0.00     0.043 A 
BRANCH  13  14
HETATM   14  C   UNL     1      43.625 -18.243   3.252  1.00  0.00    -0.052 A 
HETATM   15  C   UNL     1      44.035 -18.706   4.514  1.00  0.00     0.007 A 
HETATM   16  C   UNL     1      44.192 -20.071   4.773  1.00  0.00     0.001 A 
HETATM   17  C   UNL     1      43.932 -21.004   3.774  1.00  0.00     0.000 A 
HETATM   18  C   UNL     1      43.513 -20.573   2.518  1.00  0.00     0.001 A 
HETATM   19  C   UNL     1      43.359 -19.208   2.266  1.00  0.00     0.007 A 
ENDBRANCH  13  14
ENDBRANCH   9  11
ENDBRANCH   3   7
BRANCH   1  20
HETATM   20  O   UNL     1      38.539 -10.506   1.168  1.00  0.00    -0.355 OA
HETATM   21  C   UNL     1      38.975 -10.070   2.450  1.00  0.00     0.210 C 
ENDBRANCH   1  20
BRANCH   6  22
HETATM   22  C   UNL     1      38.901 -10.688  -1.613  1.00  0.00     0.013 A 
HETATM   23  C   UNL     1      37.686 -10.366  -2.263  1.00  0.00     0.152 A 
HETATM   24  N   UNL     1      37.779  -9.269  -3.022  1.00  0.00    -0.187 NA
HETATM   25  N   UNL     1      39.046  -8.871  -2.842  1.00  0.00    -0.289 N 
HETATM   26  H   UNL     1      39.356  -8.028  -3.314  1.00  0.00     0.188 HD
HETATM   27  C   UNL     1      39.764  -9.689  -2.017  1.00  0.00     0.123 A 
ENDBRANCH   6  22
TORSDOF 5
ENDMDL
MODEL 9
REMARK VINA RESULT:      -7.2      1.823      2.678
REMARK  5 active torsions:
REMARK  status: ('A' for Active; 'I' for Inactive)
REMARK    1  A    between atoms: O_2  and  C_3 
REMARK    2  A    between atoms: C_5  and  C_15 
REMARK    3  A    between atoms: C_8  and  C_9 
REMARK       I    between atoms: C_15  and  N_17 
REMARK    4  A    between atoms: N_17  and  C_18 
REMARK    5  A    between atoms: C_20  and  C_21 
ROOT
HETATM    1  C   UNL     1      40.878 -11.505   0.935  1.00  0.00     0.080 A 
HETATM    2  C   UNL     1      41.105 -12.704   1.625  1.00  0.00     0.054 A 
HETATM    3  C   UNL     1      40.585 -13.916   1.150  1.00  0.00     0.034 A 
HETATM    4  C   UNL     1      39.843 -13.936  -0.033  1.00  0.00     0.018 A 
HETATM    5  C   UNL     1      39.604 -12.744  -0.721  1.00  0.00     0.016 A 
HETATM    6  C   UNL     1      40.110 -11.519  -0.250  1.00  0.00     0.010 A 
ENDROOT
BRANCH   3   7
HETATM    7  C   UNL     1      40.888 -15.157   1.914  1.00  0.00     0.252 C 
HETATM    8  O   UNL     1      40.332 -16.207   1.609  1.00  0.00    -0.268 OA
HETATM    9  N   UNL     1      41.821 -15.045   2.926  1.00  0.00    -0.352 N 
HETATM   10  H   UNL     1      42.370 -14.199   3.009  1.00  0.00     0.163 HD
BRANCH   9  11
HETATM   11  C   UNL     1      42.190 -16.168   3.735  1.00  0.00     0.094 A 
HETATM   12  C   UNL     1      43.226 -16.011   4.809  1.00  0.00     0.037 A 
HETATM   13  C   UNL     1      43.547 -16.827   3.580  1.00  0.00     0.043 A 
BRANCH  13  14
HETATM   14  C   UNL     1      43.681 -18.328   3.694  1.00  0.00    -0.052 A 
HETATM   15  C   UNL     1      43.522 -19.167   2.578  1.00  0.00     0.007 A 
HETATM   16  C   UNL     1      43.658 -20.554   2.684  1.00  0.00     0.001 A 
HETATM   17  C   UNL     1      43.964 -21.132   3.912  1.00  0.00     0.000 A 
HETATM   18  C   UNL     1      44.138 -20.323   5.032  1.00  0.00     0.001 A 
HETATM   19  C   UNL     1      44.001 -18.938   4.919  1.00  0.00     0.007 A 
ENDBRANCH  13  14
ENDBRANCH   9  11
ENDBRANCH   3   7
BRANCH   1  20
HETATM   20  O   UNL     1      41.365 -10.291   1.353  1.00  0.00    -0.355 OA
HETATM   21  C   UNL     1      41.085  -9.894   2.690  1.00  0.00     0.210 C 
ENDBRANCH   1  20
BRANCH   6  22
HETATM   22  C   UNL     1      39.833 -10.302  -1.003  1.00  0.00     0.013 A 
HETATM   23  C   UNL     1      39.004  -9.193  -0.711  1.00  0.00     0.152 A 
HETATM   24  N   UNL     1      39.018  -8.266  -1.673  1.00  0.00    -0.187 NA
HETATM   25  N   UNL     1      39.876  -8.766  -2.575  1.00  0.00    -0.289 N 
HETATM   26  H   UNL     1      40.069  -8.219  -3.408  1.00  0.00     0.188 HD
HETATM   27  C   UNL     1      40.384  -9.985  -2.229  1.00  0.00     0.123 A 
ENDBRANCH   6  22
TORSDOF 5
ENDMDL
MODEL 10
REMARK VINA RESULT:      -7.1      5.717      6.859
REMARK  5 active torsions:
REMARK  status: ('A' for Active; 'I' for Inactive)
REMARK    1  A    between atoms: O_2  and  C_3 
REMARK    2  A    between atoms: C_5  and  C_15 
REMARK    3  A    between atoms: C_8  and  C_9 
REMARK       I    between atoms: C_15  and  N_17 
REMARK    4  A    between atoms: N_17  and  C_18 
REMARK    5  A    between atoms: C_20  and  C_21 
ROOT
HETATM    1  C   UNL     1      42.171 -11.128   6.218  1.00  0.00     0.080 A 
HETATM    2  C   UNL     1      42.296 -12.510   6.024  1.00  0.00     0.054 A 
HETATM    3  C   UNL     1      41.255 -13.251   5.445  1.00  0.00     0.034 A 
HETATM    4  C   UNL     1      40.084 -12.606   5.045  1.00  0.00     0.018 A 
HETATM    5  C   UNL     1      39.947 -11.230   5.246  1.00  0.00     0.016 A 
HETATM    6  C   UNL     1      40.979 -10.476   5.834  1.00  0.00     0.010 A 
ENDROOT
BRANCH   3   7
HETATM    7  C   UNL     1      41.464 -14.711   5.238  1.00  0.00     0.252 C 
HETATM    8  O   UNL     1      40.924 -15.272   4.290  1.00  0.00    -0.268 OA
HETATM    9  N   UNL     1      42.295 -15.348   6.139  1.00  0.00    -0.352 N 
HETATM   10  H   UNL     1      42.846 -14.798   6.787  1.00  0.00     0.163 HD
BRANCH   9  11
HETATM   11  C   UNL     1      42.567 -16.751   6.048  1.00  0.00     0.094 A 
HETATM   12  C   UNL     1      43.627 -17.368   6.912  1.00  0.00     0.037 A 
HETATM   13  C   UNL     1      43.853 -17.256   5.423  1.00  0.00     0.043 A 
BRANCH  13  14
HETATM   14  C   UNL     1      43.846 -18.504   4.571  1.00  0.00    -0.052 A 
HETATM   15  C   UNL     1      44.035 -19.778   5.133  1.00  0.00     0.007 A 
HETATM   16  C   UNL     1      44.017 -20.932   4.343  1.00  0.00     0.001 A 
HETATM   17  C   UNL     1      43.802 -20.835   2.972  1.00  0.00     0.000 A 
HETATM   18  C   UNL     1      43.601 -19.585   2.391  1.00  0.00     0.001 A 
HETATM   19  C   UNL     1      43.620 -18.436   3.186  1.00  0.00     0.007 A 
ENDBRANCH  13  14
ENDBRANCH   9  11
ENDBRANCH   3   7
BRANCH   1  20
HETATM   20  O   UNL     1      43.157 -10.353   6.776  1.00  0.00    -0.355 OA
HETATM   21  C   UNL     1      44.025 -10.971   7.719  1.00  0.00     0.210 C 
ENDBRANCH   1  20
BRANCH   6  22
HETATM   22  C   UNL     1      40.788  -9.043   6.022  1.00  0.00     0.013 A 
HETATM   23  C   UNL     1      40.298  -8.305   7.126  1.00  0.00     0.152 A 
HETATM   24  N   UNL     1      40.275  -6.988   6.900  1.00  0.00    -0.187 NA
HETATM   25  N   UNL     1      40.775  -6.874   5.661  1.00  0.00    -0.289 N 
HETATM   26  H   UNL     1      40.875  -5.945   5.267  1.00  0.00     0.188 HD
HETATM   27  C   UNL     1      41.088  -8.073   5.087  1.00  0.00     0.123 A 
ENDBRANCH   6  22
TORSDOF 5
ENDMDL
