MODEL 1
REMARK VINA RESULT:      -9.2      0.000      0.000
REMARK  3 active torsions:
REMARK  status: ('A' for Active; 'I' for Inactive)
REMARK    1  A    between atoms: O_2  and  C_3 
REMARK    2  A    between atoms: C_4  and  N_5 
REMARK       I    between atoms: N_5  and  C_6 
REMARK       I    between atoms: C_6  and  N_7 
REMARK    3  A    between atoms: C_10  and  C_11 
ROOT
HETATM    1  N   UNL     1      42.866 -16.041   3.092  1.00  0.00    -0.306 N 
HETATM    2  C   UNL     1      41.855 -15.408   3.776  1.00  0.00     0.323 C 
HETATM    3  N   UNL     1      41.901 -14.007   3.658  1.00  0.00    -0.334 N 
HETATM    4  C   UNL     1      43.197 -13.320   3.686  1.00  0.00     0.128 C 
HETATM    5  C   UNL     1      43.094 -11.860   3.251  1.00  0.00     0.029 C 
HETATM    6  C   UNL     1      42.030 -11.088   4.039  1.00  0.00     0.024 C 
HETATM    7  C   UNL     1      40.700 -11.845   3.831  1.00  0.00     0.029 C 
HETATM    8  C   UNL     1      40.801 -13.294   4.301  1.00  0.00     0.128 C 
HETATM    9  O   UNL     1      40.974 -15.985   4.406  1.00  0.00    -0.247 OA
HETATM   10  H   UNL     1      43.199 -15.563   2.265  1.00  0.00     0.171 HD
ENDROOT
BRANCH   1  11
HETATM   11  C   UNL     1      43.245 -17.395   3.175  1.00  0.00     0.072 A 
HETATM   12  C   UNL     1      43.965 -17.792   4.319  1.00  0.00     0.095 A 
HETATM   13  C   UNL     1      44.373 -19.119   4.477  1.00  0.00     0.042 A 
HETATM   14  C   UNL     1      44.017 -20.066   3.517  1.00  0.00     0.045 A 
HETATM   15  C   UNL     1      43.274 -19.675   2.406  1.00  0.00     0.118 A 
HETATM   16  C   UNL     1      42.887 -18.351   2.224  1.00  0.00     0.074 A 
HETATM   17  F   UNL     1      42.923 -20.596   1.499  1.00  0.00    -0.206 F 
BRANCH  12  18
HETATM   18  O   UNL     1      44.299 -16.806   5.220  1.00  0.00    -0.354 OA
HETATM   19  C   UNL     1      43.840 -17.078   6.542  1.00  0.00     0.210 C 
ENDBRANCH  12  18
ENDBRANCH   1  11
BRANCH   6  20
HETATM   20  C   UNL     1      42.324 -10.807   5.508  1.00  0.00    -0.026 A 
HETATM   21  C   UNL     1      43.559 -10.851   6.262  1.00  0.00    -0.001 A 
HETATM   22  C   UNL     1      43.254 -10.524   7.589  1.00  0.00     0.042 A 
HETATM   23  C   UNL     1      44.915 -11.137   5.975  1.00  0.00     0.014 A 
HETATM   24  C   UNL     1      44.204 -10.496   8.619  1.00  0.00     0.030 A 
HETATM   25  N   UNL     1      41.912 -10.252   7.645  1.00  0.00    -0.365 N 
HETATM   26  C   UNL     1      45.526 -10.799   8.298  1.00  0.00     0.002 A 
HETATM   27  C   UNL     1      45.881 -11.111   6.992  1.00  0.00     0.001 A 
HETATM   28  H   UNL     1      41.418  -9.979   8.482  1.00  0.00     0.165 HD
HETATM   29  C   UNL     1      41.354 -10.386   6.408  1.00  0.00     0.096 A 
ENDBRANCH   6  20
TORSDOF 3
ENDMDL
MODEL 2
REMARK VINA RESULT:      -8.8      3.397      7.832
REMARK  3 active torsions:
REMARK  status: ('A' for Active; 'I' for Inactive)
REMARK    1  A    between atoms: O_2  and  C_3 
REMARK    2  A    between atoms: C_4  and  N_5 
REMARK       I    between atoms: N_5  and  C_6 
REMARK       I    between atoms: C_6  and  N_7 
REMARK    3  A    between atoms: C_10  and  C_11 
ROOT
HETATM    1  N   UNL     1      42.948 -11.471   6.786  1.00  0.00    -0.306 N 
HETATM    2  C   UNL     1      42.688 -11.665   5.450  1.00  0.00     0.323 C 
HETATM    3  N   UNL     1      41.818 -12.744   5.208  1.00  0.00    -0.334 N 
HETATM    4  C   UNL     1      41.947 -13.971   6.002  1.00  0.00     0.128 C 
HETATM    5  C   UNL     1      40.757 -14.910   5.823  1.00  0.00     0.029 C 
HETATM    6  C   UNL     1      40.471 -15.220   4.350  1.00  0.00     0.024 C 
HETATM    7  C   UNL     1      40.240 -13.860   3.655  1.00  0.00     0.029 C 
HETATM    8  C   UNL     1      41.448 -12.939   3.809  1.00  0.00     0.128 C 
HETATM    9  O   UNL     1      43.133 -10.964   4.546  1.00  0.00    -0.247 OA
HETATM   10  H   UNL     1      42.206 -11.740   7.419  1.00  0.00     0.171 HD
ENDROOT
BRANCH   1  11
HETATM   11  C   UNL     1      43.931 -10.641   7.360  1.00  0.00     0.072 A 
HETATM   12  C   UNL     1      43.483  -9.590   8.185  1.00  0.00     0.095 A 
HETATM   13  C   UNL     1      44.398  -8.726   8.793  1.00  0.00     0.042 A 
HETATM   14  C   UNL     1      45.765  -8.941   8.623  1.00  0.00     0.045 A 
HETATM   15  C   UNL     1      46.202 -10.003   7.837  1.00  0.00     0.118 A 
HETATM   16  C   UNL     1      45.301 -10.853   7.202  1.00  0.00     0.074 A 
HETATM   17  F   UNL     1      47.518 -10.211   7.694  1.00  0.00    -0.206 F 
BRANCH  12  18
HETATM   18  O   UNL     1      42.122  -9.422   8.297  1.00  0.00    -0.354 OA
HETATM   19  C   UNL     1      41.714  -9.019   9.603  1.00  0.00     0.210 C 
ENDBRANCH  12  18
ENDBRANCH   1  11
BRANCH   6  20
HETATM   20  C   UNL     1      41.486 -16.090   3.616  1.00  0.00    -0.026 A 
HETATM   21  C   UNL     1      42.466 -17.037   4.105  1.00  0.00    -0.001 A 
HETATM   22  C   UNL     1      43.156 -17.539   2.995  1.00  0.00     0.042 A 
HETATM   23  C   UNL     1      42.859 -17.529   5.372  1.00  0.00     0.014 A 
HETATM   24  C   UNL     1      44.205 -18.464   3.088  1.00  0.00     0.030 A 
HETATM   25  N   UNL     1      42.605 -16.968   1.878  1.00  0.00    -0.365 N 
HETATM   26  C   UNL     1      44.572 -18.912   4.355  1.00  0.00     0.002 A 
HETATM   27  C   UNL     1      43.906 -18.456   5.484  1.00  0.00     0.001 A 
HETATM   28  H   UNL     1      42.903 -17.157   0.931  1.00  0.00     0.165 HD
HETATM   29  C   UNL     1      41.590 -16.129   2.232  1.00  0.00     0.096 A 
ENDBRANCH   6  20
TORSDOF 3
ENDMDL
MODEL 3
REMARK VINA RESULT:      -8.6      3.544      5.924
REMARK  3 active torsions:
REMARK  status: ('A' for Active; 'I' for Inactive)
REMARK    1  A    between atoms: O_2  and  C_3 
REMARK    2  A    between atoms: C_4  and  N_5 
REMARK       I    between atoms: N_5  and  C_6 
REMARK       I    between atoms: C_6  and  N_7 
REMARK    3  A    between atoms: C_10  and  C_11 
ROOT
HETATM    1  N   UNL     1      43.667 -12.028   5.727  1.00  0.00    -0.306 N 
HETATM    2  C   UNL     1      42.888 -11.087   6.358  1.00  0.00     0.323 C 
HETATM    3  N   UNL     1      43.601 -10.318   7.295  1.00  0.00    -0.334 N 
HETATM    4  C   UNL     1      44.610 -10.962   8.144  1.00  0.00     0.128 C 
HETATM    5  C   UNL     1      45.487  -9.952   8.878  1.00  0.00     0.029 C 
HETATM    6  C   UNL     1      44.665  -8.923   9.663  1.00  0.00     0.024 C 
HETATM    7  C   UNL     1      43.733  -8.239   8.640  1.00  0.00     0.029 C 
HETATM    8  C   UNL     1      42.835  -9.252   7.934  1.00  0.00     0.128 C 
HETATM    9  O   UNL     1      41.698 -10.899   6.124  1.00  0.00    -0.247 OA
HETATM   10  H   UNL     1      44.643 -11.784   5.619  1.00  0.00     0.171 HD
ENDROOT
BRANCH   1  11
HETATM   11  C   UNL     1      43.239 -13.094   4.912  1.00  0.00     0.072 A 
HETATM   12  C   UNL     1      43.176 -12.858   3.524  1.00  0.00     0.095 A 
HETATM   13  C   UNL     1      42.764 -13.867   2.650  1.00  0.00     0.042 A 
HETATM   14  C   UNL     1      42.465 -15.133   3.153  1.00  0.00     0.045 A 
HETATM   15  C   UNL     1      42.563 -15.370   4.521  1.00  0.00     0.118 A 
HETATM   16  C   UNL     1      42.944 -14.365   5.405  1.00  0.00     0.074 A 
HETATM   17  F   UNL     1      42.290 -16.594   4.992  1.00  0.00    -0.206 F 
BRANCH  12  18
HETATM   18  O   UNL     1      43.468 -11.583   3.094  1.00  0.00    -0.354 OA
HETATM   19  C   UNL     1      42.331 -10.892   2.583  1.00  0.00     0.210 C 
ENDBRANCH  12  18
ENDBRANCH   1  11
BRANCH   6  20
HETATM   20  C   UNL     1      43.919  -9.427  10.893  1.00  0.00    -0.026 A 
HETATM   21  C   UNL     1      43.258  -8.718  11.969  1.00  0.00    -0.001 A 
HETATM   22  C   UNL     1      42.753  -9.675  12.856  1.00  0.00     0.042 A 
HETATM   23  C   UNL     1      43.029  -7.362  12.301  1.00  0.00     0.014 A 
HETATM   24  C   UNL     1      42.074  -9.354  14.039  1.00  0.00     0.030 A 
HETATM   25  N   UNL     1      43.048 -10.909  12.339  1.00  0.00    -0.365 N 
HETATM   26  C   UNL     1      41.882  -8.006  14.339  1.00  0.00     0.002 A 
HETATM   27  C   UNL     1      42.348  -7.021  13.480  1.00  0.00     0.001 A 
HETATM   28  H   UNL     1      42.795 -11.787  12.770  1.00  0.00     0.165 HD
HETATM   29  C   UNL     1      43.714 -10.775  11.156  1.00  0.00     0.096 A 
ENDBRANCH   6  20
TORSDOF 3
ENDMDL
MODEL 4
REMARK VINA RESULT:      -8.4      3.613      5.780
REMARK  3 active torsions:
REMARK  status: ('A' for Active; 'I' for Inactive)
REMARK    1  A    between atoms: O_2  and  C_3 
REMARK    2  A    between atoms: C_4  and  N_5 
REMARK       I    between atoms: N_5  and  C_6 
REMARK       I    between atoms: C_6  and  N_7 
REMARK    3  A    between atoms: C_10  and  C_11 
ROOT
HETATM    1  N   UNL     1      43.711 -12.019   5.848  1.00  0.00    -0.306 N 
HETATM    2  C   UNL     1      42.951 -11.046   6.454  1.00  0.00     0.323 C 
HETATM    3  N   UNL     1      43.667 -10.302   7.409  1.00  0.00    -0.334 N 
HETATM    4  C   UNL     1      44.624 -10.981   8.288  1.00  0.00     0.128 C 
HETATM    5  C   UNL     1      45.519 -10.003   9.045  1.00  0.00     0.029 C 
HETATM    6  C   UNL     1      44.716  -8.940   9.802  1.00  0.00     0.024 C 
HETATM    7  C   UNL     1      43.841  -8.224   8.750  1.00  0.00     0.029 C 
HETATM    8  C   UNL     1      42.925  -9.204   8.022  1.00  0.00     0.128 C 
HETATM    9  O   UNL     1      41.777 -10.813   6.185  1.00  0.00    -0.247 OA
HETATM   10  H   UNL     1      44.698 -11.815   5.768  1.00  0.00     0.171 HD
ENDROOT
BRANCH   1  11
HETATM   11  C   UNL     1      43.265 -13.071   5.025  1.00  0.00     0.072 A 
HETATM   12  C   UNL     1      42.891 -14.272   5.660  1.00  0.00     0.095 A 
HETATM   13  C   UNL     1      42.434 -15.360   4.912  1.00  0.00     0.042 A 
HETATM   14  C   UNL     1      42.298 -15.235   3.530  1.00  0.00     0.045 A 
HETATM   15  C   UNL     1      42.634 -14.034   2.911  1.00  0.00     0.118 A 
HETATM   16  C   UNL     1      43.118 -12.953   3.642  1.00  0.00     0.074 A 
HETATM   17  F   UNL     1      42.483 -13.919   1.585  1.00  0.00    -0.206 F 
BRANCH  12  18
HETATM   18  O   UNL     1      43.066 -14.336   7.024  1.00  0.00    -0.354 OA
HETATM   19  C   UNL     1      42.779 -15.624   7.564  1.00  0.00     0.210 C 
ENDBRANCH  12  18
ENDBRANCH   1  11
BRANCH   6  20
HETATM   20  C   UNL     1      43.915  -9.408  11.012  1.00  0.00    -0.026 A 
HETATM   21  C   UNL     1      43.273  -8.670  12.079  1.00  0.00    -0.001 A 
HETATM   22  C   UNL     1      42.695  -9.604  12.947  1.00  0.00     0.042 A 
HETATM   23  C   UNL     1      43.116  -7.306  12.419  1.00  0.00     0.014 A 
HETATM   24  C   UNL     1      42.010  -9.252  14.119  1.00  0.00     0.030 A 
HETATM   25  N   UNL     1      42.929 -10.849  12.425  1.00  0.00    -0.365 N 
HETATM   26  C   UNL     1      41.890  -7.898  14.426  1.00  0.00     0.002 A 
HETATM   27  C   UNL     1      42.432  -6.935  13.585  1.00  0.00     0.001 A 
HETATM   28  H   UNL     1      42.615 -11.713  12.843  1.00  0.00     0.165 HD
HETATM   29  C   UNL     1      43.626 -10.745  11.258  1.00  0.00     0.096 A 
ENDBRANCH   6  20
TORSDOF 3
ENDMDL
MODEL 5
REMARK VINA RESULT:      -8.4      3.788      8.288
REMARK  3 active torsions:
REMARK  status: ('A' for Active; 'I' for Inactive)
REMARK    1  A    between atoms: O_2  and  C_3 
REMARK    2  A    between atoms: C_4  and  N_5 
REMARK       I    between atoms: N_5  and  C_6 
REMARK       I    between atoms: C_6  and  N_7 
REMARK    3  A    between atoms: C_10  and  C_11 
ROOT
HETATM    1  N   UNL     1      41.255 -11.942   6.152  1.00  0.00    -0.306 N 
HETATM    2  C   UNL     1      40.816 -13.244   6.214  1.00  0.00     0.323 C 
HETATM    3  N   UNL     1      41.856 -14.168   6.419  1.00  0.00    -0.334 N 
HETATM    4  C   UNL     1      43.141 -13.977   5.738  1.00  0.00     0.128 C 
HETATM    5  C   UNL     1      44.238 -14.881   6.294  1.00  0.00     0.029 C 
HETATM    6  C   UNL     1      43.825 -16.357   6.313  1.00  0.00     0.024 C 
HETATM    7  C   UNL     1      42.533 -16.438   7.154  1.00  0.00     0.029 C 
HETATM    8  C   UNL     1      41.430 -15.556   6.572  1.00  0.00     0.128 C 
HETATM    9  O   UNL     1      39.640 -13.586   6.131  1.00  0.00    -0.247 OA
HETATM   10  H   UNL     1      42.084 -11.736   6.693  1.00  0.00     0.171 HD
ENDROOT
BRANCH   1  11
HETATM   11  C   UNL     1      40.528 -10.807   5.742  1.00  0.00     0.072 A 
HETATM   12  C   UNL     1      40.401 -10.591   4.355  1.00  0.00     0.095 A 
HETATM   13  C   UNL     1      39.691  -9.490   3.870  1.00  0.00     0.042 A 
HETATM   14  C   UNL     1      39.061  -8.628   4.768  1.00  0.00     0.045 A 
HETATM   15  C   UNL     1      39.160  -8.867   6.136  1.00  0.00     0.118 A 
HETATM   16  C   UNL     1      39.889  -9.944   6.632  1.00  0.00     0.074 A 
HETATM   17  F   UNL     1      38.537  -8.043   6.988  1.00  0.00    -0.206 F 
BRANCH  12  18
HETATM   18  O   UNL     1      41.060 -11.468   3.524  1.00  0.00    -0.354 OA
HETATM   19  C   UNL     1      41.921 -10.815   2.594  1.00  0.00     0.210 C 
ENDBRANCH  12  18
ENDBRANCH   1  11
BRANCH   6  20
HETATM   20  C   UNL     1      43.694 -17.057   4.965  1.00  0.00    -0.026 A 
HETATM   21  C   UNL     1      43.768 -18.457   4.601  1.00  0.00    -0.001 A 
HETATM   22  C   UNL     1      43.601 -18.541   3.214  1.00  0.00     0.042 A 
HETATM   23  C   UNL     1      43.964 -19.676   5.291  1.00  0.00     0.014 A 
HETATM   24  C   UNL     1      43.645 -19.745   2.499  1.00  0.00     0.030 A 
HETATM   25  N   UNL     1      43.394 -17.268   2.749  1.00  0.00    -0.365 N 
HETATM   26  C   UNL     1      43.856 -20.923   3.214  1.00  0.00     0.002 A 
HETATM   27  C   UNL     1      44.008 -20.892   4.593  1.00  0.00     0.001 A 
HETATM   28  H   UNL     1      43.235 -17.032   1.780  1.00  0.00     0.165 HD
HETATM   29  C   UNL     1      43.415 -16.381   3.784  1.00  0.00     0.096 A 
ENDBRANCH   6  20
TORSDOF 3
ENDMDL
MODEL 6
REMARK VINA RESULT:      -8.4      3.619      6.093
REMARK  3 active torsions:
REMARK  status: ('A' for Active; 'I' for Inactive)
REMARK    1  A    between atoms: O_2  and  C_3 
REMARK    2  A    between atoms: C_4  and  N_5 
REMARK       I    between atoms: N_5  and  C_6 
REMARK       I    between atoms: C_6  and  N_7 
REMARK    3  A    between atoms: C_10  and  C_11 
ROOT
HETATM    1  N   UNL     1      42.138 -15.644   3.292  1.00  0.00    -0.306 N 
HETATM    2  C   UNL     1      42.468 -14.522   2.569  1.00  0.00     0.323 C 
HETATM    3  N   UNL     1      41.449 -13.553   2.557  1.00  0.00    -0.334 N 
HETATM    4  C   UNL     1      40.049 -13.974   2.446  1.00  0.00     0.128 C 
HETATM    5  C   UNL     1      39.071 -12.841   2.747  1.00  0.00     0.029 C 
HETATM    6  C   UNL     1      39.349 -11.589   1.909  1.00  0.00     0.024 C 
HETATM    7  C   UNL     1      40.810 -11.183   2.205  1.00  0.00     0.029 C 
HETATM    8  C   UNL     1      41.784 -12.309   1.869  1.00  0.00     0.128 C 
HETATM    9  O   UNL     1      43.546 -14.348   2.007  1.00  0.00    -0.247 OA
HETATM   10  H   UNL     1      41.505 -15.493   4.066  1.00  0.00     0.171 HD
ENDROOT
BRANCH   1  11
HETATM   11  C   UNL     1      42.818 -16.876   3.327  1.00  0.00     0.072 A 
HETATM   12  C   UNL     1      43.580 -17.158   4.478  1.00  0.00     0.095 A 
HETATM   13  C   UNL     1      44.281 -18.362   4.589  1.00  0.00     0.042 A 
HETATM   14  C   UNL     1      44.180 -19.312   3.573  1.00  0.00     0.045 A 
HETATM   15  C   UNL     1      43.396 -19.044   2.455  1.00  0.00     0.118 A 
HETATM   16  C   UNL     1      42.718 -17.837   2.319  1.00  0.00     0.074 A 
HETATM   17  F   UNL     1      43.293 -19.971   1.493  1.00  0.00    -0.206 F 
BRANCH  12  18
HETATM   18  O   UNL     1      43.653 -16.172   5.435  1.00  0.00    -0.354 OA
HETATM   19  C   UNL     1      44.601 -16.456   6.461  1.00  0.00     0.210 C 
ENDBRANCH  12  18
ENDBRANCH   1  11
BRANCH   6  20
HETATM   20  C   UNL     1      39.055 -11.676   0.416  1.00  0.00    -0.026 A 
HETATM   21  C   UNL     1      39.144 -12.781  -0.516  1.00  0.00    -0.001 A 
HETATM   22  C   UNL     1      38.777 -12.299  -1.777  1.00  0.00     0.042 A 
HETATM   23  C   UNL     1      39.503 -14.148  -0.438  1.00  0.00     0.014 A 
HETATM   24  C   UNL     1      38.775 -13.086  -2.937  1.00  0.00     0.030 A 
HETATM   25  N   UNL     1      38.437 -10.980  -1.629  1.00  0.00    -0.365 N 
HETATM   26  C   UNL     1      39.150 -14.423  -2.821  1.00  0.00     0.002 A 
HETATM   27  C   UNL     1      39.505 -14.951  -1.588  1.00  0.00     0.001 A 
HETATM   28  H   UNL     1      38.123 -10.381  -2.380  1.00  0.00     0.165 HD
HETATM   29  C   UNL     1      38.568 -10.606  -0.324  1.00  0.00     0.096 A 
ENDBRANCH   6  20
TORSDOF 3
ENDMDL
MODEL 7
REMARK VINA RESULT:      -8.3      3.786      6.928
REMARK  3 active torsions:
REMARK  status: ('A' for Active; 'I' for Inactive)
REMARK    1  A    between atoms: O_2  and  C_3 
REMARK    2  A    between atoms: C_4  and  N_5 
REMARK       I    between atoms: N_5  and  C_6 
REMARK       I    between atoms: C_6  and  N_7 
REMARK    3  A    between atoms: C_10  and  C_11 
ROOT
HETATM    1  N   UNL     1      40.157 -13.062   1.178  1.00  0.00    -0.306 N 
HETATM    2  C   UNL     1      39.897 -13.708   2.363  1.00  0.00     0.323 C 
HETATM    3  N   UNL     1      40.917 -13.544   3.318  1.00  0.00    -0.334 N 
HETATM    4  C   UNL     1      42.319 -13.569   2.891  1.00  0.00     0.128 C 
HETATM    5  C   UNL     1      43.271 -13.084   3.981  1.00  0.00     0.029 C 
HETATM    6  C   UNL     1      43.073 -13.829   5.306  1.00  0.00     0.024 C 
HETATM    7  C   UNL     1      41.594 -13.627   5.702  1.00  0.00     0.029 C 
HETATM    8  C   UNL     1      40.648 -14.146   4.621  1.00  0.00     0.128 C 
HETATM    9  O   UNL     1      38.873 -14.344   2.598  1.00  0.00    -0.247 OA
HETATM   10  H   UNL     1      40.719 -12.225   1.253  1.00  0.00     0.171 HD
ENDROOT
BRANCH   1  11
HETATM   11  C   UNL     1      39.471 -13.196  -0.045  1.00  0.00     0.072 A 
HETATM   12  C   UNL     1      38.608 -12.146  -0.417  1.00  0.00     0.095 A 
HETATM   13  C   UNL     1      37.896 -12.204  -1.618  1.00  0.00     0.042 A 
HETATM   14  C   UNL     1      38.083 -13.287  -2.476  1.00  0.00     0.045 A 
HETATM   15  C   UNL     1      38.964 -14.303  -2.120  1.00  0.00     0.118 A 
HETATM   16  C   UNL     1      39.657 -14.272  -0.914  1.00  0.00     0.074 A 
HETATM   17  F   UNL     1      39.150 -15.330  -2.961  1.00  0.00    -0.206 F 
BRANCH  12  18
HETATM   18  O   UNL     1      38.455 -11.116   0.483  1.00  0.00    -0.354 OA
HETATM   19  C   UNL     1      37.191 -11.133   1.142  1.00  0.00     0.210 C 
ENDBRANCH  12  18
ENDBRANCH   1  11
BRANCH   6  20
HETATM   20  C   UNL     1      43.498 -15.292   5.347  1.00  0.00    -0.026 A 
HETATM   21  C   UNL     1      43.482 -16.324   4.331  1.00  0.00    -0.001 A 
HETATM   22  C   UNL     1      43.964 -17.500   4.917  1.00  0.00     0.042 A 
HETATM   23  C   UNL     1      43.105 -16.401   2.969  1.00  0.00     0.014 A 
HETATM   24  C   UNL     1      44.062 -18.722   4.237  1.00  0.00     0.030 A 
HETATM   25  N   UNL     1      44.300 -17.204   6.212  1.00  0.00    -0.365 N 
HETATM   26  C   UNL     1      43.667 -18.760   2.901  1.00  0.00     0.002 A 
HETATM   27  C   UNL     1      43.199 -17.614   2.271  1.00  0.00     0.001 A 
HETATM   28  H   UNL     1      44.685 -17.867   6.870  1.00  0.00     0.165 HD
HETATM   29  C   UNL     1      44.058 -15.887   6.471  1.00  0.00     0.096 A 
ENDBRANCH   6  20
TORSDOF 3
ENDMDL
MODEL 8
REMARK VINA RESULT:      -8.2      3.908      7.976
REMARK  3 active torsions:
REMARK  status: ('A' for Active; 'I' for Inactive)
REMARK    1  A    between atoms: O_2  and  C_3 
REMARK    2  A    between atoms: C_4  and  N_5 
REMARK       I    between atoms: N_5  and  C_6 
REMARK       I    between atoms: C_6  and  N_7 
REMARK    3  A    between atoms: C_10  and  C_11 
ROOT
HETATM    1  N   UNL     1      42.130 -10.426   6.994  1.00  0.00    -0.306 N 
HETATM    2  C   UNL     1      41.780 -10.294   5.671  1.00  0.00     0.323 C 
HETATM    3  N   UNL     1      40.936 -11.325   5.219  1.00  0.00    -0.334 N 
HETATM    4  C   UNL     1      41.170 -12.702   5.667  1.00  0.00     0.128 C 
HETATM    5  C   UNL     1      40.006 -13.632   5.331  1.00  0.00     0.029 C 
HETATM    6  C   UNL     1      39.625 -13.580   3.848  1.00  0.00     0.024 C 
HETATM    7  C   UNL     1      39.291 -12.105   3.535  1.00  0.00     0.029 C 
HETATM    8  C   UNL     1      40.471 -11.186   3.841  1.00  0.00     0.128 C 
HETATM    9  O   UNL     1      42.129  -9.367   4.947  1.00  0.00    -0.247 OA
HETATM   10  H   UNL     1      41.448 -10.884   7.582  1.00  0.00     0.171 HD
ENDROOT
BRANCH   1  11
HETATM   11  C   UNL     1      43.121  -9.711   7.697  1.00  0.00     0.072 A 
HETATM   12  C   UNL     1      44.400 -10.296   7.778  1.00  0.00     0.095 A 
HETATM   13  C   UNL     1      45.436  -9.647   8.455  1.00  0.00     0.042 A 
HETATM   14  C   UNL     1      45.212  -8.386   9.007  1.00  0.00     0.045 A 
HETATM   15  C   UNL     1      43.956  -7.797   8.892  1.00  0.00     0.118 A 
HETATM   16  C   UNL     1      42.908  -8.446   8.246  1.00  0.00     0.074 A 
HETATM   17  F   UNL     1      43.758  -6.578   9.411  1.00  0.00    -0.206 F 
BRANCH  12  18
HETATM   18  O   UNL     1      44.549 -11.549   7.228  1.00  0.00    -0.354 OA
HETATM   19  C   UNL     1      45.509 -11.585   6.174  1.00  0.00     0.210 C 
ENDBRANCH  12  18
ENDBRANCH   1  11
BRANCH   6  20
HETATM   20  C   UNL     1      40.615 -14.181   2.857  1.00  0.00    -0.026 A 
HETATM   21  C   UNL     1      41.518 -15.307   2.970  1.00  0.00    -0.001 A 
HETATM   22  C   UNL     1      42.220 -15.407   1.763  1.00  0.00     0.042 A 
HETATM   23  C   UNL     1      41.832 -16.261   3.966  1.00  0.00     0.014 A 
HETATM   24  C   UNL     1      43.210 -16.369   1.518  1.00  0.00     0.030 A 
HETATM   25  N   UNL     1      41.748 -14.424   0.932  1.00  0.00    -0.365 N 
HETATM   26  C   UNL     1      43.500 -17.281   2.531  1.00  0.00     0.002 A 
HETATM   27  C   UNL     1      42.818 -17.233   3.739  1.00  0.00     0.001 A 
HETATM   28  H   UNL     1      42.071 -14.267  -0.012  1.00  0.00     0.165 HD
HETATM   29  C   UNL     1      40.771 -13.709   1.560  1.00  0.00     0.096 A 
ENDBRANCH   6  20
TORSDOF 3
ENDMDL
MODEL 9
REMARK VINA RESULT:      -8.0      3.633      5.867
REMARK  3 active torsions:
REMARK  status: ('A' for Active; 'I' for Inactive)
REMARK    1  A    between atoms: O_2  and  C_3 
REMARK    2  A    between atoms: C_4  and  N_5 
REMARK       I    between atoms: N_5  and  C_6 
REMARK       I    between atoms: C_6  and  N_7 
REMARK    3  A    between atoms: C_10  and  C_11 
ROOT
HETATM    1  N   UNL     1      42.086 -15.741   3.230  1.00  0.00    -0.306 N 
HETATM    2  C   UNL     1      42.509 -14.581   2.625  1.00  0.00     0.323 C 
HETATM    3  N   UNL     1      41.498 -13.608   2.528  1.00  0.00    -0.334 N 
HETATM    4  C   UNL     1      40.129 -14.016   2.200  1.00  0.00     0.128 C 
HETATM    5  C   UNL     1      39.115 -12.898   2.428  1.00  0.00     0.029 C 
HETATM    6  C   UNL     1      39.502 -11.601   1.710  1.00  0.00     0.024 C 
HETATM    7  C   UNL     1      40.906 -11.219   2.228  1.00  0.00     0.029 C 
HETATM    8  C   UNL     1      41.922 -12.328   1.966  1.00  0.00     0.128 C 
HETATM    9  O   UNL     1      43.654 -14.380   2.229  1.00  0.00    -0.247 OA
HETATM   10  H   UNL     1      41.352 -15.631   3.916  1.00  0.00     0.171 HD
ENDROOT
BRANCH   1  11
HETATM   11  C   UNL     1      42.760 -16.976   3.288  1.00  0.00     0.072 A 
HETATM   12  C   UNL     1      43.503 -17.250   4.453  1.00  0.00     0.095 A 
HETATM   13  C   UNL     1      44.196 -18.456   4.588  1.00  0.00     0.042 A 
HETATM   14  C   UNL     1      44.105 -19.416   3.580  1.00  0.00     0.045 A 
HETATM   15  C   UNL     1      43.340 -19.155   2.447  1.00  0.00     0.118 A 
HETATM   16  C   UNL     1      42.670 -17.946   2.289  1.00  0.00     0.074 A 
HETATM   17  F   UNL     1      43.246 -20.092   1.494  1.00  0.00    -0.206 F 
BRANCH  12  18
HETATM   18  O   UNL     1      43.566 -16.254   5.401  1.00  0.00    -0.354 OA
HETATM   19  C   UNL     1      44.584 -16.473   6.375  1.00  0.00     0.210 C 
ENDBRANCH  12  18
ENDBRANCH   1  11
BRANCH   6  20
HETATM   20  C   UNL     1      39.417 -11.601   0.188  1.00  0.00    -0.026 A 
HETATM   21  C   UNL     1      40.065 -10.771  -0.808  1.00  0.00    -0.001 A 
HETATM   22  C   UNL     1      39.609 -11.187  -2.064  1.00  0.00     0.042 A 
HETATM   23  C   UNL     1      40.990  -9.701  -0.791  1.00  0.00     0.014 A 
HETATM   24  C   UNL     1      40.000 -10.587  -3.268  1.00  0.00     0.030 A 
HETATM   25  N   UNL     1      38.759 -12.243  -1.862  1.00  0.00    -0.365 N 
HETATM   26  C   UNL     1      40.901  -9.526  -3.208  1.00  0.00     0.002 A 
HETATM   27  C   UNL     1      41.395  -9.089  -1.987  1.00  0.00     0.001 A 
HETATM   28  H   UNL     1      38.287 -12.748  -2.599  1.00  0.00     0.165 HD
HETATM   29  C   UNL     1      38.661 -12.519  -0.530  1.00  0.00     0.096 A 
ENDBRANCH   6  20
TORSDOF 3
ENDMDL
MODEL 10
REMARK VINA RESULT:      -7.9      2.826      4.049
REMARK  3 active torsions:
REMARK  status: ('A' for Active; 'I' for Inactive)
REMARK    1  A    between atoms: O_2  and  C_3 
REMARK    2  A    between atoms: C_4  and  N_5 
REMARK       I    between atoms: N_5  and  C_6 
REMARK       I    between atoms: C_6  and  N_7 
REMARK    3  A    between atoms: C_10  and  C_11 
ROOT
HETATM    1  N   UNL     1      42.226 -12.988   4.972  1.00  0.00    -0.306 N 
HETATM    2  C   UNL     1      40.999 -12.678   5.509  1.00  0.00     0.323 C 
HETATM    3  N   UNL     1      40.932 -11.366   6.010  1.00  0.00    -0.334 N 
HETATM    4  C   UNL     1      42.083 -10.802   6.722  1.00  0.00     0.128 C 
HETATM    5  C   UNL     1      41.961  -9.294   6.931  1.00  0.00     0.029 C 
HETATM    6  C   UNL     1      40.638  -8.902   7.599  1.00  0.00     0.024 C 
HETATM    7  C   UNL     1      39.513  -9.450   6.695  1.00  0.00     0.029 C 
HETATM    8  C   UNL     1      39.623 -10.963   6.518  1.00  0.00     0.128 C 
HETATM    9  O   UNL     1      40.038 -13.441   5.533  1.00  0.00    -0.247 OA
HETATM   10  H   UNL     1      42.735 -12.212   4.569  1.00  0.00     0.171 HD
ENDROOT
BRANCH   1  11
HETATM   11  C   UNL     1      42.704 -14.258   4.592  1.00  0.00     0.072 A 
HETATM   12  C   UNL     1      43.112 -15.127   5.623  1.00  0.00     0.095 A 
HETATM   13  C   UNL     1      43.594 -16.405   5.327  1.00  0.00     0.042 A 
HETATM   14  C   UNL     1      43.619 -16.839   4.002  1.00  0.00     0.045 A 
HETATM   15  C   UNL     1      43.180 -15.990   2.991  1.00  0.00     0.118 A 
HETATM   16  C   UNL     1      42.726 -14.705   3.270  1.00  0.00     0.074 A 
HETATM   17  F   UNL     1      43.192 -16.425   1.723  1.00  0.00    -0.206 F 
BRANCH  12  18
HETATM   18  O   UNL     1      43.079 -14.630   6.907  1.00  0.00    -0.354 OA
HETATM   19  C   UNL     1      43.006 -15.651   7.899  1.00  0.00     0.210 C 
ENDBRANCH  12  18
ENDBRANCH   1  11
BRANCH   6  20
HETATM   20  C   UNL     1      40.459  -9.291   9.062  1.00  0.00    -0.026 A 
HETATM   21  C   UNL     1      41.373  -9.245  10.185  1.00  0.00    -0.001 A 
HETATM   22  C   UNL     1      40.694  -9.747  11.301  1.00  0.00     0.042 A 
HETATM   23  C   UNL     1      42.712  -8.836  10.387  1.00  0.00     0.014 A 
HETATM   24  C   UNL     1      41.278  -9.882  12.568  1.00  0.00     0.030 A 
HETATM   25  N   UNL     1      39.418 -10.049  10.903  1.00  0.00    -0.365 N 
HETATM   26  C   UNL     1      42.605  -9.483  12.722  1.00  0.00     0.002 A 
HETATM   27  C   UNL     1      43.313  -8.961  11.649  1.00  0.00     0.001 A 
HETATM   28  H   UNL     1      38.702 -10.424  11.509  1.00  0.00     0.165 HD
HETATM   29  C   UNL     1      39.256  -9.753   9.581  1.00  0.00     0.096 A 
ENDBRANCH   6  20
TORSDOF 3
ENDMDL
