MODEL 1
REMARK VINA RESULT:      -9.4      0.000      0.000
REMARK  7 active torsions:
REMARK  status: ('A' for Active; 'I' for Inactive)
REMARK    1  A    between atoms: C_2  and  C_3 
REMARK    2  A    between atoms: C_3  and  N_4 
REMARK       I    between atoms: N_4  and  C_5 
REMARK    3  A    between atoms: C_5  and  C_6 
REMARK    4  A    between atoms: C_7  and  N_8 
REMARK    5  A    between atoms: N_9  and  N_10 
REMARK    6  A    between atoms: C_11  and  C_12 
REMARK    7  A    between atoms: C_13  and  O_14 
ROOT
HETATM    1  C   UNL     1      40.818 -13.709   3.728  1.00  0.00     0.104 C 
HETATM    2  C   UNL     1      41.001 -13.134   4.980  1.00  0.00     0.123 C 
HETATM    3  N   UNL     1      42.147 -13.687   5.541  1.00  0.00    -0.202 N 
HETATM    4  C   UNL     1      42.418 -14.868   4.873  1.00  0.00     0.183 A 
HETATM    5  C   UNL     1      41.622 -14.882   3.729  1.00  0.00     0.124 A 
HETATM    6  N   UNL     1      41.722 -15.887   2.823  1.00  0.00    -0.242 NA
HETATM    7  C   UNL     1      42.575 -16.867   3.148  1.00  0.00     0.086 A 
HETATM    8  C   UNL     1      43.359 -16.840   4.331  1.00  0.00     0.088 A 
HETATM    9  N   UNL     1      43.314 -15.826   5.213  1.00  0.00    -0.225 NA
HETATM   10  C   UNL     1      42.687 -17.954   2.290  1.00  0.00     0.034 A 
HETATM   11  C   UNL     1      43.546 -19.018   2.567  1.00  0.00     0.002 A 
HETATM   12  C   UNL     1      44.312 -18.994   3.723  1.00  0.00     0.002 A 
HETATM   13  C   UNL     1      44.213 -17.906   4.591  1.00  0.00     0.034 A 
ENDROOT
BRANCH   3  14
HETATM   14  N   UNL     1      42.816 -13.006   6.535  1.00  0.00    -0.176 NA
HETATM   15  C   UNL     1      43.863 -12.332   6.181  1.00  0.00     0.153 C 
BRANCH  15  16
HETATM   16  C   UNL     1      44.503 -11.404   7.147  1.00  0.00     0.017 A 
HETATM   17  C   UNL     1      45.796 -10.900   6.941  1.00  0.00     0.077 A 
HETATM   18  C   UNL     1      46.410 -10.108   7.907  1.00  0.00     0.039 A 
HETATM   19  C   UNL     1      45.736  -9.819   9.093  1.00  0.00     0.022 A 
HETATM   20  C   UNL     1      44.449 -10.320   9.299  1.00  0.00     0.012 A 
HETATM   21 BR   UNL     1      43.548  -9.940  10.917  1.00  0.00    -0.051 Br
HETATM   22  C   UNL     1      43.825 -11.113   8.333  1.00  0.00     0.034 A 
BRANCH  17  23
HETATM   23  O   UNL     1      46.533 -11.176   5.821  1.00  0.00    -0.360 OA
HETATM   24  H   UNL     1      45.919 -11.609   5.189  1.00  0.00     0.217 HD
ENDBRANCH  17  23
ENDBRANCH  15  16
ENDBRANCH   3  14
BRANCH   2  25
HETATM   25  N   UNL     1      40.343 -12.102   5.595  1.00  0.00    -0.286 NA
HETATM   26  H   UNL     1      39.325 -12.177   5.666  1.00  0.00     0.125 HD
HETATM   27  H   UNL     1      40.722 -11.804   6.498  1.00  0.00     0.125 HD
ENDBRANCH   2  25
BRANCH   1  28
HETATM   28  C   UNL     1      40.016 -13.169   2.633  1.00  0.00     0.257 C 
HETATM   29  N   UNL     1      40.655 -13.244   1.407  1.00  0.00    -0.352 N 
HETATM   30  H   UNL     1      41.554 -13.716   1.439  1.00  0.00     0.163 HD
HETATM   31  O   UNL     1      38.858 -12.797   2.762  1.00  0.00    -0.267 OA
BRANCH  29  32
HETATM   32  C   UNL     1      39.940 -13.309   0.140  1.00  0.00     0.080 C 
HETATM   33  C   UNL     1      40.600 -12.436  -0.927  1.00  0.00     0.032 C 
BRANCH  32  34
HETATM   34  C   UNL     1      39.867 -14.767  -0.357  1.00  0.00     0.020 C 
HETATM   35  C   UNL     1      39.197 -14.915  -1.720  1.00  0.00     0.007 C 
ENDBRANCH  32  34
ENDBRANCH  29  32
ENDBRANCH   1  28
TORSDOF 7
ENDMDL
MODEL 2
REMARK VINA RESULT:      -9.1      3.396      7.403
REMARK  7 active torsions:
REMARK  status: ('A' for Active; 'I' for Inactive)
REMARK    1  A    between atoms: C_2  and  C_3 
REMARK    2  A    between atoms: C_3  and  N_4 
REMARK       I    between atoms: N_4  and  C_5 
REMARK    3  A    between atoms: C_5  and  C_6 
REMARK    4  A    between atoms: C_7  and  N_8 
REMARK    5  A    between atoms: N_9  and  N_10 
REMARK    6  A    between atoms: C_11  and  C_12 
REMARK    7  A    between atoms: C_13  and  O_14 
ROOT
HETATM    1  C   UNL     1      43.199 -14.549   4.691  1.00  0.00     0.104 C 
HETATM    2  C   UNL     1      43.025 -13.817   3.523  1.00  0.00     0.123 C 
HETATM    3  N   UNL     1      42.631 -14.698   2.521  1.00  0.00    -0.202 N 
HETATM    4  C   UNL     1      42.973 -15.977   2.924  1.00  0.00     0.183 A 
HETATM    5  C   UNL     1      43.299 -15.905   4.277  1.00  0.00     0.124 A 
HETATM    6  N   UNL     1      43.606 -17.025   4.980  1.00  0.00    -0.242 NA
HETATM    7  C   UNL     1      43.634 -18.159   4.266  1.00  0.00     0.086 A 
HETATM    8  C   UNL     1      43.319 -18.201   2.882  1.00  0.00     0.088 A 
HETATM    9  N   UNL     1      42.959 -17.111   2.183  1.00  0.00    -0.225 NA
HETATM   10  C   UNL     1      43.993 -19.334   4.912  1.00  0.00     0.034 A 
HETATM   11  C   UNL     1      44.055 -20.552   4.233  1.00  0.00     0.002 A 
HETATM   12  C   UNL     1      43.749 -20.595   2.881  1.00  0.00     0.002 A 
HETATM   13  C   UNL     1      43.381 -19.422   2.221  1.00  0.00     0.034 A 
ENDROOT
BRANCH   3  14
HETATM   14  N   UNL     1      41.960 -14.219   1.417  1.00  0.00    -0.176 NA
HETATM   15  C   UNL     1      40.677 -14.389   1.390  1.00  0.00     0.153 C 
BRANCH  15  16
HETATM   16  C   UNL     1      39.866 -13.713   0.348  1.00  0.00     0.017 A 
HETATM   17  C   UNL     1      39.305 -12.444   0.556  1.00  0.00     0.077 A 
HETATM   18  C   UNL     1      38.469 -11.872  -0.399  1.00  0.00     0.039 A 
HETATM   19  C   UNL     1      38.182 -12.571  -1.571  1.00  0.00     0.022 A 
HETATM   20  C   UNL     1      38.739 -13.835  -1.779  1.00  0.00     0.012 A 
HETATM   21 BR   UNL     1      38.329 -14.785  -3.361  1.00  0.00    -0.051 Br
HETATM   22  C   UNL     1      39.580 -14.414  -0.826  1.00  0.00     0.034 A 
BRANCH  17  23
HETATM   23  O   UNL     1      39.510 -11.718   1.698  1.00  0.00    -0.360 OA
HETATM   24  H   UNL     1      40.480 -11.580   1.765  1.00  0.00     0.217 HD
ENDBRANCH  17  23
ENDBRANCH  15  16
ENDBRANCH   3  14
BRANCH   2  25
HETATM   25  N   UNL     1      43.051 -12.466   3.302  1.00  0.00    -0.286 NA
HETATM   26  H   UNL     1      43.745 -12.118   2.636  1.00  0.00     0.125 HD
HETATM   27  H   UNL     1      42.148 -12.026   3.106  1.00  0.00     0.125 HD
ENDBRANCH   2  25
BRANCH   1  28
HETATM   28  C   UNL     1      43.207 -14.022   6.054  1.00  0.00     0.257 C 
HETATM   29  N   UNL     1      44.082 -12.962   6.219  1.00  0.00    -0.352 N 
HETATM   30  H   UNL     1      44.541 -12.669   5.361  1.00  0.00     0.163 HD
HETATM   31  O   UNL     1      42.438 -14.398   6.928  1.00  0.00    -0.267 OA
BRANCH  29  32
HETATM   32  C   UNL     1      43.905 -11.936   7.236  1.00  0.00     0.080 C 
HETATM   33  C   UNL     1      45.222 -11.234   7.567  1.00  0.00     0.032 C 
BRANCH  32  34
HETATM   34  C   UNL     1      42.868 -10.894   6.769  1.00  0.00     0.020 C 
HETATM   35  C   UNL     1      42.856  -9.624   7.615  1.00  0.00     0.007 C 
ENDBRANCH  32  34
ENDBRANCH  29  32
ENDBRANCH   1  28
TORSDOF 7
ENDMDL
MODEL 3
REMARK VINA RESULT:      -8.9      1.596      1.732
REMARK  7 active torsions:
REMARK  status: ('A' for Active; 'I' for Inactive)
REMARK    1  A    between atoms: C_2  and  C_3 
REMARK    2  A    between atoms: C_3  and  N_4 
REMARK       I    between atoms: N_4  and  C_5 
REMARK    3  A    between atoms: C_5  and  C_6 
REMARK    4  A    between atoms: C_7  and  N_8 
REMARK    5  A    between atoms: N_9  and  N_10 
REMARK    6  A    between atoms: C_11  and  C_12 
REMARK    7  A    between atoms: C_13  and  O_14 
ROOT
HETATM    1  C   UNL     1      41.657 -12.440   1.804  1.00  0.00     0.104 C 
HETATM    2  C   UNL     1      41.806 -11.571   2.878  1.00  0.00     0.123 C 
HETATM    3  N   UNL     1      42.690 -12.153   3.780  1.00  0.00    -0.202 N 
HETATM    4  C   UNL     1      42.745 -13.508   3.503  1.00  0.00     0.183 A 
HETATM    5  C   UNL     1      42.135 -13.697   2.265  1.00  0.00     0.124 A 
HETATM    6  N   UNL     1      42.103 -14.923   1.684  1.00  0.00    -0.242 NA
HETATM    7  C   UNL     1      42.631 -15.916   2.413  1.00  0.00     0.086 A 
HETATM    8  C   UNL     1      43.227 -15.700   3.683  1.00  0.00     0.088 A 
HETATM    9  N   UNL     1      43.318 -14.484   4.249  1.00  0.00    -0.225 NA
HETATM   10  C   UNL     1      42.582 -17.206   1.901  1.00  0.00     0.034 A 
HETATM   11  C   UNL     1      43.102 -18.292   2.607  1.00  0.00     0.002 A 
HETATM   12  C   UNL     1      43.684 -18.083   3.848  1.00  0.00     0.002 A 
HETATM   13  C   UNL     1      43.744 -16.791   4.372  1.00  0.00     0.034 A 
ENDROOT
BRANCH   3  14
HETATM   14  N   UNL     1      43.366 -11.360   4.681  1.00  0.00    -0.176 NA
HETATM   15  C   UNL     1      43.212 -11.636   5.937  1.00  0.00     0.153 C 
BRANCH  15  16
HETATM   16  C   UNL     1      44.073 -10.973   6.947  1.00  0.00     0.017 A 
HETATM   17  C   UNL     1      45.444 -10.771   6.732  1.00  0.00     0.077 A 
HETATM   18  C   UNL     1      46.248 -10.233   7.734  1.00  0.00     0.039 A 
HETATM   19  C   UNL     1      45.685  -9.899   8.965  1.00  0.00     0.022 A 
HETATM   20  C   UNL     1      44.320 -10.101   9.181  1.00  0.00     0.012 A 
HETATM   21 BR   UNL     1      43.568  -9.664  10.860  1.00  0.00    -0.051 Br
HETATM   22  C   UNL     1      43.507 -10.637   8.180  1.00  0.00     0.034 A 
BRANCH  17  23
HETATM   23  O   UNL     1      46.072 -11.112   5.565  1.00  0.00    -0.360 OA
HETATM   24  H   UNL     1      45.867 -10.397   4.924  1.00  0.00     0.217 HD
ENDBRANCH  17  23
ENDBRANCH  15  16
ENDBRANCH   3  14
BRANCH   2  25
HETATM   25  N   UNL     1      41.350 -10.293   3.064  1.00  0.00    -0.286 NA
HETATM   26  H   UNL     1      40.605 -10.162   3.753  1.00  0.00     0.125 HD
HETATM   27  H   UNL     1      42.068  -9.578   3.206  1.00  0.00     0.125 HD
ENDBRANCH   2  25
BRANCH   1  28
HETATM   28  C   UNL     1      41.173 -12.096   0.469  1.00  0.00     0.257 C 
HETATM   29  N   UNL     1      40.992 -13.204  -0.342  1.00  0.00    -0.352 N 
HETATM   30  H   UNL     1      41.161 -14.089   0.126  1.00  0.00     0.163 HD
HETATM   31  O   UNL     1      40.851 -10.963   0.138  1.00  0.00    -0.267 OA
BRANCH  29  32
HETATM   32  C   UNL     1      40.047 -13.232  -1.449  1.00  0.00     0.080 C 
HETATM   33  C   UNL     1      40.744 -13.027  -2.794  1.00  0.00     0.032 C 
BRANCH  32  34
HETATM   34  C   UNL     1      39.281 -14.571  -1.463  1.00  0.00     0.020 C 
HETATM   35  C   UNL     1      38.749 -14.955  -2.841  1.00  0.00     0.007 C 
ENDBRANCH  32  34
ENDBRANCH  29  32
ENDBRANCH   1  28
TORSDOF 7
ENDMDL
MODEL 4
REMARK VINA RESULT:      -8.8      3.074      8.014
REMARK  7 active torsions:
REMARK  status: ('A' for Active; 'I' for Inactive)
REMARK    1  A    between atoms: C_2  and  C_3 
REMARK    2  A    between atoms: C_3  and  N_4 
REMARK       I    between atoms: N_4  and  C_5 
REMARK    3  A    between atoms: C_5  and  C_6 
REMARK    4  A    between atoms: C_7  and  N_8 
REMARK    5  A    between atoms: N_9  and  N_10 
REMARK    6  A    between atoms: C_11  and  C_12 
REMARK    7  A    between atoms: C_13  and  O_14 
ROOT
HETATM    1  C   UNL     1      42.892 -15.461   5.090  1.00  0.00     0.104 C 
HETATM    2  C   UNL     1      41.795 -15.479   4.239  1.00  0.00     0.123 C 
HETATM    3  N   UNL     1      41.472 -14.163   3.927  1.00  0.00    -0.202 N 
HETATM    4  C   UNL     1      42.052 -13.348   4.884  1.00  0.00     0.183 A 
HETATM    5  C   UNL     1      42.958 -14.133   5.594  1.00  0.00     0.124 A 
HETATM    6  N   UNL     1      43.745 -13.590   6.558  1.00  0.00    -0.242 NA
HETATM    7  C   UNL     1      43.531 -12.291   6.806  1.00  0.00     0.086 A 
HETATM    8  C   UNL     1      42.585 -11.518   6.083  1.00  0.00     0.088 A 
HETATM    9  N   UNL     1      41.837 -12.026   5.088  1.00  0.00    -0.225 NA
HETATM   10  C   UNL     1      44.265 -11.685   7.818  1.00  0.00     0.034 A 
HETATM   11  C   UNL     1      44.090 -10.339   8.141  1.00  0.00     0.002 A 
HETATM   12  C   UNL     1      43.165  -9.582   7.436  1.00  0.00     0.002 A 
HETATM   13  C   UNL     1      42.426 -10.178   6.414  1.00  0.00     0.034 A 
ENDROOT
BRANCH   3  14
HETATM   14  N   UNL     1      40.753 -13.888   2.785  1.00  0.00    -0.176 NA
HETATM   15  C   UNL     1      41.431 -13.657   1.706  1.00  0.00     0.153 C 
BRANCH  15  16
HETATM   16  C   UNL     1      40.732 -13.572   0.401  1.00  0.00     0.017 A 
HETATM   17  C   UNL     1      39.910 -14.608  -0.066  1.00  0.00     0.077 A 
HETATM   18  C   UNL     1      39.341 -14.545  -1.336  1.00  0.00     0.039 A 
HETATM   19  C   UNL     1      39.598 -13.445  -2.153  1.00  0.00     0.022 A 
HETATM   20  C   UNL     1      40.416 -12.413  -1.689  1.00  0.00     0.012 A 
HETATM   21 BR   UNL     1      40.776 -10.933  -2.810  1.00  0.00    -0.051 Br
HETATM   22  C   UNL     1      40.988 -12.468  -0.417  1.00  0.00     0.034 A 
BRANCH  17  23
HETATM   23  O   UNL     1      39.647 -15.736   0.664  1.00  0.00    -0.360 OA
HETATM   24  H   UNL     1      38.802 -16.096   0.317  1.00  0.00     0.217 HD
ENDBRANCH  17  23
ENDBRANCH  15  16
ENDBRANCH   3  14
BRANCH   2  25
HETATM   25  N   UNL     1      41.156 -16.524   3.626  1.00  0.00    -0.286 NA
HETATM   26  H   UNL     1      41.649 -16.981   2.854  1.00  0.00     0.125 HD
HETATM   27  H   UNL     1      40.768 -17.240   4.247  1.00  0.00     0.125 HD
ENDBRANCH   2  25
BRANCH   1  28
HETATM   28  C   UNL     1      43.812 -16.567   5.347  1.00  0.00     0.257 C 
HETATM   29  N   UNL     1      43.397 -17.759   4.777  1.00  0.00    -0.352 N 
HETATM   30  H   UNL     1      42.553 -17.676   4.218  1.00  0.00     0.163 HD
HETATM   31  O   UNL     1      44.892 -16.432   5.905  1.00  0.00    -0.267 OA
BRANCH  29  32
HETATM   32  C   UNL     1      44.317 -18.823   4.400  1.00  0.00     0.080 C 
HETATM   33  C   UNL     1      44.022 -20.119   5.155  1.00  0.00     0.032 C 
BRANCH  32  34
HETATM   34  C   UNL     1      44.241 -19.080   2.881  1.00  0.00     0.020 C 
HETATM   35  C   UNL     1      43.531 -20.381   2.517  1.00  0.00     0.007 C 
ENDBRANCH  32  34
ENDBRANCH  29  32
ENDBRANCH   1  28
TORSDOF 7
ENDMDL
MODEL 5
REMARK VINA RESULT:      -8.4      3.376      7.883
REMARK  7 active torsions:
REMARK  status: ('A' for Active; 'I' for Inactive)
REMARK    1  A    between atoms: C_2  and  C_3 
REMARK    2  A    between atoms: C_3  and  N_4 
REMARK       I    between atoms: N_4  and  C_5 
REMARK    3  A    between atoms: C_5  and  C_6 
REMARK    4  A    between atoms: C_7  and  N_8 
REMARK    5  A    between atoms: N_9  and  N_10 
REMARK    6  A    between atoms: C_11  and  C_12 
REMARK    7  A    between atoms: C_13  and  O_14 
ROOT
HETATM    1  C   UNL     1      42.537 -12.102   3.436  1.00  0.00     0.104 C 
HETATM    2  C   UNL     1      42.178 -11.690   2.159  1.00  0.00     0.123 C 
HETATM    3  N   UNL     1      41.743 -12.808   1.454  1.00  0.00    -0.202 N 
HETATM    4  C   UNL     1      42.226 -13.931   2.104  1.00  0.00     0.183 A 
HETATM    5  C   UNL     1      42.695 -13.512   3.348  1.00  0.00     0.124 A 
HETATM    6  N   UNL     1      43.163 -14.409   4.253  1.00  0.00    -0.242 NA
HETATM    7  C   UNL     1      43.198 -15.681   3.834  1.00  0.00     0.086 A 
HETATM    8  C   UNL     1      42.735 -16.078   2.552  1.00  0.00     0.088 A 
HETATM    9  N   UNL     1      42.216 -15.212   1.663  1.00  0.00    -0.225 NA
HETATM   10  C   UNL     1      43.716 -16.642   4.691  1.00  0.00     0.034 A 
HETATM   11  C   UNL     1      43.796 -17.985   4.320  1.00  0.00     0.002 A 
HETATM   12  C   UNL     1      43.345 -18.375   3.068  1.00  0.00     0.002 A 
HETATM   13  C   UNL     1      42.817 -17.419   2.199  1.00  0.00     0.034 A 
ENDROOT
BRANCH   3  14
HETATM   14  N   UNL     1      40.919 -12.649   0.362  1.00  0.00    -0.176 NA
HETATM   15  C   UNL     1      39.643 -12.662   0.583  1.00  0.00     0.153 C 
BRANCH  15  16
HETATM   16  C   UNL     1      38.704 -12.280  -0.500  1.00  0.00     0.017 A 
HETATM   17  C   UNL     1      38.324 -13.186  -1.502  1.00  0.00     0.077 A 
HETATM   18  C   UNL     1      37.517 -12.776  -2.560  1.00  0.00     0.039 A 
HETATM   19  C   UNL     1      37.089 -11.451  -2.628  1.00  0.00     0.022 A 
HETATM   20  C   UNL     1      37.467 -10.548  -1.631  1.00  0.00     0.012 A 
HETATM   21 BR   UNL     1      36.898  -8.749  -1.740  1.00  0.00    -0.051 Br
HETATM   22  C   UNL     1      38.274 -10.953  -0.566  1.00  0.00     0.034 A 
BRANCH  17  23
HETATM   23  O   UNL     1      38.739 -14.490  -1.522  1.00  0.00    -0.360 OA
HETATM   24  H   UNL     1      38.343 -14.916  -0.732  1.00  0.00     0.217 HD
ENDBRANCH  17  23
ENDBRANCH  15  16
ENDBRANCH   3  14
BRANCH   2  25
HETATM   25  N   UNL     1      42.076 -10.435   1.619  1.00  0.00    -0.286 NA
HETATM   26  H   UNL     1      41.896  -9.665   2.268  1.00  0.00     0.125 HD
HETATM   27  H   UNL     1      42.821 -10.163   0.973  1.00  0.00     0.125 HD
ENDBRANCH   2  25
BRANCH   1  28
HETATM   28  C   UNL     1      42.657 -11.256   4.620  1.00  0.00     0.257 C 
HETATM   29  N   UNL     1      43.541 -11.761   5.559  1.00  0.00    -0.352 N 
HETATM   30  H   UNL     1      44.019 -12.606   5.262  1.00  0.00     0.163 HD
HETATM   31  O   UNL     1      42.123 -10.160   4.725  1.00  0.00    -0.267 OA
BRANCH  29  32
HETATM   32  C   UNL     1      44.252 -10.922   6.514  1.00  0.00     0.080 C 
HETATM   33  C   UNL     1      43.664 -11.043   7.920  1.00  0.00     0.032 C 
BRANCH  32  34
HETATM   34  C   UNL     1      45.747 -11.297   6.544  1.00  0.00     0.020 C 
HETATM   35  C   UNL     1      46.554 -10.509   7.572  1.00  0.00     0.007 C 
ENDBRANCH  32  34
ENDBRANCH  29  32
ENDBRANCH   1  28
TORSDOF 7
ENDMDL
MODEL 6
REMARK VINA RESULT:      -8.3      2.075      4.887
REMARK  7 active torsions:
REMARK  status: ('A' for Active; 'I' for Inactive)
REMARK    1  A    between atoms: C_2  and  C_3 
REMARK    2  A    between atoms: C_3  and  N_4 
REMARK       I    between atoms: N_4  and  C_5 
REMARK    3  A    between atoms: C_5  and  C_6 
REMARK    4  A    between atoms: C_7  and  N_8 
REMARK    5  A    between atoms: N_9  and  N_10 
REMARK    6  A    between atoms: C_11  and  C_12 
REMARK    7  A    between atoms: C_13  and  O_14 
ROOT
HETATM    1  C   UNL     1      43.413 -16.614   5.292  1.00  0.00     0.104 C 
HETATM    2  C   UNL     1      44.110 -15.663   6.026  1.00  0.00     0.123 C 
HETATM    3  N   UNL     1      43.497 -14.431   5.821  1.00  0.00    -0.202 N 
HETATM    4  C   UNL     1      42.735 -14.525   4.670  1.00  0.00     0.183 A 
HETATM    5  C   UNL     1      42.649 -15.878   4.346  1.00  0.00     0.124 A 
HETATM    6  N   UNL     1      41.894 -16.297   3.299  1.00  0.00    -0.242 NA
HETATM    7  C   UNL     1      41.314 -15.322   2.586  1.00  0.00     0.086 A 
HETATM    8  C   UNL     1      41.436 -13.949   2.924  1.00  0.00     0.088 A 
HETATM    9  N   UNL     1      42.133 -13.519   3.990  1.00  0.00    -0.225 NA
HETATM   10  C   UNL     1      40.570 -15.678   1.468  1.00  0.00     0.034 A 
HETATM   11  C   UNL     1      39.946 -14.719   0.670  1.00  0.00     0.002 A 
HETATM   12  C   UNL     1      40.065 -13.376   0.998  1.00  0.00     0.002 A 
HETATM   13  C   UNL     1      40.805 -13.006   2.121  1.00  0.00     0.034 A 
ENDROOT
BRANCH   3  14
HETATM   14  N   UNL     1      43.668 -13.421   6.743  1.00  0.00    -0.176 NA
HETATM   15  C   UNL     1      44.603 -12.559   6.502  1.00  0.00     0.153 C 
BRANCH  15  16
HETATM   16  C   UNL     1      44.702 -11.330   7.327  1.00  0.00     0.017 A 
HETATM   17  C   UNL     1      45.902 -10.614   7.444  1.00  0.00     0.077 A 
HETATM   18  C   UNL     1      45.995  -9.518   8.299  1.00  0.00     0.039 A 
HETATM   19  C   UNL     1      44.885  -9.135   9.051  1.00  0.00     0.022 A 
HETATM   20  C   UNL     1      43.690  -9.848   8.936  1.00  0.00     0.012 A 
HETATM   21 BR   UNL     1      42.195  -9.335   9.974  1.00  0.00    -0.051 Br
HETATM   22  C   UNL     1      43.589 -10.946   8.079  1.00  0.00     0.034 A 
BRANCH  17  23
HETATM   23  O   UNL     1      47.043 -10.956   6.768  1.00  0.00    -0.360 OA
HETATM   24  H   UNL     1      46.827 -11.769   6.263  1.00  0.00     0.217 HD
ENDBRANCH  17  23
ENDBRANCH  15  16
ENDBRANCH   3  14
BRANCH   2  25
HETATM   25  N   UNL     1      45.123 -15.802   6.938  1.00  0.00    -0.286 NA
HETATM   26  H   UNL     1      45.005 -15.330   7.838  1.00  0.00     0.125 HD
HETATM   27  H   UNL     1      45.451 -16.757   7.101  1.00  0.00     0.125 HD
ENDBRANCH   2  25
BRANCH   1  28
HETATM   28  C   UNL     1      43.427 -18.059   5.507  1.00  0.00     0.257 C 
HETATM   29  N   UNL     1      43.590 -18.779   4.336  1.00  0.00    -0.352 N 
HETATM   30  H   UNL     1      43.738 -18.201   3.514  1.00  0.00     0.163 HD
HETATM   31  O   UNL     1      43.413 -18.578   6.616  1.00  0.00    -0.267 OA
BRANCH  29  32
HETATM   32  C   UNL     1      44.174 -20.112   4.297  1.00  0.00     0.080 C 
HETATM   33  C   UNL     1      43.628 -21.002   5.413  1.00  0.00     0.032 C 
BRANCH  32  34
HETATM   34  C   UNL     1      43.904 -20.774   2.930  1.00  0.00     0.020 C 
HETATM   35  C   UNL     1      43.130 -19.882   1.963  1.00  0.00     0.007 C 
ENDBRANCH  32  34
ENDBRANCH  29  32
ENDBRANCH   1  28
TORSDOF 7
ENDMDL
MODEL 7
REMARK VINA RESULT:      -8.3      3.459      8.162
REMARK  7 active torsions:
REMARK  status: ('A' for Active; 'I' for Inactive)
REMARK    1  A    between atoms: C_2  and  C_3 
REMARK    2  A    between atoms: C_3  and  N_4 
REMARK       I    between atoms: N_4  and  C_5 
REMARK    3  A    between atoms: C_5  and  C_6 
REMARK    4  A    between atoms: C_7  and  N_8 
REMARK    5  A    between atoms: N_9  and  N_10 
REMARK    6  A    between atoms: C_11  and  C_12 
REMARK    7  A    between atoms: C_13  and  O_14 
ROOT
HETATM    1  C   UNL     1      43.352 -12.352   6.513  1.00  0.00     0.104 C 
HETATM    2  C   UNL     1      43.043 -13.662   6.854  1.00  0.00     0.123 C 
HETATM    3  N   UNL     1      42.327 -14.221   5.801  1.00  0.00    -0.202 N 
HETATM    4  C   UNL     1      41.825 -13.184   5.034  1.00  0.00     0.183 A 
HETATM    5  C   UNL     1      42.474 -12.021   5.445  1.00  0.00     0.124 A 
HETATM    6  N   UNL     1      42.247 -10.839   4.819  1.00  0.00    -0.242 NA
HETATM    7  C   UNL     1      41.324 -10.872   3.849  1.00  0.00     0.086 A 
HETATM    8  C   UNL     1      40.660 -12.067   3.464  1.00  0.00     0.088 A 
HETATM    9  N   UNL     1      40.912 -13.258   4.035  1.00  0.00    -0.225 NA
HETATM   10  C   UNL     1      41.004  -9.686   3.203  1.00  0.00     0.034 A 
HETATM   11  C   UNL     1      40.044  -9.640   2.191  1.00  0.00     0.002 A 
HETATM   12  C   UNL     1      39.393 -10.806   1.814  1.00  0.00     0.002 A 
HETATM   13  C   UNL     1      39.710 -12.006   2.452  1.00  0.00     0.034 A 
ENDROOT
BRANCH   3  14
HETATM   14  N   UNL     1      42.287 -15.590   5.652  1.00  0.00    -0.176 NA
HETATM   15  C   UNL     1      43.228 -16.132   4.948  1.00  0.00     0.153 C 
BRANCH  15  16
HETATM   16  C   UNL     1      43.376 -17.608   4.927  1.00  0.00     0.017 A 
HETATM   17  C   UNL     1      43.478 -18.358   6.108  1.00  0.00     0.077 A 
HETATM   18  C   UNL     1      43.711 -19.730   6.061  1.00  0.00     0.039 A 
HETATM   19  C   UNL     1      43.852 -20.362   4.826  1.00  0.00     0.022 A 
HETATM   20  C   UNL     1      43.752 -19.617   3.649  1.00  0.00     0.012 A 
HETATM   21 BR   UNL     1      43.963 -20.479   1.980  1.00  0.00    -0.051 Br
HETATM   22  C   UNL     1      43.515 -18.242   3.689  1.00  0.00     0.034 A 
BRANCH  17  23
HETATM   23  O   UNL     1      43.390 -17.798   7.354  1.00  0.00    -0.360 OA
HETATM   24  H   UNL     1      42.625 -17.184   7.326  1.00  0.00     0.217 HD
ENDBRANCH  17  23
ENDBRANCH  15  16
ENDBRANCH   3  14
BRANCH   2  25
HETATM   25  N   UNL     1      43.440 -14.427   7.919  1.00  0.00    -0.286 NA
HETATM   26  H   UNL     1      43.109 -14.141   8.844  1.00  0.00     0.125 HD
HETATM   27  H   UNL     1      43.315 -15.438   7.816  1.00  0.00     0.125 HD
ENDBRANCH   2  25
BRANCH   1  28
HETATM   28  C   UNL     1      44.406 -11.527   7.098  1.00  0.00     0.257 C 
HETATM   29  N   UNL     1      43.961 -10.747   8.152  1.00  0.00    -0.352 N 
HETATM   30  H   UNL     1      42.989 -10.907   8.401  1.00  0.00     0.163 HD
HETATM   31  O   UNL     1      45.583 -11.602   6.771  1.00  0.00    -0.267 OA
BRANCH  29  32
HETATM   32  C   UNL     1      44.832 -10.285   9.224  1.00  0.00     0.080 C 
HETATM   33  C   UNL     1      45.401  -8.897   8.932  1.00  0.00     0.032 C 
BRANCH  32  34
HETATM   34  C   UNL     1      44.065 -10.259  10.561  1.00  0.00     0.020 C 
HETATM   35  C   UNL     1      42.667  -9.656  10.451  1.00  0.00     0.007 C 
ENDBRANCH  32  34
ENDBRANCH  29  32
ENDBRANCH   1  28
TORSDOF 7
ENDMDL
MODEL 8
REMARK VINA RESULT:      -8.3      3.225      7.865
REMARK  7 active torsions:
REMARK  status: ('A' for Active; 'I' for Inactive)
REMARK    1  A    between atoms: C_2  and  C_3 
REMARK    2  A    between atoms: C_3  and  N_4 
REMARK       I    between atoms: N_4  and  C_5 
REMARK    3  A    between atoms: C_5  and  C_6 
REMARK    4  A    between atoms: C_7  and  N_8 
REMARK    5  A    between atoms: N_9  and  N_10 
REMARK    6  A    between atoms: C_11  and  C_12 
REMARK    7  A    between atoms: C_13  and  O_14 
ROOT
HETATM    1  C   UNL     1      42.429 -15.194   5.152  1.00  0.00     0.104 C 
HETATM    2  C   UNL     1      41.202 -15.106   4.507  1.00  0.00     0.123 C 
HETATM    3  N   UNL     1      40.923 -13.759   4.300  1.00  0.00    -0.202 N 
HETATM    4  C   UNL     1      41.715 -13.026   5.166  1.00  0.00     0.183 A 
HETATM    5  C   UNL     1      42.674 -13.897   5.680  1.00  0.00     0.124 A 
HETATM    6  N   UNL     1      43.651 -13.448   6.508  1.00  0.00    -0.242 NA
HETATM    7  C   UNL     1      43.575 -12.151   6.832  1.00  0.00     0.086 A 
HETATM    8  C   UNL     1      42.574 -11.288   6.312  1.00  0.00     0.088 A 
HETATM    9  N   UNL     1      41.632 -11.702   5.447  1.00  0.00    -0.225 NA
HETATM   10  C   UNL     1      44.513 -11.638   7.719  1.00  0.00     0.034 A 
HETATM   11  C   UNL     1      44.491 -10.299   8.112  1.00  0.00     0.002 A 
HETATM   12  C   UNL     1      43.513  -9.455   7.605  1.00  0.00     0.002 A 
HETATM   13  C   UNL     1      42.568  -9.957   6.710  1.00  0.00     0.034 A 
ENDROOT
BRANCH   3  14
HETATM   14  N   UNL     1      40.039 -13.389   3.310  1.00  0.00    -0.176 NA
HETATM   15  C   UNL     1      40.544 -12.884   2.231  1.00  0.00     0.153 C 
BRANCH  15  16
HETATM   16  C   UNL     1      39.680 -12.667   1.045  1.00  0.00     0.017 A 
HETATM   17  C   UNL     1      38.669 -11.695   1.035  1.00  0.00     0.077 A 
HETATM   18  C   UNL     1      37.809 -11.575  -0.054  1.00  0.00     0.039 A 
HETATM   19  C   UNL     1      37.951 -12.436  -1.143  1.00  0.00     0.022 A 
HETATM   20  C   UNL     1      38.957 -13.404  -1.134  1.00  0.00     0.012 A 
HETATM   21 BR   UNL     1      39.131 -14.580  -2.604  1.00  0.00    -0.051 Br
HETATM   22  C   UNL     1      39.824 -13.528  -0.046  1.00  0.00     0.034 A 
BRANCH  17  23
HETATM   23  O   UNL     1      38.444 -10.844   2.083  1.00  0.00    -0.360 OA
HETATM   24  H   UNL     1      38.676 -11.343   2.896  1.00  0.00     0.217 HD
ENDBRANCH  17  23
ENDBRANCH  15  16
ENDBRANCH   3  14
BRANCH   2  25
HETATM   25  N   UNL     1      40.395 -16.080   3.981  1.00  0.00    -0.286 NA
HETATM   26  H   UNL     1      39.470 -16.194   4.402  1.00  0.00     0.125 HD
HETATM   27  H   UNL     1      40.303 -16.083   2.962  1.00  0.00     0.125 HD
ENDBRANCH   2  25
BRANCH   1  28
HETATM   28  C   UNL     1      43.299 -16.366   5.207  1.00  0.00     0.257 C 
HETATM   29  N   UNL     1      42.976 -17.325   4.262  1.00  0.00    -0.352 N 
HETATM   30  H   UNL     1      42.227 -17.049   3.635  1.00  0.00     0.163 HD
HETATM   31  O   UNL     1      44.283 -16.445   5.931  1.00  0.00    -0.267 OA
BRANCH  29  32
HETATM   32  C   UNL     1      43.942 -18.275   3.730  1.00  0.00     0.080 C 
HETATM   33  C   UNL     1      44.062 -19.516   4.615  1.00  0.00     0.032 C 
BRANCH  32  34
HETATM   34  C   UNL     1      43.545 -18.697   2.301  1.00  0.00     0.020 C 
HETATM   35  C   UNL     1      43.382 -20.205   2.132  1.00  0.00     0.007 C 
ENDBRANCH  32  34
ENDBRANCH  29  32
ENDBRANCH   1  28
TORSDOF 7
ENDMDL
MODEL 9
REMARK VINA RESULT:      -8.2      1.918      2.360
REMARK  7 active torsions:
REMARK  status: ('A' for Active; 'I' for Inactive)
REMARK    1  A    between atoms: C_2  and  C_3 
REMARK    2  A    between atoms: C_3  and  N_4 
REMARK       I    between atoms: N_4  and  C_5 
REMARK    3  A    between atoms: C_5  and  C_6 
REMARK    4  A    between atoms: C_7  and  N_8 
REMARK    5  A    between atoms: N_9  and  N_10 
REMARK    6  A    between atoms: C_11  and  C_12 
REMARK    7  A    between atoms: C_13  and  O_14 
ROOT
HETATM    1  C   UNL     1      40.355 -14.605   2.328  1.00  0.00     0.104 C 
HETATM    2  C   UNL     1      40.054 -13.851   3.455  1.00  0.00     0.123 C 
HETATM    3  N   UNL     1      41.027 -14.108   4.415  1.00  0.00    -0.202 N 
HETATM    4  C   UNL     1      41.652 -15.295   4.076  1.00  0.00     0.183 A 
HETATM    5  C   UNL     1      41.268 -15.601   2.771  1.00  0.00     0.124 A 
HETATM    6  N   UNL     1      41.784 -16.679   2.128  1.00  0.00    -0.242 NA
HETATM    7  C   UNL     1      42.615 -17.437   2.857  1.00  0.00     0.086 A 
HETATM    8  C   UNL     1      42.973 -17.115   4.192  1.00  0.00     0.088 A 
HETATM    9  N   UNL     1      42.515 -16.022   4.827  1.00  0.00    -0.225 NA
HETATM   10  C   UNL     1      43.137 -18.585   2.277  1.00  0.00     0.034 A 
HETATM   11  C   UNL     1      44.000 -19.430   2.977  1.00  0.00     0.002 A 
HETATM   12  C   UNL     1      44.350 -19.118   4.282  1.00  0.00     0.002 A 
HETATM   13  C   UNL     1      43.836 -17.964   4.875  1.00  0.00     0.034 A 
ENDROOT
BRANCH   3  14
HETATM   14  N   UNL     1      41.250 -13.195   5.422  1.00  0.00    -0.176 NA
HETATM   15  C   UNL     1      42.355 -12.523   5.371  1.00  0.00     0.153 C 
BRANCH  15  16
HETATM   16  C   UNL     1      42.563 -11.376   6.289  1.00  0.00     0.017 A 
HETATM   17  C   UNL     1      41.536 -10.466   6.580  1.00  0.00     0.077 A 
HETATM   18  C   UNL     1      41.782  -9.345   7.368  1.00  0.00     0.039 A 
HETATM   19  C   UNL     1      43.065  -9.122   7.868  1.00  0.00     0.022 A 
HETATM   20  C   UNL     1      44.088 -10.027   7.579  1.00  0.00     0.012 A 
HETATM   21 BR   UNL     1      45.829  -9.707   8.244  1.00  0.00    -0.051 Br
HETATM   22  C   UNL     1      43.848 -11.154   6.791  1.00  0.00     0.034 A 
BRANCH  17  23
HETATM   23  O   UNL     1      40.264 -10.599   6.091  1.00  0.00    -0.360 OA
HETATM   24  H   UNL     1      40.315 -11.266   5.373  1.00  0.00     0.217 HD
ENDBRANCH  17  23
ENDBRANCH  15  16
ENDBRANCH   3  14
BRANCH   2  25
HETATM   25  N   UNL     1      39.103 -12.886   3.657  1.00  0.00    -0.286 NA
HETATM   26  H   UNL     1      38.695 -12.455   2.824  1.00  0.00     0.125 HD
HETATM   27  H   UNL     1      38.354 -13.126   4.312  1.00  0.00     0.125 HD
ENDBRANCH   2  25
BRANCH   1  28
HETATM   28  C   UNL     1      39.876 -14.366   0.969  1.00  0.00     0.257 C 
HETATM   29  N   UNL     1      39.408 -13.077   0.778  1.00  0.00    -0.352 N 
HETATM   30  H   UNL     1      39.523 -12.474   1.588  1.00  0.00     0.163 HD
HETATM   31  O   UNL     1      39.984 -15.180   0.061  1.00  0.00    -0.267 OA
BRANCH  29  32
HETATM   32  C   UNL     1      39.400 -12.417  -0.519  1.00  0.00     0.080 C 
HETATM   33  C   UNL     1      40.807 -12.304  -1.105  1.00  0.00     0.032 C 
BRANCH  32  34
HETATM   34  C   UNL     1      38.492 -13.184  -1.502  1.00  0.00     0.020 C 
HETATM   35  C   UNL     1      39.123 -13.401  -2.874  1.00  0.00     0.007 C 
ENDBRANCH  32  34
ENDBRANCH  29  32
ENDBRANCH   1  28
TORSDOF 7
ENDMDL
MODEL 10
REMARK VINA RESULT:      -8.2      3.475      7.833
REMARK  7 active torsions:
REMARK  status: ('A' for Active; 'I' for Inactive)
REMARK    1  A    between atoms: C_2  and  C_3 
REMARK    2  A    between atoms: C_3  and  N_4 
REMARK       I    between atoms: N_4  and  C_5 
REMARK    3  A    between atoms: C_5  and  C_6 
REMARK    4  A    between atoms: C_7  and  N_8 
REMARK    5  A    between atoms: N_9  and  N_10 
REMARK    6  A    between atoms: C_11  and  C_12 
REMARK    7  A    between atoms: C_13  and  O_14 
ROOT
HETATM    1  C   UNL     1      40.575 -11.035   6.445  1.00  0.00     0.104 C 
HETATM    2  C   UNL     1      40.534 -11.999   5.445  1.00  0.00     0.123 C 
HETATM    3  N   UNL     1      41.764 -12.646   5.423  1.00  0.00    -0.202 N 
HETATM    4  C   UNL     1      42.681 -11.834   6.068  1.00  0.00     0.183 A 
HETATM    5  C   UNL     1      41.955 -10.847   6.731  1.00  0.00     0.124 A 
HETATM    6  N   UNL     1      42.579  -9.937   7.523  1.00  0.00    -0.242 NA
HETATM    7  C   UNL     1      43.915 -10.027   7.554  1.00  0.00     0.086 A 
HETATM    8  C   UNL     1      44.632 -11.030   6.850  1.00  0.00     0.088 A 
HETATM    9  N   UNL     1      44.028 -11.972   6.106  1.00  0.00    -0.225 NA
HETATM   10  C   UNL     1      44.620  -9.093   8.302  1.00  0.00     0.034 A 
HETATM   11  C   UNL     1      46.014  -9.116   8.373  1.00  0.00     0.002 A 
HETATM   12  C   UNL     1      46.716 -10.094   7.686  1.00  0.00     0.002 A 
HETATM   13  C   UNL     1      46.020 -11.041   6.934  1.00  0.00     0.034 A 
ENDROOT
BRANCH   3  14
HETATM   14  N   UNL     1      41.862 -13.908   4.877  1.00  0.00    -0.176 NA
HETATM   15  C   UNL     1      42.768 -14.086   3.970  1.00  0.00     0.153 C 
BRANCH  15  16
HETATM   16  C   UNL     1      43.078 -15.458   3.498  1.00  0.00     0.017 A 
HETATM   17  C   UNL     1      43.020 -15.803   2.140  1.00  0.00     0.077 A 
HETATM   18  C   UNL     1      43.222 -17.119   1.732  1.00  0.00     0.039 A 
HETATM   19  C   UNL     1      43.480 -18.104   2.685  1.00  0.00     0.022 A 
HETATM   20  C   UNL     1      43.538 -17.762   4.038  1.00  0.00     0.012 A 
HETATM   21 BR   UNL     1      43.867 -19.106   5.326  1.00  0.00    -0.051 Br
HETATM   22  C   UNL     1      43.338 -16.444   4.453  1.00  0.00     0.034 A 
BRANCH  17  23
HETATM   23  O   UNL     1      42.733 -14.898   1.154  1.00  0.00    -0.360 OA
HETATM   24  H   UNL     1      43.527 -14.857   0.579  1.00  0.00     0.217 HD
ENDBRANCH  17  23
ENDBRANCH  15  16
ENDBRANCH   3  14
BRANCH   2  25
HETATM   25  N   UNL     1      39.495 -12.435   4.666  1.00  0.00    -0.286 NA
HETATM   26  H   UNL     1      39.167 -11.802   3.932  1.00  0.00     0.125 HD
HETATM   27  H   UNL     1      39.591 -13.377   4.278  1.00  0.00     0.125 HD
ENDBRANCH   2  25
BRANCH   1  28
HETATM   28  C   UNL     1      39.428 -10.409   7.097  1.00  0.00     0.257 C 
HETATM   29  N   UNL     1      39.695 -10.011   8.396  1.00  0.00    -0.352 N 
HETATM   30  H   UNL     1      40.659 -10.155   8.681  1.00  0.00     0.163 HD
HETATM   31  O   UNL     1      38.378 -10.156   6.521  1.00  0.00    -0.267 OA
BRANCH  29  32
HETATM   32  C   UNL     1      38.985  -8.925   9.057  1.00  0.00     0.080 C 
HETATM   33  C   UNL     1      39.177  -8.963  10.573  1.00  0.00     0.032 C 
BRANCH  32  34
HETATM   34  C   UNL     1      39.462  -7.564   8.510  1.00  0.00     0.020 C 
HETATM   35  C   UNL     1      38.363  -6.768   7.812  1.00  0.00     0.007 C 
ENDBRANCH  32  34
ENDBRANCH  29  32
ENDBRANCH   1  28
TORSDOF 7
ENDMDL
