MODEL 1
REMARK VINA RESULT:      -9.1      0.000      0.000
REMARK  6 active torsions:
REMARK  status: ('A' for Active; 'I' for Inactive)
REMARK    1  A    between atoms: C_4  and  C_5 
REMARK    2  A    between atoms: C_5  and  O_6 
REMARK    3  A    between atoms: O_6  and  C_7 
REMARK    4  A    between atoms: C_10  and  C_11 
REMARK    5  A    between atoms: C_17  and  C_18 
REMARK    6  A    between atoms: C_26  and  N_27 
ROOT
HETATM    1  C   UNL     1      42.993 -11.309   4.129  1.00  0.00     0.072 A 
HETATM    2  N   UNL     1      42.481 -10.276   3.372  1.00  0.00    -0.274 N 
HETATM    3  H   UNL     1      42.494  -9.286   3.590  1.00  0.00     0.189 HD
HETATM    4  N   UNL     1      41.895 -10.672   2.223  1.00  0.00    -0.148 NA
HETATM    5  C   UNL     1      42.067 -11.986   2.256  1.00  0.00     0.199 A 
HETATM    6  C   UNL     1      42.737 -12.450   3.388  1.00  0.00     0.040 A 
HETATM    7  C   UNL     1      42.977 -13.906   3.596  1.00  0.00     0.108 A 
HETATM    8  C   UNL     1      42.451 -14.708   2.404  1.00  0.00     0.081 A 
HETATM    9  C   UNL     1      42.715 -16.111   2.410  1.00  0.00     0.100 C 
HETATM   10  N   UNL     1      42.931 -17.251   2.420  1.00  0.00    -0.191 NA
HETATM   11  C   UNL     1      41.810 -14.138   1.349  1.00  0.00     0.140 A 
HETATM   12  O   UNL     1      41.585 -12.757   1.267  1.00  0.00    -0.277 OA
ENDROOT
BRANCH   7  13
HETATM   13  C   UNL     1      42.389 -14.388   4.897  1.00  0.00    -0.020 A 
HETATM   14  C   UNL     1      41.061 -14.404   5.280  1.00  0.00     0.149 A 
HETATM   15  O   UNL     1      40.923 -14.906   6.532  1.00  0.00    -0.334 OA
HETATM   16  C   UNL     1      42.166 -15.222   6.971  1.00  0.00     0.142 A 
HETATM   17  C   UNL     1      43.104 -14.928   6.009  1.00  0.00     0.034 A 
ENDBRANCH   7  13
BRANCH  11  18
HETATM   18  N   UNL     1      41.320 -14.819   0.254  1.00  0.00    -0.282 NA
HETATM   19  H   UNL     1      40.823 -15.683   0.456  1.00  0.00     0.126 HD
HETATM   20  H   UNL     1      40.808 -14.204  -0.377  1.00  0.00     0.126 HD
ENDBRANCH  11  18
BRANCH   1  21
HETATM   21  C   UNL     1      43.597 -11.118   5.441  1.00  0.00    -0.007 A 
HETATM   22  C   UNL     1      42.832 -10.630   6.506  1.00  0.00     0.016 A 
HETATM   23  C   UNL     1      43.382 -10.517   7.789  1.00  0.00     0.037 A 
HETATM   24  C   UNL     1      44.702 -10.900   8.018  1.00  0.00     0.069 A 
HETATM   25  C   UNL     1      45.481 -11.347   6.950  1.00  0.00     0.037 A 
HETATM   26  C   UNL     1      44.933 -11.461   5.669  1.00  0.00     0.016 A 
BRANCH  24  27
HETATM   27  O   UNL     1      45.338 -10.873   9.229  1.00  0.00    -0.347 OA
BRANCH  27  28
HETATM   28  C   UNL     1      45.346  -9.615   9.909  1.00  0.00     0.214 C 
BRANCH  28  29
HETATM   29  C   UNL     1      44.348  -9.620  11.044  1.00  0.00    -0.034 A 
HETATM   30  C   UNL     1      43.845  -8.407  11.541  1.00  0.00     0.009 A 
HETATM   31  C   UNL     1      42.876  -8.398  12.546  1.00  0.00     0.001 A 
HETATM   32  C   UNL     1      42.392  -9.599  13.061  1.00  0.00     0.000 A 
HETATM   33  C   UNL     1      42.873 -10.810  12.568  1.00  0.00     0.001 A 
HETATM   34  C   UNL     1      43.841 -10.821  11.562  1.00  0.00     0.009 A 
ENDBRANCH  28  29
ENDBRANCH  27  28
ENDBRANCH  24  27
ENDBRANCH   1  21
TORSDOF 6
ENDMDL
MODEL 2
REMARK VINA RESULT:      -9.0      6.230      8.790
REMARK  6 active torsions:
REMARK  status: ('A' for Active; 'I' for Inactive)
REMARK    1  A    between atoms: C_4  and  C_5 
REMARK    2  A    between atoms: C_5  and  O_6 
REMARK    3  A    between atoms: O_6  and  C_7 
REMARK    4  A    between atoms: C_10  and  C_11 
REMARK    5  A    between atoms: C_17  and  C_18 
REMARK    6  A    between atoms: C_26  and  N_27 
ROOT
HETATM    1  C   UNL     1      40.200 -13.597  -0.983  1.00  0.00     0.072 A 
HETATM    2  N   UNL     1      40.824 -13.831  -2.191  1.00  0.00    -0.274 N 
HETATM    3  H   UNL     1      41.559 -14.502  -2.386  1.00  0.00     0.189 HD
HETATM    4  N   UNL     1      40.383 -13.052  -3.200  1.00  0.00    -0.148 NA
HETATM    5  C   UNL     1      39.444 -12.327  -2.607  1.00  0.00     0.199 A 
HETATM    6  C   UNL     1      39.269 -12.608  -1.253  1.00  0.00     0.040 A 
HETATM    7  C   UNL     1      38.279 -11.855  -0.432  1.00  0.00     0.108 A 
HETATM    8  C   UNL     1      37.519 -10.853  -1.304  1.00  0.00     0.081 A 
HETATM    9  C   UNL     1      36.454 -10.138  -0.676  1.00  0.00     0.100 C 
HETATM   10  N   UNL     1      35.591  -9.559  -0.161  1.00  0.00    -0.191 NA
HETATM   11  C   UNL     1      37.780 -10.667  -2.625  1.00  0.00     0.140 A 
HETATM   12  O   UNL     1      38.772 -11.392  -3.300  1.00  0.00    -0.277 OA
ENDROOT
BRANCH   7  13
HETATM   13  C   UNL     1      38.928 -11.187   0.751  1.00  0.00    -0.020 A 
HETATM   14  C   UNL     1      39.912 -10.216   0.750  1.00  0.00     0.149 A 
HETATM   15  O   UNL     1      40.250  -9.864   2.016  1.00  0.00    -0.334 OA
HETATM   16  C   UNL     1      39.482 -10.608   2.850  1.00  0.00     0.142 A 
HETATM   17  C   UNL     1      38.652 -11.435   2.130  1.00  0.00     0.034 A 
ENDBRANCH   7  13
BRANCH  11  18
HETATM   18  N   UNL     1      37.123  -9.778  -3.448  1.00  0.00    -0.282 NA
HETATM   19  H   UNL     1      36.533  -9.095  -2.981  1.00  0.00     0.126 HD
HETATM   20  H   UNL     1      37.750  -9.360  -4.134  1.00  0.00     0.126 HD
ENDBRANCH  11  18
BRANCH   1  21
HETATM   21  C   UNL     1      40.574 -14.268   0.255  1.00  0.00    -0.007 A 
HETATM   22  C   UNL     1      39.851 -15.381   0.700  1.00  0.00     0.016 A 
HETATM   23  C   UNL     1      40.249 -16.080   1.846  1.00  0.00     0.037 A 
HETATM   24  C   UNL     1      41.380 -15.676   2.553  1.00  0.00     0.069 A 
HETATM   25  C   UNL     1      42.079 -14.542   2.136  1.00  0.00     0.037 A 
HETATM   26  C   UNL     1      41.683 -13.843   0.991  1.00  0.00     0.016 A 
BRANCH  24  27
HETATM   27  O   UNL     1      41.890 -16.297   3.659  1.00  0.00    -0.347 OA
BRANCH  27  28
HETATM   28  C   UNL     1      43.291 -16.587   3.629  1.00  0.00     0.214 C 
BRANCH  28  29
HETATM   29  C   UNL     1      43.521 -18.074   3.479  1.00  0.00    -0.034 A 
HETATM   30  C   UNL     1      44.036 -18.815   4.555  1.00  0.00     0.009 A 
HETATM   31  C   UNL     1      44.195 -20.198   4.453  1.00  0.00     0.001 A 
HETATM   32  C   UNL     1      43.833 -20.859   3.281  1.00  0.00     0.000 A 
HETATM   33  C   UNL     1      43.310 -20.137   2.210  1.00  0.00     0.001 A 
HETATM   34  C   UNL     1      43.148 -18.754   2.311  1.00  0.00     0.009 A 
ENDBRANCH  28  29
ENDBRANCH  27  28
ENDBRANCH  24  27
ENDBRANCH   1  21
TORSDOF 6
ENDMDL
MODEL 3
REMARK VINA RESULT:      -8.9      1.597      2.027
REMARK  6 active torsions:
REMARK  status: ('A' for Active; 'I' for Inactive)
REMARK    1  A    between atoms: C_4  and  C_5 
REMARK    2  A    between atoms: C_5  and  O_6 
REMARK    3  A    between atoms: O_6  and  C_7 
REMARK    4  A    between atoms: C_10  and  C_11 
REMARK    5  A    between atoms: C_17  and  C_18 
REMARK    6  A    between atoms: C_26  and  N_27 
ROOT
HETATM    1  C   UNL     1      42.165 -12.515   4.298  1.00  0.00     0.072 A 
HETATM    2  N   UNL     1      41.172 -11.637   3.916  1.00  0.00    -0.274 N 
HETATM    3  H   UNL     1      41.067 -10.667   4.190  1.00  0.00     0.189 HD
HETATM    4  N   UNL     1      40.249 -12.174   3.091  1.00  0.00    -0.148 NA
HETATM    5  C   UNL     1      40.693 -13.414   2.939  1.00  0.00     0.199 A 
HETATM    6  C   UNL     1      41.864 -13.696   3.641  1.00  0.00     0.040 A 
HETATM    7  C   UNL     1      42.473 -15.056   3.606  1.00  0.00     0.108 A 
HETATM    8  C   UNL     1      41.670 -15.975   2.683  1.00  0.00     0.081 A 
HETATM    9  C   UNL     1      42.201 -17.281   2.461  1.00  0.00     0.100 C 
HETATM   10  N   UNL     1      42.637 -18.342   2.285  1.00  0.00    -0.191 NA
HETATM   11  C   UNL     1      40.534 -15.582   2.048  1.00  0.00     0.140 A 
HETATM   12  O   UNL     1      40.009 -14.290   2.183  1.00  0.00    -0.277 OA
ENDROOT
BRANCH   7  13
HETATM   13  C   UNL     1      42.616 -15.638   4.989  1.00  0.00    -0.020 A 
HETATM   14  C   UNL     1      41.617 -15.941   5.895  1.00  0.00     0.149 A 
HETATM   15  O   UNL     1      42.138 -16.445   7.042  1.00  0.00    -0.334 OA
HETATM   16  C   UNL     1      43.485 -16.473   6.885  1.00  0.00     0.142 A 
HETATM   17  C   UNL     1      43.833 -15.992   5.645  1.00  0.00     0.034 A 
ENDBRANCH   7  13
BRANCH  11  18
HETATM   18  N   UNL     1      39.779 -16.373   1.208  1.00  0.00    -0.282 NA
HETATM   19  H   UNL     1      39.662 -17.341   1.498  1.00  0.00     0.126 HD
HETATM   20  H   UNL     1      38.900 -15.925   0.952  1.00  0.00     0.126 HD
ENDBRANCH  11  18
BRANCH   1  21
HETATM   21  C   UNL     1      43.217 -12.171   5.245  1.00  0.00    -0.007 A 
HETATM   22  C   UNL     1      44.427 -11.634   4.792  1.00  0.00     0.016 A 
HETATM   23  C   UNL     1      45.413 -11.228   5.698  1.00  0.00     0.037 A 
HETATM   24  C   UNL     1      45.194 -11.348   7.069  1.00  0.00     0.069 A 
HETATM   25  C   UNL     1      44.006 -11.922   7.524  1.00  0.00     0.037 A 
HETATM   26  C   UNL     1      43.020 -12.327   6.620  1.00  0.00     0.016 A 
BRANCH  24  27
HETATM   27  O   UNL     1      46.060 -10.952   8.051  1.00  0.00    -0.347 OA
BRANCH  27  28
HETATM   28  C   UNL     1      46.231  -9.541   8.207  1.00  0.00     0.214 C 
BRANCH  28  29
HETATM   29  C   UNL     1      45.200  -8.985   9.163  1.00  0.00    -0.034 A 
HETATM   30  C   UNL     1      44.379  -7.918   8.766  1.00  0.00     0.009 A 
HETATM   31  C   UNL     1      43.380  -7.436   9.614  1.00  0.00     0.001 A 
HETATM   32  C   UNL     1      43.184  -8.019  10.865  1.00  0.00     0.000 A 
HETATM   33  C   UNL     1      43.985  -9.086  11.267  1.00  0.00     0.001 A 
HETATM   34  C   UNL     1      44.982  -9.571  10.419  1.00  0.00     0.009 A 
ENDBRANCH  28  29
ENDBRANCH  27  28
ENDBRANCH  24  27
ENDBRANCH   1  21
TORSDOF 6
ENDMDL
MODEL 4
REMARK VINA RESULT:      -8.9      4.526      7.469
REMARK  6 active torsions:
REMARK  status: ('A' for Active; 'I' for Inactive)
REMARK    1  A    between atoms: C_4  and  C_5 
REMARK    2  A    between atoms: C_5  and  O_6 
REMARK    3  A    between atoms: O_6  and  C_7 
REMARK    4  A    between atoms: C_10  and  C_11 
REMARK    5  A    between atoms: C_17  and  C_18 
REMARK    6  A    between atoms: C_26  and  N_27 
ROOT
HETATM    1  C   UNL     1      40.587 -12.766   5.803  1.00  0.00     0.072 A 
HETATM    2  N   UNL     1      39.653 -12.273   6.691  1.00  0.00    -0.274 N 
HETATM    3  H   UNL     1      39.409 -12.646   7.601  1.00  0.00     0.189 HD
HETATM    4  N   UNL     1      39.006 -11.172   6.254  1.00  0.00    -0.148 NA
HETATM    5  C   UNL     1      39.568 -10.963   5.072  1.00  0.00     0.199 A 
HETATM    6  C   UNL     1      40.550 -11.893   4.729  1.00  0.00     0.040 A 
HETATM    7  C   UNL     1      41.252 -11.822   3.417  1.00  0.00     0.108 A 
HETATM    8  C   UNL     1      40.774 -10.604   2.623  1.00  0.00     0.081 A 
HETATM    9  C   UNL     1      41.444 -10.341   1.390  1.00  0.00     0.100 C 
HETATM   10  N   UNL     1      41.991 -10.133   0.388  1.00  0.00    -0.191 NA
HETATM   11  C   UNL     1      39.803  -9.763   3.066  1.00  0.00     0.140 A 
HETATM   12  O   UNL     1      39.161  -9.942   4.299  1.00  0.00    -0.277 OA
ENDROOT
BRANCH   7  13
HETATM   13  C   UNL     1      41.096 -13.098   2.631  1.00  0.00    -0.020 A 
HETATM   14  C   UNL     1      39.926 -13.726   2.246  1.00  0.00     0.149 A 
HETATM   15  O   UNL     1      40.190 -14.862   1.554  1.00  0.00    -0.334 OA
HETATM   16  C   UNL     1      41.539 -14.978   1.485  1.00  0.00     0.142 A 
HETATM   17  C   UNL     1      42.145 -13.924   2.126  1.00  0.00     0.034 A 
ENDBRANCH   7  13
BRANCH  11  18
HETATM   18  N   UNL     1      39.341  -8.655   2.387  1.00  0.00    -0.282 NA
HETATM   19  H   UNL     1      38.330  -8.551   2.345  1.00  0.00     0.126 HD
HETATM   20  H   UNL     1      39.817  -7.803   2.682  1.00  0.00     0.126 HD
ENDBRANCH  11  18
BRANCH   1  21
HETATM   21  C   UNL     1      41.344 -13.989   6.036  1.00  0.00    -0.007 A 
HETATM   22  C   UNL     1      40.690 -15.225   6.089  1.00  0.00     0.016 A 
HETATM   23  C   UNL     1      41.416 -16.413   6.234  1.00  0.00     0.037 A 
HETATM   24  C   UNL     1      42.807 -16.375   6.318  1.00  0.00     0.069 A 
HETATM   25  C   UNL     1      43.460 -15.141   6.307  1.00  0.00     0.037 A 
HETATM   26  C   UNL     1      42.735 -13.955   6.161  1.00  0.00     0.016 A 
BRANCH  24  27
HETATM   27  O   UNL     1      43.627 -17.465   6.420  1.00  0.00    -0.347 OA
BRANCH  27  28
HETATM   28  C   UNL     1      44.597 -17.623   5.380  1.00  0.00     0.214 C 
BRANCH  28  29
HETATM   29  C   UNL     1      44.067 -18.535   4.297  1.00  0.00    -0.034 A 
HETATM   30  C   UNL     1      43.525 -17.988   3.124  1.00  0.00     0.009 A 
HETATM   31  C   UNL     1      43.089 -18.817   2.088  1.00  0.00     0.001 A 
HETATM   32  C   UNL     1      43.199 -20.201   2.208  1.00  0.00     0.000 A 
HETATM   33  C   UNL     1      43.747 -20.757   3.362  1.00  0.00     0.001 A 
HETATM   34  C   UNL     1      44.185 -19.929   4.398  1.00  0.00     0.009 A 
ENDBRANCH  28  29
ENDBRANCH  27  28
ENDBRANCH  24  27
ENDBRANCH   1  21
TORSDOF 6
ENDMDL
MODEL 5
REMARK VINA RESULT:      -8.5      2.678      4.060
REMARK  6 active torsions:
REMARK  status: ('A' for Active; 'I' for Inactive)
REMARK    1  A    between atoms: C_4  and  C_5 
REMARK    2  A    between atoms: C_5  and  O_6 
REMARK    3  A    between atoms: O_6  and  C_7 
REMARK    4  A    between atoms: C_10  and  C_11 
REMARK    5  A    between atoms: C_17  and  C_18 
REMARK    6  A    between atoms: C_26  and  N_27 
ROOT
HETATM    1  C   UNL     1      42.977 -14.568   2.902  1.00  0.00     0.072 A 
HETATM    2  N   UNL     1      42.942 -14.577   1.523  1.00  0.00    -0.274 N 
HETATM    3  H   UNL     1      42.822 -13.783   0.903  1.00  0.00     0.189 HD
HETATM    4  N   UNL     1      43.077 -15.803   0.975  1.00  0.00    -0.148 NA
HETATM    5  C   UNL     1      43.221 -16.575   2.043  1.00  0.00     0.199 A 
HETATM    6  C   UNL     1      43.178 -15.891   3.258  1.00  0.00     0.040 A 
HETATM    7  C   UNL     1      43.287 -16.618   4.554  1.00  0.00     0.108 A 
HETATM    8  C   UNL     1      43.500 -18.113   4.310  1.00  0.00     0.081 A 
HETATM    9  C   UNL     1      43.738 -18.923   5.461  1.00  0.00     0.100 C 
HETATM   10  N   UNL     1      43.929 -19.576   6.401  1.00  0.00    -0.191 NA
HETATM   11  C   UNL     1      43.524 -18.668   3.069  1.00  0.00     0.140 A 
HETATM   12  O   UNL     1      43.361 -17.904   1.904  1.00  0.00    -0.277 OA
ENDROOT
BRANCH   7  13
HETATM   13  C   UNL     1      42.095 -16.361   5.440  1.00  0.00    -0.020 A 
HETATM   14  C   UNL     1      42.085 -15.977   6.767  1.00  0.00     0.149 A 
HETATM   15  O   UNL     1      40.815 -15.851   7.227  1.00  0.00    -0.334 OA
HETATM   16  C   UNL     1      39.989 -16.154   6.194  1.00  0.00     0.142 A 
HETATM   17  C   UNL     1      40.720 -16.472   5.074  1.00  0.00     0.034 A 
ENDBRANCH   7  13
BRANCH  11  18
HETATM   18  N   UNL     1      43.714 -20.007   2.799  1.00  0.00    -0.282 NA
HETATM   19  H   UNL     1      43.510 -20.645   3.564  1.00  0.00     0.126 HD
HETATM   20  H   UNL     1      43.275 -20.283   1.922  1.00  0.00     0.126 HD
ENDBRANCH  11  18
BRANCH   1  21
HETATM   21  C   UNL     1      42.773 -13.367   3.700  1.00  0.00    -0.007 A 
HETATM   22  C   UNL     1      43.767 -12.384   3.764  1.00  0.00     0.016 A 
HETATM   23  C   UNL     1      43.550 -11.192   4.464  1.00  0.00     0.037 A 
HETATM   24  C   UNL     1      42.330 -10.969   5.102  1.00  0.00     0.069 A 
HETATM   25  C   UNL     1      41.353 -11.965   5.077  1.00  0.00     0.037 A 
HETATM   26  C   UNL     1      41.568 -13.155   4.376  1.00  0.00     0.016 A 
BRANCH  24  27
HETATM   27  O   UNL     1      41.985  -9.834   5.782  1.00  0.00    -0.347 OA
BRANCH  27  28
HETATM   28  C   UNL     1      41.906  -9.952   7.205  1.00  0.00     0.214 C 
BRANCH  28  29
HETATM   29  C   UNL     1      43.258  -9.702   7.833  1.00  0.00    -0.034 A 
HETATM   30  C   UNL     1      43.640  -8.396   8.179  1.00  0.00     0.009 A 
HETATM   31  C   UNL     1      44.859  -8.157   8.816  1.00  0.00     0.001 A 
HETATM   32  C   UNL     1      45.706  -9.220   9.124  1.00  0.00     0.000 A 
HETATM   33  C   UNL     1      45.334 -10.522   8.798  1.00  0.00     0.001 A 
HETATM   34  C   UNL     1      44.114 -10.763   8.162  1.00  0.00     0.009 A 
ENDBRANCH  28  29
ENDBRANCH  27  28
ENDBRANCH  24  27
ENDBRANCH   1  21
TORSDOF 6
ENDMDL
MODEL 6
REMARK VINA RESULT:      -8.4      3.488      8.391
REMARK  6 active torsions:
REMARK  status: ('A' for Active; 'I' for Inactive)
REMARK    1  A    between atoms: C_4  and  C_5 
REMARK    2  A    between atoms: C_5  and  O_6 
REMARK    3  A    between atoms: O_6  and  C_7 
REMARK    4  A    between atoms: C_10  and  C_11 
REMARK    5  A    between atoms: C_17  and  C_18 
REMARK    6  A    between atoms: C_26  and  N_27 
ROOT
HETATM    1  C   UNL     1      43.586 -11.851   6.597  1.00  0.00     0.072 A 
HETATM    2  N   UNL     1      44.595 -11.998   7.526  1.00  0.00    -0.274 N 
HETATM    3  H   UNL     1      45.171 -12.816   7.688  1.00  0.00     0.189 HD
HETATM    4  N   UNL     1      44.799 -10.908   8.294  1.00  0.00    -0.148 NA
HETATM    5  C   UNL     1      43.908 -10.052   7.815  1.00  0.00     0.199 A 
HETATM    6  C   UNL     1      43.132 -10.554   6.770  1.00  0.00     0.040 A 
HETATM    7  C   UNL     1      42.058  -9.732   6.145  1.00  0.00     0.108 A 
HETATM    8  C   UNL     1      42.022  -8.337   6.774  1.00  0.00     0.081 A 
HETATM    9  C   UNL     1      41.116  -7.397   6.196  1.00  0.00     0.100 C 
HETATM   10  N   UNL     1      40.377  -6.638   5.723  1.00  0.00    -0.191 NA
HETATM   11  C   UNL     1      42.836  -7.961   7.796  1.00  0.00     0.140 A 
HETATM   12  O   UNL     1      43.786  -8.827   8.354  1.00  0.00    -0.277 OA
ENDROOT
BRANCH   7  13
HETATM   13  C   UNL     1      40.717 -10.414   6.222  1.00  0.00    -0.020 A 
HETATM   14  C   UNL     1      39.890 -10.550   7.321  1.00  0.00     0.149 A 
HETATM   15  O   UNL     1      38.765 -11.236   7.000  1.00  0.00    -0.334 OA
HETATM   16  C   UNL     1      38.855 -11.550   5.684  1.00  0.00     0.142 A 
HETATM   17  C   UNL     1      40.030 -11.070   5.156  1.00  0.00     0.034 A 
ENDBRANCH   7  13
BRANCH  11  18
HETATM   18  N   UNL     1      42.840  -6.718   8.394  1.00  0.00    -0.282 NA
HETATM   19  H   UNL     1      43.687  -6.169   8.269  1.00  0.00     0.126 HD
HETATM   20  H   UNL     1      41.991  -6.194   8.185  1.00  0.00     0.126 HD
ENDBRANCH  11  18
BRANCH   1  21
HETATM   21  C   UNL     1      43.144 -12.925   5.718  1.00  0.00    -0.007 A 
HETATM   22  C   UNL     1      43.191 -12.765   4.328  1.00  0.00     0.016 A 
HETATM   23  C   UNL     1      42.843 -13.819   3.475  1.00  0.00     0.037 A 
HETATM   24  C   UNL     1      42.451 -15.047   4.006  1.00  0.00     0.069 A 
HETATM   25  C   UNL     1      42.362 -15.197   5.391  1.00  0.00     0.037 A 
HETATM   26  C   UNL     1      42.711 -14.146   6.244  1.00  0.00     0.016 A 
BRANCH  24  27
HETATM   27  O   UNL     1      42.126 -16.159   3.280  1.00  0.00    -0.347 OA
BRANCH  27  28
HETATM   28  C   UNL     1      43.176 -16.723   2.488  1.00  0.00     0.214 C 
BRANCH  28  29
HETATM   29  C   UNL     1      43.493 -18.126   2.952  1.00  0.00    -0.034 A 
HETATM   30  C   UNL     1      43.952 -18.345   4.261  1.00  0.00     0.009 A 
HETATM   31  C   UNL     1      44.189 -19.641   4.724  1.00  0.00     0.001 A 
HETATM   32  C   UNL     1      43.963 -20.733   3.888  1.00  0.00     0.000 A 
HETATM   33  C   UNL     1      43.497 -20.531   2.591  1.00  0.00     0.001 A 
HETATM   34  C   UNL     1      43.256 -19.236   2.128  1.00  0.00     0.009 A 
ENDBRANCH  28  29
ENDBRANCH  27  28
ENDBRANCH  24  27
ENDBRANCH   1  21
TORSDOF 6
ENDMDL
MODEL 7
REMARK VINA RESULT:      -8.4      2.061      3.007
REMARK  6 active torsions:
REMARK  status: ('A' for Active; 'I' for Inactive)
REMARK    1  A    between atoms: C_4  and  C_5 
REMARK    2  A    between atoms: C_5  and  O_6 
REMARK    3  A    between atoms: O_6  and  C_7 
REMARK    4  A    between atoms: C_10  and  C_11 
REMARK    5  A    between atoms: C_17  and  C_18 
REMARK    6  A    between atoms: C_26  and  N_27 
ROOT
HETATM    1  C   UNL     1      42.934 -13.926   3.348  1.00  0.00     0.072 A 
HETATM    2  N   UNL     1      42.848 -13.709   1.988  1.00  0.00    -0.274 N 
HETATM    3  H   UNL     1      42.723 -12.823   1.511  1.00  0.00     0.189 HD
HETATM    4  N   UNL     1      42.932 -14.831   1.244  1.00  0.00    -0.148 NA
HETATM    5  C   UNL     1      43.098 -15.770   2.165  1.00  0.00     0.199 A 
HETATM    6  C   UNL     1      43.117 -15.293   3.476  1.00  0.00     0.040 A 
HETATM    7  C   UNL     1      43.257 -16.223   4.631  1.00  0.00     0.108 A 
HETATM    8  C   UNL     1      43.425 -17.662   4.138  1.00  0.00     0.081 A 
HETATM    9  C   UNL     1      43.685 -18.653   5.133  1.00  0.00     0.100 C 
HETATM   10  N   UNL     1      43.896 -19.454   5.945  1.00  0.00    -0.191 NA
HETATM   11  C   UNL     1      43.389 -18.007   2.824  1.00  0.00     0.140 A 
HETATM   12  O   UNL     1      43.201 -17.061   1.807  1.00  0.00    -0.277 OA
ENDROOT
BRANCH   7  13
HETATM   13  C   UNL     1      42.105 -16.093   5.594  1.00  0.00    -0.020 A 
HETATM   14  C   UNL     1      42.152 -15.855   6.955  1.00  0.00     0.149 A 
HETATM   15  O   UNL     1      40.904 -15.812   7.485  1.00  0.00    -0.334 OA
HETATM   16  C   UNL     1      40.035 -16.022   6.465  1.00  0.00     0.142 A 
HETATM   17  C   UNL     1      40.716 -16.199   5.283  1.00  0.00     0.034 A 
ENDBRANCH   7  13
BRANCH  11  18
HETATM   18  N   UNL     1      43.537 -19.287   2.333  1.00  0.00    -0.282 NA
HETATM   19  H   UNL     1      43.525 -20.031   3.027  1.00  0.00     0.126 HD
HETATM   20  H   UNL     1      42.914 -19.466   1.547  1.00  0.00     0.126 HD
ENDBRANCH  11  18
BRANCH   1  21
HETATM   21  C   UNL     1      42.788 -12.868   4.338  1.00  0.00    -0.007 A 
HETATM   22  C   UNL     1      41.524 -12.342   4.628  1.00  0.00     0.016 A 
HETATM   23  C   UNL     1      41.363 -11.381   5.633  1.00  0.00     0.037 A 
HETATM   24  C   UNL     1      42.467 -10.944   6.364  1.00  0.00     0.069 A 
HETATM   25  C   UNL     1      43.734 -11.435   6.050  1.00  0.00     0.037 A 
HETATM   26  C   UNL     1      43.896 -12.396   5.047  1.00  0.00     0.016 A 
BRANCH  24  27
HETATM   27  O   UNL     1      42.432 -10.043   7.393  1.00  0.00    -0.347 OA
BRANCH  27  28
HETATM   28  C   UNL     1      43.699  -9.648   7.926  1.00  0.00     0.214 C 
BRANCH  28  29
HETATM   29  C   UNL     1      43.597  -9.415   9.417  1.00  0.00    -0.034 A 
HETATM   30  C   UNL     1      43.251  -8.145   9.906  1.00  0.00     0.009 A 
HETATM   31  C   UNL     1      43.091  -7.931  11.276  1.00  0.00     0.001 A 
HETATM   32  C   UNL     1      43.266  -8.983  12.173  1.00  0.00     0.000 A 
HETATM   33  C   UNL     1      43.598 -10.251  11.700  1.00  0.00     0.001 A 
HETATM   34  C   UNL     1      43.756 -10.468  10.330  1.00  0.00     0.009 A 
ENDBRANCH  28  29
ENDBRANCH  27  28
ENDBRANCH  24  27
ENDBRANCH   1  21
TORSDOF 6
ENDMDL
MODEL 8
REMARK VINA RESULT:      -8.0      3.253      8.531
REMARK  6 active torsions:
REMARK  status: ('A' for Active; 'I' for Inactive)
REMARK    1  A    between atoms: C_4  and  C_5 
REMARK    2  A    between atoms: C_5  and  O_6 
REMARK    3  A    between atoms: O_6  and  C_7 
REMARK    4  A    between atoms: C_10  and  C_11 
REMARK    5  A    between atoms: C_17  and  C_18 
REMARK    6  A    between atoms: C_26  and  N_27 
ROOT
HETATM    1  C   UNL     1      41.788  -9.039   6.148  1.00  0.00     0.072 A 
HETATM    2  N   UNL     1      41.349  -8.041   5.302  1.00  0.00    -0.274 N 
HETATM    3  H   UNL     1      41.041  -8.137   4.341  1.00  0.00     0.189 HD
HETATM    4  N   UNL     1      41.356  -6.809   5.853  1.00  0.00    -0.148 NA
HETATM    5  C   UNL     1      41.790  -7.051   7.082  1.00  0.00     0.199 A 
HETATM    6  C   UNL     1      42.069  -8.392   7.340  1.00  0.00     0.040 A 
HETATM    7  C   UNL     1      42.602  -8.827   8.662  1.00  0.00     0.108 A 
HETATM    8  C   UNL     1      42.710  -7.631   9.611  1.00  0.00     0.081 A 
HETATM    9  C   UNL     1      43.099  -7.914  10.955  1.00  0.00     0.100 C 
HETATM   10  N   UNL     1      43.417  -8.149  12.046  1.00  0.00    -0.191 NA
HETATM   11  C   UNL     1      42.406  -6.359   9.241  1.00  0.00     0.140 A 
HETATM   12  O   UNL     1      41.958  -6.040   7.952  1.00  0.00    -0.277 OA
ENDROOT
BRANCH   7  13
HETATM   13  C   UNL     1      43.916  -9.551   8.523  1.00  0.00    -0.020 A 
HETATM   14  C   UNL     1      44.164 -10.904   8.664  1.00  0.00     0.149 A 
HETATM   15  O   UNL     1      45.479 -11.179   8.472  1.00  0.00    -0.334 OA
HETATM   16  C   UNL     1      46.094 -10.000   8.203  1.00  0.00     0.142 A 
HETATM   17  C   UNL     1      45.184  -8.970   8.219  1.00  0.00     0.034 A 
ENDBRANCH   7  13
BRANCH  11  18
HETATM   18  N   UNL     1      42.488  -5.252  10.060  1.00  0.00    -0.282 NA
HETATM   19  H   UNL     1      43.246  -5.257  10.738  1.00  0.00     0.126 HD
HETATM   20  H   UNL     1      42.434  -4.383   9.530  1.00  0.00     0.126 HD
ENDBRANCH  11  18
BRANCH   1  21
HETATM   21  C   UNL     1      41.937 -10.428   5.738  1.00  0.00    -0.007 A 
HETATM   22  C   UNL     1      43.058 -10.831   5.004  1.00  0.00     0.016 A 
HETATM   23  C   UNL     1      43.250 -12.178   4.672  1.00  0.00     0.037 A 
HETATM   24  C   UNL     1      42.323 -13.136   5.079  1.00  0.00     0.069 A 
HETATM   25  C   UNL     1      41.182 -12.732   5.775  1.00  0.00     0.037 A 
HETATM   26  C   UNL     1      40.991 -11.388   6.108  1.00  0.00     0.016 A 
BRANCH  24  27
HETATM   27  O   UNL     1      42.418 -14.481   4.852  1.00  0.00    -0.347 OA
BRANCH  27  28
HETATM   28  C   UNL     1      42.884 -14.869   3.556  1.00  0.00     0.214 C 
BRANCH  28  29
HETATM   29  C   UNL     1      43.179 -16.351   3.521  1.00  0.00    -0.034 A 
HETATM   30  C   UNL     1      42.891 -17.096   2.367  1.00  0.00     0.009 A 
HETATM   31  C   UNL     1      43.215 -18.452   2.296  1.00  0.00     0.001 A 
HETATM   32  C   UNL     1      43.838 -19.078   3.374  1.00  0.00     0.000 A 
HETATM   33  C   UNL     1      44.140 -18.348   4.522  1.00  0.00     0.001 A 
HETATM   34  C   UNL     1      43.819 -16.991   4.593  1.00  0.00     0.009 A 
ENDBRANCH  28  29
ENDBRANCH  27  28
ENDBRANCH  24  27
ENDBRANCH   1  21
TORSDOF 6
ENDMDL
MODEL 9
REMARK VINA RESULT:      -7.9      7.251     12.237
REMARK  6 active torsions:
REMARK  status: ('A' for Active; 'I' for Inactive)
REMARK    1  A    between atoms: C_4  and  C_5 
REMARK    2  A    between atoms: C_5  and  O_6 
REMARK    3  A    between atoms: O_6  and  C_7 
REMARK    4  A    between atoms: C_10  and  C_11 
REMARK    5  A    between atoms: C_17  and  C_18 
REMARK    6  A    between atoms: C_26  and  N_27 
ROOT
HETATM    1  C   UNL     1      41.969  -6.572  15.528  1.00  0.00     0.072 A 
HETATM    2  N   UNL     1      42.433  -6.678  16.823  1.00  0.00    -0.274 N 
HETATM    3  H   UNL     1      43.033  -7.400  17.207  1.00  0.00     0.189 HD
HETATM    4  N   UNL     1      42.011  -5.693  17.643  1.00  0.00    -0.148 NA
HETATM    5  C   UNL     1      41.281  -4.942  16.830  1.00  0.00     0.199 A 
HETATM    6  C   UNL     1      41.213  -5.411  15.519  1.00  0.00     0.040 A 
HETATM    7  C   UNL     1      40.402  -4.703  14.489  1.00  0.00     0.108 A 
HETATM    8  C   UNL     1      39.771  -3.442  15.084  1.00  0.00     0.081 A 
HETATM    9  C   UNL     1      39.056  -2.597  14.182  1.00  0.00     0.100 C 
HETATM   10  N   UNL     1      38.476  -1.915  13.444  1.00  0.00    -0.191 NA
HETATM   11  C   UNL     1      39.910  -3.085  16.388  1.00  0.00     0.140 A 
HETATM   12  O   UNL     1      40.656  -3.848  17.298  1.00  0.00    -0.277 OA
ENDROOT
BRANCH   7  13
HETATM   13  C   UNL     1      39.367  -5.609  13.874  1.00  0.00    -0.020 A 
HETATM   14  C   UNL     1      38.243  -6.149  14.469  1.00  0.00     0.149 A 
HETATM   15  O   UNL     1      37.555  -6.924  13.595  1.00  0.00    -0.334 OA
HETATM   16  C   UNL     1      38.232  -6.891  12.420  1.00  0.00     0.142 A 
HETATM   17  C   UNL     1      39.349  -6.098  12.533  1.00  0.00     0.034 A 
ENDBRANCH   7  13
BRANCH  11  18
HETATM   18  N   UNL     1      39.361  -1.961  16.968  1.00  0.00    -0.282 NA
HETATM   19  H   UNL     1      38.796  -1.378  16.355  1.00  0.00     0.126 HD
HETATM   20  H   UNL     1      38.900  -2.175  17.851  1.00  0.00     0.126 HD
ENDBRANCH  11  18
BRANCH   1  21
HETATM   21  C   UNL     1      42.235  -7.566  14.498  1.00  0.00    -0.007 A 
HETATM   22  C   UNL     1      41.442  -8.716  14.404  1.00  0.00     0.016 A 
HETATM   23  C   UNL     1      41.640  -9.638  13.370  1.00  0.00     0.037 A 
HETATM   24  C   UNL     1      42.630  -9.414  12.415  1.00  0.00     0.069 A 
HETATM   25  C   UNL     1      43.450  -8.291  12.529  1.00  0.00     0.037 A 
HETATM   26  C   UNL     1      43.252  -7.368  13.560  1.00  0.00     0.016 A 
BRANCH  24  27
HETATM   27  O   UNL     1      42.893 -10.218  11.340  1.00  0.00    -0.347 OA
BRANCH  27  28
HETATM   28  C   UNL     1      42.759  -9.610  10.052  1.00  0.00     0.214 C 
BRANCH  28  29
HETATM   29  C   UNL     1      43.987  -9.875   9.211  1.00  0.00    -0.034 A 
HETATM   30  C   UNL     1      44.051 -11.025   8.408  1.00  0.00     0.009 A 
HETATM   31  C   UNL     1      45.151 -11.253   7.579  1.00  0.00     0.001 A 
HETATM   32  C   UNL     1      46.195 -10.330   7.534  1.00  0.00     0.000 A 
HETATM   33  C   UNL     1      46.138  -9.179   8.316  1.00  0.00     0.001 A 
HETATM   34  C   UNL     1      45.038  -8.949   9.145  1.00  0.00     0.009 A 
ENDBRANCH  28  29
ENDBRANCH  27  28
ENDBRANCH  24  27
ENDBRANCH   1  21
TORSDOF 6
ENDMDL
MODEL 10
REMARK VINA RESULT:      -7.8      3.929      9.146
REMARK  6 active torsions:
REMARK  status: ('A' for Active; 'I' for Inactive)
REMARK    1  A    between atoms: C_4  and  C_5 
REMARK    2  A    between atoms: C_5  and  O_6 
REMARK    3  A    between atoms: O_6  and  C_7 
REMARK    4  A    between atoms: C_10  and  C_11 
REMARK    5  A    between atoms: C_17  and  C_18 
REMARK    6  A    between atoms: C_26  and  N_27 
ROOT
HETATM    1  C   UNL     1      43.573 -10.241   9.268  1.00  0.00     0.072 A 
HETATM    2  N   UNL     1      43.619 -11.165  10.291  1.00  0.00    -0.274 N 
HETATM    3  H   UNL     1      43.828 -12.155  10.220  1.00  0.00     0.189 HD
HETATM    4  N   UNL     1      43.337 -10.655  11.508  1.00  0.00    -0.148 NA
HETATM    5  C   UNL     1      43.131  -9.374  11.237  1.00  0.00     0.199 A 
HETATM    6  C   UNL     1      43.265  -9.042   9.890  1.00  0.00     0.040 A 
HETATM    7  C   UNL     1      43.029  -7.650   9.413  1.00  0.00     0.108 A 
HETATM    8  C   UNL     1      42.705  -6.731  10.594  1.00  0.00     0.081 A 
HETATM    9  C   UNL     1      42.568  -5.340  10.303  1.00  0.00     0.100 C 
HETATM   10  N   UNL     1      42.456  -4.211  10.061  1.00  0.00    -0.191 NA
HETATM   11  C   UNL     1      42.602  -7.175  11.874  1.00  0.00     0.140 A 
HETATM   12  O   UNL     1      42.793  -8.520  12.219  1.00  0.00    -0.277 OA
ENDROOT
BRANCH   7  13
HETATM   13  C   UNL     1      41.959  -7.597   8.354  1.00  0.00    -0.020 A 
HETATM   14  C   UNL     1      42.060  -7.121   7.060  1.00  0.00     0.149 A 
HETATM   15  O   UNL     1      40.877  -7.232   6.407  1.00  0.00    -0.334 OA
HETATM   16  C   UNL     1      39.996  -7.785   7.277  1.00  0.00     0.142 A 
HETATM   17  C   UNL     1      40.605  -8.031   8.485  1.00  0.00     0.034 A 
ENDBRANCH   7  13
BRANCH  11  18
HETATM   18  N   UNL     1      42.314  -6.386  12.968  1.00  0.00    -0.282 NA
HETATM   19  H   UNL     1      42.765  -5.475  12.988  1.00  0.00     0.126 HD
HETATM   20  H   UNL     1      41.312  -6.338  13.148  1.00  0.00     0.126 HD
ENDBRANCH  11  18
BRANCH   1  21
HETATM   21  C   UNL     1      43.767 -10.587   7.867  1.00  0.00    -0.007 A 
HETATM   22  C   UNL     1      45.049 -10.863   7.378  1.00  0.00     0.016 A 
HETATM   23  C   UNL     1      45.236 -11.273   6.053  1.00  0.00     0.037 A 
HETATM   24  C   UNL     1      44.139 -11.417   5.205  1.00  0.00     0.069 A 
HETATM   25  C   UNL     1      42.864 -11.102   5.676  1.00  0.00     0.037 A 
HETATM   26  C   UNL     1      42.676 -10.694   7.000  1.00  0.00     0.016 A 
BRANCH  24  27
HETATM   27  O   UNL     1      44.189 -11.846   3.908  1.00  0.00    -0.347 OA
BRANCH  27  28
HETATM   28  C   UNL     1      42.972 -12.375   3.373  1.00  0.00     0.214 C 
BRANCH  28  29
HETATM   29  C   UNL     1      43.095 -13.866   3.153  1.00  0.00    -0.034 A 
HETATM   30  C   UNL     1      42.904 -14.751   4.226  1.00  0.00     0.009 A 
HETATM   31  C   UNL     1      42.952 -16.132   4.026  1.00  0.00     0.001 A 
HETATM   32  C   UNL     1      43.181 -16.645   2.750  1.00  0.00     0.000 A 
HETATM   33  C   UNL     1      43.360 -15.778   1.674  1.00  0.00     0.001 A 
HETATM   34  C   UNL     1      43.310 -14.397   1.873  1.00  0.00     0.009 A 
ENDBRANCH  28  29
ENDBRANCH  27  28
ENDBRANCH  24  27
ENDBRANCH   1  21
TORSDOF 6
ENDMDL
