MODEL 1
REMARK VINA RESULT:      -8.6      0.000      0.000
REMARK  6 active torsions:
REMARK  status: ('A' for Active; 'I' for Inactive)
REMARK    1  A    between atoms: C_2  and  C_3 
REMARK    2  A    between atoms: C_2  and  C_9 
REMARK    3  A    between atoms: C_9  and  C_10 
REMARK    4  A    between atoms: C_10  and  C_11 
REMARK       I    between atoms: C_11  and  N_12 
REMARK    5  A    between atoms: N_12  and  C_13 
REMARK    6  A    between atoms: C_20  and  C_21 
REMARK       I    between atoms: C_21  and  N_22 
ROOT
HETATM    1  C   UNL     1      40.184 -14.069   2.529  1.00  0.00     0.035 A 
HETATM    2  C   UNL     1      40.520 -12.881   1.876  1.00  0.00     0.046 A 
HETATM    3  C   UNL     1      40.581 -12.840   0.464  1.00  0.00     0.030 A 
HETATM    4  C   UNL     1      40.309 -13.994  -0.256  1.00  0.00     0.063 A 
HETATM    5  N   UNL     1      40.443 -13.639  -1.570  1.00  0.00    -0.277 N 
HETATM    6  H   UNL     1      40.314 -14.231  -2.383  1.00  0.00     0.189 HD
HETATM    7  N   UNL     1      40.789 -12.355  -1.768  1.00  0.00    -0.168 NA
HETATM    8  C   UNL     1      40.880 -11.848  -0.517  1.00  0.00     0.156 A 
HETATM    9  C   UNL     1      39.982 -15.204   0.353  1.00  0.00     0.034 A 
HETATM   10  C   UNL     1      39.932 -15.214   1.755  1.00  0.00     0.032 A 
ENDROOT
BRANCH   1  11
HETATM   11  N   UNL     1      40.086 -14.236   3.925  1.00  0.00    -0.327 N 
HETATM   12  C   UNL     1      40.983 -14.432   4.936  1.00  0.00     0.222 C 
HETATM   13  O   UNL     1      40.525 -14.557   6.075  1.00  0.00    -0.273 OA
HETATM   14  H   UNL     1      39.150 -14.177   4.311  1.00  0.00     0.169 HD
BRANCH  12  15
HETATM   15  C   UNL     1      42.470 -14.468   4.669  1.00  0.00     0.103 C 
BRANCH  15  16
HETATM   16  C   UNL     1      43.056 -15.874   4.493  1.00  0.00     0.018 C 
BRANCH  16  17
HETATM   17  C   UNL     1      42.797 -16.557   3.131  1.00  0.00     0.015 C 
HETATM   18  C   UNL     1      43.501 -15.869   1.955  1.00  0.00     0.015 C 
BRANCH  17  19
HETATM   19  C   UNL     1      43.195 -18.027   3.210  1.00  0.00    -0.054 A 
HETATM   20  C   UNL     1      42.983 -18.905   2.135  1.00  0.00     0.007 A 
HETATM   21  C   UNL     1      43.365 -20.246   2.222  1.00  0.00     0.001 A 
HETATM   22  C   UNL     1      43.965 -20.725   3.383  1.00  0.00     0.000 A 
HETATM   23  C   UNL     1      44.185 -19.865   4.457  1.00  0.00     0.001 A 
HETATM   24  C   UNL     1      43.805 -18.524   4.371  1.00  0.00     0.007 A 
ENDBRANCH  17  19
ENDBRANCH  16  17
ENDBRANCH  15  16
ENDBRANCH  12  15
ENDBRANCH   1  11
BRANCH   8  25
HETATM   25  C   UNL     1      41.245 -10.445  -0.278  1.00  0.00     0.270 C 
HETATM   26  N   UNL     1      40.620  -9.553  -1.104  1.00  0.00    -0.365 N 
HETATM   27  H   UNL     1      39.972  -9.905  -1.799  1.00  0.00     0.159 HD
HETATM   28  H   UNL     1      40.811  -8.567  -1.017  1.00  0.00     0.159 HD
HETATM   29  O   UNL     1      42.041 -10.074   0.578  1.00  0.00    -0.266 OA
ENDBRANCH   8  25
TORSDOF 6
ENDMDL
MODEL 2
REMARK VINA RESULT:      -8.2      2.789      5.142
REMARK  6 active torsions:
REMARK  status: ('A' for Active; 'I' for Inactive)
REMARK    1  A    between atoms: C_2  and  C_3 
REMARK    2  A    between atoms: C_2  and  C_9 
REMARK    3  A    between atoms: C_9  and  C_10 
REMARK    4  A    between atoms: C_10  and  C_11 
REMARK       I    between atoms: C_11  and  N_12 
REMARK    5  A    between atoms: N_12  and  C_13 
REMARK    6  A    between atoms: C_20  and  C_21 
REMARK       I    between atoms: C_21  and  N_22 
ROOT
HETATM    1  C   UNL     1      40.447 -12.904   2.698  1.00  0.00     0.035 A 
HETATM    2  C   UNL     1      41.698 -12.527   3.194  1.00  0.00     0.046 A 
HETATM    3  C   UNL     1      41.831 -12.106   4.536  1.00  0.00     0.030 A 
HETATM    4  C   UNL     1      40.706 -12.067   5.346  1.00  0.00     0.063 A 
HETATM    5  N   UNL     1      41.152 -11.631   6.563  1.00  0.00    -0.277 N 
HETATM    6  H   UNL     1      40.602 -11.486   7.403  1.00  0.00     0.189 HD
HETATM    7  N   UNL     1      42.470 -11.373   6.613  1.00  0.00    -0.168 NA
HETATM    8  C   UNL     1      42.904 -11.660   5.365  1.00  0.00     0.156 A 
HETATM    9  C   UNL     1      39.436 -12.422   4.891  1.00  0.00     0.034 A 
HETATM   10  C   UNL     1      39.335 -12.833   3.554  1.00  0.00     0.032 A 
ENDROOT
BRANCH   1  11
HETATM   11  N   UNL     1      40.186 -13.345   1.385  1.00  0.00    -0.327 N 
HETATM   12  C   UNL     1      40.161 -14.562   0.766  1.00  0.00     0.222 C 
HETATM   13  O   UNL     1      39.901 -14.572  -0.440  1.00  0.00    -0.273 OA
HETATM   14  H   UNL     1      39.925 -12.623   0.722  1.00  0.00     0.169 HD
BRANCH  12  15
HETATM   15  C   UNL     1      40.419 -15.838   1.534  1.00  0.00     0.103 C 
BRANCH  15  16
HETATM   16  C   UNL     1      41.889 -16.088   1.888  1.00  0.00     0.018 C 
BRANCH  16  17
HETATM   17  C   UNL     1      42.157 -17.104   3.021  1.00  0.00     0.015 C 
HETATM   18  C   UNL     1      43.474 -17.872   2.859  1.00  0.00     0.015 C 
BRANCH  17  19
HETATM   19  C   UNL     1      42.111 -16.393   4.369  1.00  0.00    -0.054 A 
HETATM   20  C   UNL     1      40.917 -16.277   5.099  1.00  0.00     0.007 A 
HETATM   21  C   UNL     1      40.898 -15.633   6.339  1.00  0.00     0.001 A 
HETATM   22  C   UNL     1      42.070 -15.098   6.864  1.00  0.00     0.000 A 
HETATM   23  C   UNL     1      43.264 -15.208   6.153  1.00  0.00     0.001 A 
HETATM   24  C   UNL     1      43.285 -15.853   4.915  1.00  0.00     0.007 A 
ENDBRANCH  17  19
ENDBRANCH  16  17
ENDBRANCH  15  16
ENDBRANCH  12  15
ENDBRANCH   1  11
BRANCH   8  25
HETATM   25  C   UNL     1      44.315 -11.508   4.985  1.00  0.00     0.270 C 
HETATM   26  N   UNL     1      45.183 -11.500   6.041  1.00  0.00    -0.365 N 
HETATM   27  H   UNL     1      44.811 -11.594   6.978  1.00  0.00     0.159 HD
HETATM   28  H   UNL     1      46.173 -11.396   5.877  1.00  0.00     0.159 HD
HETATM   29  O   UNL     1      44.712 -11.394   3.829  1.00  0.00    -0.266 OA
ENDBRANCH   8  25
TORSDOF 6
ENDMDL
MODEL 3
REMARK VINA RESULT:      -8.1      3.196      5.271
REMARK  6 active torsions:
REMARK  status: ('A' for Active; 'I' for Inactive)
REMARK    1  A    between atoms: C_2  and  C_3 
REMARK    2  A    between atoms: C_2  and  C_9 
REMARK    3  A    between atoms: C_9  and  C_10 
REMARK    4  A    between atoms: C_10  and  C_11 
REMARK       I    between atoms: C_11  and  N_12 
REMARK    5  A    between atoms: N_12  and  C_13 
REMARK    6  A    between atoms: C_20  and  C_21 
REMARK       I    between atoms: C_21  and  N_22 
ROOT
HETATM    1  C   UNL     1      42.228 -15.652   6.678  1.00  0.00     0.035 A 
HETATM    2  C   UNL     1      42.937 -14.543   6.209  1.00  0.00     0.046 A 
HETATM    3  C   UNL     1      42.245 -13.425   5.692  1.00  0.00     0.030 A 
HETATM    4  C   UNL     1      40.859 -13.449   5.653  1.00  0.00     0.063 A 
HETATM    5  N   UNL     1      40.491 -12.246   5.115  1.00  0.00    -0.277 N 
HETATM    6  H   UNL     1      39.550 -11.912   4.941  1.00  0.00     0.189 HD
HETATM    7  N   UNL     1      41.521 -11.444   4.790  1.00  0.00    -0.168 NA
HETATM    8  C   UNL     1      42.612 -12.161   5.140  1.00  0.00     0.156 A 
HETATM    9  C   UNL     1      40.110 -14.537   6.099  1.00  0.00     0.034 A 
HETATM   10  C   UNL     1      40.825 -15.633   6.604  1.00  0.00     0.032 A 
ENDROOT
BRANCH   1  11
HETATM   11  N   UNL     1      42.800 -16.821   7.219  1.00  0.00    -0.327 N 
HETATM   12  C   UNL     1      43.191 -18.025   6.708  1.00  0.00     0.222 C 
HETATM   13  O   UNL     1      43.652 -18.848   7.504  1.00  0.00    -0.273 OA
HETATM   14  H   UNL     1      43.010 -16.790   8.210  1.00  0.00     0.169 HD
BRANCH  12  15
HETATM   15  C   UNL     1      43.085 -18.322   5.230  1.00  0.00     0.103 C 
BRANCH  15  16
HETATM   16  C   UNL     1      44.013 -17.488   4.340  1.00  0.00     0.018 C 
BRANCH  16  17
HETATM   17  C   UNL     1      43.664 -17.449   2.835  1.00  0.00     0.015 C 
HETATM   18  C   UNL     1      43.063 -18.759   2.309  1.00  0.00     0.015 C 
BRANCH  17  19
HETATM   19  C   UNL     1      42.728 -16.278   2.555  1.00  0.00    -0.054 A 
HETATM   20  C   UNL     1      41.334 -16.409   2.662  1.00  0.00     0.007 A 
HETATM   21  C   UNL     1      40.493 -15.322   2.414  1.00  0.00     0.001 A 
HETATM   22  C   UNL     1      41.034 -14.091   2.056  1.00  0.00     0.000 A 
HETATM   23  C   UNL     1      42.416 -13.944   1.948  1.00  0.00     0.001 A 
HETATM   24  C   UNL     1      43.257 -15.030   2.198  1.00  0.00     0.007 A 
ENDBRANCH  17  19
ENDBRANCH  16  17
ENDBRANCH  15  16
ENDBRANCH  12  15
ENDBRANCH   1  11
BRANCH   8  25
HETATM   25  C   UNL     1      43.972 -11.640   4.946  1.00  0.00     0.270 C 
HETATM   26  N   UNL     1      44.650 -11.393   6.107  1.00  0.00    -0.365 N 
HETATM   27  H   UNL     1      44.188 -11.579   6.989  1.00  0.00     0.159 HD
HETATM   28  H   UNL     1      45.590 -11.030   6.073  1.00  0.00     0.159 HD
HETATM   29  O   UNL     1      44.483 -11.430   3.850  1.00  0.00    -0.266 OA
ENDBRANCH   8  25
TORSDOF 6
ENDMDL
MODEL 4
REMARK VINA RESULT:      -8.1      2.157      3.045
REMARK  6 active torsions:
REMARK  status: ('A' for Active; 'I' for Inactive)
REMARK    1  A    between atoms: C_2  and  C_3 
REMARK    2  A    between atoms: C_2  and  C_9 
REMARK    3  A    between atoms: C_9  and  C_10 
REMARK    4  A    between atoms: C_10  and  C_11 
REMARK       I    between atoms: C_11  and  N_12 
REMARK    5  A    between atoms: N_12  and  C_13 
REMARK    6  A    between atoms: C_20  and  C_21 
REMARK       I    between atoms: C_21  and  N_22 
ROOT
HETATM    1  C   UNL     1      39.978 -12.443   1.153  1.00  0.00     0.035 A 
HETATM    2  C   UNL     1      39.511 -13.251   0.114  1.00  0.00     0.046 A 
HETATM    3  C   UNL     1      40.067 -13.135  -1.180  1.00  0.00     0.030 A 
HETATM    4  C   UNL     1      41.074 -12.208  -1.401  1.00  0.00     0.063 A 
HETATM    5  N   UNL     1      41.400 -12.336  -2.723  1.00  0.00    -0.277 N 
HETATM    6  H   UNL     1      42.105 -11.817  -3.235  1.00  0.00     0.189 HD
HETATM    7  N   UNL     1      40.685 -13.262  -3.385  1.00  0.00    -0.168 NA
HETATM    8  C   UNL     1      39.854 -13.763  -2.444  1.00  0.00     0.156 A 
HETATM    9  C   UNL     1      41.563 -11.372  -0.398  1.00  0.00     0.034 A 
HETATM   10  C   UNL     1      40.990 -11.508   0.875  1.00  0.00     0.032 A 
ENDROOT
BRANCH   1  11
HETATM   11  N   UNL     1      39.510 -12.466   2.482  1.00  0.00    -0.327 N 
HETATM   12  C   UNL     1      39.924 -13.067   3.637  1.00  0.00     0.222 C 
HETATM   13  O   UNL     1      39.239 -12.873   4.645  1.00  0.00    -0.273 OA
HETATM   14  H   UNL     1      38.694 -11.895   2.672  1.00  0.00     0.169 HD
BRANCH  12  15
HETATM   15  C   UNL     1      41.177 -13.910   3.677  1.00  0.00     0.103 C 
BRANCH  15  16
HETATM   16  C   UNL     1      41.022 -15.318   3.091  1.00  0.00     0.018 C 
BRANCH  16  17
HETATM   17  C   UNL     1      42.170 -15.810   2.181  1.00  0.00     0.015 C 
HETATM   18  C   UNL     1      43.144 -14.700   1.766  1.00  0.00     0.015 C 
BRANCH  17  19
HETATM   19  C   UNL     1      42.916 -16.950   2.867  1.00  0.00    -0.054 A 
HETATM   20  C   UNL     1      43.067 -18.204   2.253  1.00  0.00     0.007 A 
HETATM   21  C   UNL     1      43.763 -19.232   2.892  1.00  0.00     0.001 A 
HETATM   22  C   UNL     1      44.318 -19.021   4.151  1.00  0.00     0.000 A 
HETATM   23  C   UNL     1      44.179 -17.781   4.771  1.00  0.00     0.001 A 
HETATM   24  C   UNL     1      43.485 -16.751   4.133  1.00  0.00     0.007 A 
ENDBRANCH  17  19
ENDBRANCH  16  17
ENDBRANCH  15  16
ENDBRANCH  12  15
ENDBRANCH   1  11
BRANCH   8  25
HETATM   25  C   UNL     1      38.882 -14.820  -2.756  1.00  0.00     0.270 C 
HETATM   26  N   UNL     1      38.063 -14.535  -3.813  1.00  0.00    -0.365 N 
HETATM   27  H   UNL     1      38.176 -13.649  -4.291  1.00  0.00     0.159 HD
HETATM   28  H   UNL     1      37.361 -15.200  -4.099  1.00  0.00     0.159 HD
HETATM   29  O   UNL     1      38.786 -15.877  -2.140  1.00  0.00    -0.266 OA
ENDBRANCH   8  25
TORSDOF 6
ENDMDL
MODEL 5
REMARK VINA RESULT:      -8.0      2.061      3.174
REMARK  6 active torsions:
REMARK  status: ('A' for Active; 'I' for Inactive)
REMARK    1  A    between atoms: C_2  and  C_3 
REMARK    2  A    between atoms: C_2  and  C_9 
REMARK    3  A    between atoms: C_9  and  C_10 
REMARK    4  A    between atoms: C_10  and  C_11 
REMARK       I    between atoms: C_11  and  N_12 
REMARK    5  A    between atoms: N_12  and  C_13 
REMARK    6  A    between atoms: C_20  and  C_21 
REMARK       I    between atoms: C_21  and  N_22 
ROOT
HETATM    1  C   UNL     1      40.459 -13.758   5.265  1.00  0.00     0.035 A 
HETATM    2  C   UNL     1      40.451 -14.170   3.930  1.00  0.00     0.046 A 
HETATM    3  C   UNL     1      39.913 -13.327   2.931  1.00  0.00     0.030 A 
HETATM    4  C   UNL     1      39.392 -12.095   3.297  1.00  0.00     0.063 A 
HETATM    5  N   UNL     1      38.962 -11.524   2.130  1.00  0.00    -0.277 N 
HETATM    6  H   UNL     1      38.528 -10.615   2.015  1.00  0.00     0.189 HD
HETATM    7  N   UNL     1      39.149 -12.284   1.037  1.00  0.00    -0.168 NA
HETATM    8  C   UNL     1      39.734 -13.404   1.517  1.00  0.00     0.156 A 
HETATM    9  C   UNL     1      39.369 -11.647   4.617  1.00  0.00     0.034 A 
HETATM   10  C   UNL     1      39.906 -12.507   5.586  1.00  0.00     0.032 A 
ENDROOT
BRANCH   1  11
HETATM   11  N   UNL     1      40.968 -14.502   6.348  1.00  0.00    -0.327 N 
HETATM   12  C   UNL     1      42.179 -15.058   6.649  1.00  0.00     0.222 C 
HETATM   13  O   UNL     1      42.263 -15.675   7.714  1.00  0.00    -0.273 OA
HETATM   14  H   UNL     1      40.324 -14.661   7.115  1.00  0.00     0.169 HD
BRANCH  12  15
HETATM   15  C   UNL     1      43.365 -14.900   5.725  1.00  0.00     0.103 C 
BRANCH  15  16
HETATM   16  C   UNL     1      43.850 -16.201   5.076  1.00  0.00     0.018 C 
BRANCH  16  17
HETATM   17  C   UNL     1      43.076 -16.670   3.823  1.00  0.00     0.015 C 
HETATM   18  C   UNL     1      43.368 -15.832   2.572  1.00  0.00     0.015 C 
BRANCH  17  19
HETATM   19  C   UNL     1      43.366 -18.144   3.562  1.00  0.00    -0.054 A 
HETATM   20  C   UNL     1      43.876 -18.982   4.567  1.00  0.00     0.007 A 
HETATM   21  C   UNL     1      44.124 -20.333   4.312  1.00  0.00     0.001 A 
HETATM   22  C   UNL     1      43.865 -20.863   3.052  1.00  0.00     0.000 A 
HETATM   23  C   UNL     1      43.356 -20.045   2.045  1.00  0.00     0.001 A 
HETATM   24  C   UNL     1      43.106 -18.695   2.299  1.00  0.00     0.007 A 
ENDBRANCH  17  19
ENDBRANCH  16  17
ENDBRANCH  15  16
ENDBRANCH  12  15
ENDBRANCH   1  11
BRANCH   8  25
HETATM   25  C   UNL     1      40.111 -14.516   0.635  1.00  0.00     0.270 C 
HETATM   26  N   UNL     1      40.801 -14.137  -0.484  1.00  0.00    -0.365 N 
HETATM   27  H   UNL     1      40.998 -13.154  -0.624  1.00  0.00     0.159 HD
HETATM   28  H   UNL     1      41.098 -14.833  -1.151  1.00  0.00     0.159 HD
HETATM   29  O   UNL     1      39.843 -15.694   0.852  1.00  0.00    -0.266 OA
ENDBRANCH   8  25
TORSDOF 6
ENDMDL
MODEL 6
REMARK VINA RESULT:      -8.0      1.601      2.427
REMARK  6 active torsions:
REMARK  status: ('A' for Active; 'I' for Inactive)
REMARK    1  A    between atoms: C_2  and  C_3 
REMARK    2  A    between atoms: C_2  and  C_9 
REMARK    3  A    between atoms: C_9  and  C_10 
REMARK    4  A    between atoms: C_10  and  C_11 
REMARK       I    between atoms: C_11  and  N_12 
REMARK    5  A    between atoms: N_12  and  C_13 
REMARK    6  A    between atoms: C_20  and  C_21 
REMARK       I    between atoms: C_21  and  N_22 
ROOT
HETATM    1  C   UNL     1      39.988 -13.680  -0.088  1.00  0.00     0.035 A 
HETATM    2  C   UNL     1      40.515 -12.386  -0.097  1.00  0.00     0.046 A 
HETATM    3  C   UNL     1      40.726 -11.715  -1.323  1.00  0.00     0.030 A 
HETATM    4  C   UNL     1      40.408 -12.360  -2.509  1.00  0.00     0.063 A 
HETATM    5  N   UNL     1      40.715 -11.468  -3.499  1.00  0.00    -0.277 N 
HETATM    6  H   UNL     1      40.607 -11.599  -4.499  1.00  0.00     0.189 HD
HETATM    7  N   UNL     1      41.215 -10.300  -3.060  1.00  0.00    -0.168 NA
HETATM    8  C   UNL     1      41.230 -10.439  -1.716  1.00  0.00     0.156 A 
HETATM    9  C   UNL     1      39.891 -13.655  -2.549  1.00  0.00     0.034 A 
HETATM   10  C   UNL     1      39.696 -14.296  -1.317  1.00  0.00     0.032 A 
ENDROOT
BRANCH   1  11
HETATM   11  N   UNL     1      39.729 -14.450   1.064  1.00  0.00    -0.327 N 
HETATM   12  C   UNL     1      40.502 -15.129   1.961  1.00  0.00     0.222 C 
HETATM   13  O   UNL     1      39.915 -15.726   2.868  1.00  0.00    -0.273 OA
HETATM   14  H   UNL     1      38.755 -14.517   1.338  1.00  0.00     0.169 HD
BRANCH  12  15
HETATM   15  C   UNL     1      42.010 -15.127   1.857  1.00  0.00     0.103 C 
BRANCH  15  16
HETATM   16  C   UNL     1      42.659 -16.514   1.916  1.00  0.00     0.018 C 
BRANCH  16  17
HETATM   17  C   UNL     1      43.622 -16.769   3.097  1.00  0.00     0.015 C 
HETATM   18  C   UNL     1      43.220 -16.042   4.386  1.00  0.00     0.015 C 
BRANCH  17  19
HETATM   19  C   UNL     1      43.746 -18.269   3.343  1.00  0.00    -0.054 A 
HETATM   20  C   UNL     1      44.161 -18.779   4.583  1.00  0.00     0.007 A 
HETATM   21  C   UNL     1      44.257 -20.157   4.793  1.00  0.00     0.001 A 
HETATM   22  C   UNL     1      43.939 -21.041   3.767  1.00  0.00     0.000 A 
HETATM   23  C   UNL     1      43.522 -20.551   2.531  1.00  0.00     0.001 A 
HETATM   24  C   UNL     1      43.424 -19.174   2.321  1.00  0.00     0.007 A 
ENDBRANCH  17  19
ENDBRANCH  16  17
ENDBRANCH  15  16
ENDBRANCH  12  15
ENDBRANCH   1  11
BRANCH   8  25
HETATM   25  C   UNL     1      41.716  -9.368  -0.835  1.00  0.00     0.270 C 
HETATM   26  N   UNL     1      40.763  -8.847  -0.005  1.00  0.00    -0.365 N 
HETATM   27  H   UNL     1      39.822  -9.218  -0.051  1.00  0.00     0.159 HD
HETATM   28  H   UNL     1      41.003  -8.104   0.633  1.00  0.00     0.159 HD
HETATM   29  O   UNL     1      42.871  -8.953  -0.823  1.00  0.00    -0.266 OA
ENDBRANCH   8  25
TORSDOF 6
ENDMDL
MODEL 7
REMARK VINA RESULT:      -8.0      2.309      3.088
REMARK  6 active torsions:
REMARK  status: ('A' for Active; 'I' for Inactive)
REMARK    1  A    between atoms: C_2  and  C_3 
REMARK    2  A    between atoms: C_2  and  C_9 
REMARK    3  A    between atoms: C_9  and  C_10 
REMARK    4  A    between atoms: C_10  and  C_11 
REMARK       I    between atoms: C_11  and  N_12 
REMARK    5  A    between atoms: N_12  and  C_13 
REMARK    6  A    between atoms: C_20  and  C_21 
REMARK       I    between atoms: C_21  and  N_22 
ROOT
HETATM    1  C   UNL     1      41.212 -11.517   1.765  1.00  0.00     0.035 A 
HETATM    2  C   UNL     1      41.163 -12.032   0.467  1.00  0.00     0.046 A 
HETATM    3  C   UNL     1      39.918 -12.249  -0.164  1.00  0.00     0.030 A 
HETATM    4  C   UNL     1      38.752 -11.949   0.524  1.00  0.00     0.063 A 
HETATM    5  N   UNL     1      37.734 -12.257  -0.337  1.00  0.00    -0.277 N 
HETATM    6  H   UNL     1      36.739 -12.160  -0.172  1.00  0.00     0.189 HD
HETATM    7  N   UNL     1      38.138 -12.742  -1.525  1.00  0.00    -0.168 NA
HETATM    8  C   UNL     1      39.487 -12.745  -1.431  1.00  0.00     0.156 A 
HETATM    9  C   UNL     1      38.751 -11.444   1.824  1.00  0.00     0.034 A 
HETATM   10  C   UNL     1      40.002 -11.243   2.425  1.00  0.00     0.032 A 
ENDROOT
BRANCH   1  11
HETATM   11  N   UNL     1      42.386 -11.254   2.498  1.00  0.00    -0.327 N 
HETATM   12  C   UNL     1      43.294 -12.022   3.170  1.00  0.00     0.222 C 
HETATM   13  O   UNL     1      44.222 -11.432   3.729  1.00  0.00    -0.273 OA
HETATM   14  H   UNL     1      42.673 -10.282   2.536  1.00  0.00     0.169 HD
BRANCH  12  15
HETATM   15  C   UNL     1      43.174 -13.528   3.203  1.00  0.00     0.103 C 
BRANCH  15  16
HETATM   16  C   UNL     1      42.242 -14.073   4.291  1.00  0.00     0.018 C 
BRANCH  16  17
HETATM   17  C   UNL     1      41.388 -15.302   3.907  1.00  0.00     0.015 C 
HETATM   18  C   UNL     1      40.486 -15.068   2.689  1.00  0.00     0.015 C 
BRANCH  17  19
HETATM   19  C   UNL     1      42.296 -16.507   3.680  1.00  0.00    -0.054 A 
HETATM   20  C   UNL     1      42.238 -17.258   2.495  1.00  0.00     0.007 A 
HETATM   21  C   UNL     1      43.085 -18.351   2.300  1.00  0.00     0.001 A 
HETATM   22  C   UNL     1      44.002 -18.706   3.286  1.00  0.00     0.000 A 
HETATM   23  C   UNL     1      44.074 -17.968   4.466  1.00  0.00     0.001 A 
HETATM   24  C   UNL     1      43.228 -16.875   4.661  1.00  0.00     0.007 A 
ENDBRANCH  17  19
ENDBRANCH  16  17
ENDBRANCH  15  16
ENDBRANCH  12  15
ENDBRANCH   1  11
BRANCH   8  25
HETATM   25  C   UNL     1      40.335 -13.214  -2.535  1.00  0.00     0.270 C 
HETATM   26  N   UNL     1      41.425 -12.425  -2.780  1.00  0.00    -0.365 N 
HETATM   27  H   UNL     1      41.569 -11.603  -2.206  1.00  0.00     0.159 HD
HETATM   28  H   UNL     1      42.063 -12.666  -3.523  1.00  0.00     0.159 HD
HETATM   29  O   UNL     1      40.111 -14.219  -3.202  1.00  0.00    -0.266 OA
ENDBRANCH   8  25
TORSDOF 6
ENDMDL
MODEL 8
REMARK VINA RESULT:      -7.9      3.524      5.536
REMARK  6 active torsions:
REMARK  status: ('A' for Active; 'I' for Inactive)
REMARK    1  A    between atoms: C_2  and  C_3 
REMARK    2  A    between atoms: C_2  and  C_9 
REMARK    3  A    between atoms: C_9  and  C_10 
REMARK    4  A    between atoms: C_10  and  C_11 
REMARK       I    between atoms: C_11  and  N_12 
REMARK    5  A    between atoms: N_12  and  C_13 
REMARK    6  A    between atoms: C_20  and  C_21 
REMARK       I    between atoms: C_21  and  N_22 
ROOT
HETATM    1  C   UNL     1      42.767 -12.848   3.943  1.00  0.00     0.035 A 
HETATM    2  C   UNL     1      43.611 -12.388   4.957  1.00  0.00     0.046 A 
HETATM    3  C   UNL     1      43.115 -11.515   5.952  1.00  0.00     0.030 A 
HETATM    4  C   UNL     1      41.786 -11.123   5.902  1.00  0.00     0.063 A 
HETATM    5  N   UNL     1      41.611 -10.300   6.981  1.00  0.00    -0.277 N 
HETATM    6  H   UNL     1      40.759  -9.830   7.264  1.00  0.00     0.189 HD
HETATM    7  N   UNL     1      42.717 -10.115   7.724  1.00  0.00    -0.168 NA
HETATM    8  C   UNL     1      43.656 -10.859   7.098  1.00  0.00     0.156 A 
HETATM    9  C   UNL     1      40.910 -11.547   4.904  1.00  0.00     0.034 A 
HETATM   10  C   UNL     1      41.432 -12.409   3.928  1.00  0.00     0.032 A 
ENDROOT
BRANCH   1  11
HETATM   11  N   UNL     1      43.140 -13.720   2.901  1.00  0.00    -0.327 N 
HETATM   12  C   UNL     1      42.847 -15.015   2.579  1.00  0.00     0.222 C 
HETATM   13  O   UNL     1      43.385 -15.476   1.568  1.00  0.00    -0.273 OA
HETATM   14  H   UNL     1      43.744 -13.324   2.189  1.00  0.00     0.169 HD
BRANCH  12  15
HETATM   15  C   UNL     1      41.889 -15.833   3.413  1.00  0.00     0.103 C 
BRANCH  15  16
HETATM   16  C   UNL     1      42.447 -16.292   4.765  1.00  0.00     0.018 C 
BRANCH  16  17
HETATM   17  C   UNL     1      43.899 -16.822   4.761  1.00  0.00     0.015 C 
HETATM   18  C   UNL     1      44.638 -16.597   6.085  1.00  0.00     0.015 C 
BRANCH  17  19
HETATM   19  C   UNL     1      43.904 -18.301   4.387  1.00  0.00    -0.054 A 
HETATM   20  C   UNL     1      43.904 -19.307   5.366  1.00  0.00     0.007 A 
HETATM   21  C   UNL     1      43.897 -20.656   5.004  1.00  0.00     0.001 A 
HETATM   22  C   UNL     1      43.890 -21.016   3.660  1.00  0.00     0.000 A 
HETATM   23  C   UNL     1      43.888 -20.029   2.676  1.00  0.00     0.001 A 
HETATM   24  C   UNL     1      43.893 -18.680   3.037  1.00  0.00     0.007 A 
ENDBRANCH  17  19
ENDBRANCH  16  17
ENDBRANCH  15  16
ENDBRANCH  12  15
ENDBRANCH   1  11
BRANCH   8  25
HETATM   25  C   UNL     1      45.037 -10.935   7.594  1.00  0.00     0.270 C 
HETATM   26  N   UNL     1      45.990 -10.767   6.628  1.00  0.00    -0.365 N 
HETATM   27  H   UNL     1      45.693 -10.609   5.673  1.00  0.00     0.159 HD
HETATM   28  H   UNL     1      46.967 -10.807   6.874  1.00  0.00     0.159 HD
HETATM   29  O   UNL     1      45.342 -11.133   8.765  1.00  0.00    -0.266 OA
ENDBRANCH   8  25
TORSDOF 6
ENDMDL
MODEL 9
REMARK VINA RESULT:      -7.9      2.584      3.816
REMARK  6 active torsions:
REMARK  status: ('A' for Active; 'I' for Inactive)
REMARK    1  A    between atoms: C_2  and  C_3 
REMARK    2  A    between atoms: C_2  and  C_9 
REMARK    3  A    between atoms: C_9  and  C_10 
REMARK    4  A    between atoms: C_10  and  C_11 
REMARK       I    between atoms: C_11  and  N_12 
REMARK    5  A    between atoms: N_12  and  C_13 
REMARK    6  A    between atoms: C_20  and  C_21 
REMARK       I    between atoms: C_21  and  N_22 
ROOT
HETATM    1  C   UNL     1      42.093 -12.289   4.822  1.00  0.00     0.035 A 
HETATM    2  C   UNL     1      41.961 -12.122   3.441  1.00  0.00     0.046 A 
HETATM    3  C   UNL     1      40.720 -12.370   2.812  1.00  0.00     0.030 A 
HETATM    4  C   UNL     1      39.644 -12.783   3.583  1.00  0.00     0.063 A 
HETATM    5  N   UNL     1      38.606 -12.933   2.705  1.00  0.00    -0.277 N 
HETATM    6  H   UNL     1      37.657 -13.221   2.918  1.00  0.00     0.189 HD
HETATM    7  N   UNL     1      38.916 -12.661   1.425  1.00  0.00    -0.168 NA
HETATM    8  C   UNL     1      40.222 -12.314   1.476  1.00  0.00     0.156 A 
HETATM    9  C   UNL     1      39.732 -12.974   4.962  1.00  0.00     0.034 A 
HETATM   10  C   UNL     1      40.977 -12.723   5.557  1.00  0.00     0.032 A 
ENDROOT
BRANCH   1  11
HETATM   11  N   UNL     1      43.271 -12.070   5.563  1.00  0.00    -0.327 N 
HETATM   12  C   UNL     1      43.926 -12.749   6.551  1.00  0.00     0.222 C 
HETATM   13  O   UNL     1      44.957 -12.236   6.994  1.00  0.00    -0.273 OA
HETATM   14  H   UNL     1      43.799 -11.239   5.318  1.00  0.00     0.169 HD
BRANCH  12  15
HETATM   15  C   UNL     1      43.420 -14.080   7.056  1.00  0.00     0.103 C 
BRANCH  15  16
HETATM   16  C   UNL     1      43.812 -15.285   6.195  1.00  0.00     0.018 C 
BRANCH  16  17
HETATM   17  C   UNL     1      42.665 -16.236   5.786  1.00  0.00     0.015 C 
HETATM   18  C   UNL     1      41.407 -16.089   6.650  1.00  0.00     0.015 C 
BRANCH  17  19
HETATM   19  C   UNL     1      42.330 -16.033   4.312  1.00  0.00    -0.054 A 
HETATM   20  C   UNL     1      43.305 -15.627   3.386  1.00  0.00     0.007 A 
HETATM   21  C   UNL     1      42.982 -15.458   2.037  1.00  0.00     0.001 A 
HETATM   22  C   UNL     1      41.683 -15.693   1.597  1.00  0.00     0.000 A 
HETATM   23  C   UNL     1      40.706 -16.100   2.504  1.00  0.00     0.001 A 
HETATM   24  C   UNL     1      41.027 -16.271   3.851  1.00  0.00     0.007 A 
ENDBRANCH  17  19
ENDBRANCH  16  17
ENDBRANCH  15  16
ENDBRANCH  12  15
ENDBRANCH   1  11
BRANCH   8  25
HETATM   25  C   UNL     1      40.967 -11.938   0.267  1.00  0.00     0.270 C 
HETATM   26  N   UNL     1      41.104 -12.947  -0.646  1.00  0.00    -0.365 N 
HETATM   27  H   UNL     1      40.699 -13.851  -0.436  1.00  0.00     0.159 HD
HETATM   28  H   UNL     1      41.605 -12.783  -1.505  1.00  0.00     0.159 HD
HETATM   29  O   UNL     1      41.441 -10.824   0.064  1.00  0.00    -0.266 OA
ENDBRANCH   8  25
TORSDOF 6
ENDMDL
MODEL 10
REMARK VINA RESULT:      -7.9      1.329      1.650
REMARK  6 active torsions:
REMARK  status: ('A' for Active; 'I' for Inactive)
REMARK    1  A    between atoms: C_2  and  C_3 
REMARK    2  A    between atoms: C_2  and  C_9 
REMARK    3  A    between atoms: C_9  and  C_10 
REMARK    4  A    between atoms: C_10  and  C_11 
REMARK       I    between atoms: C_11  and  N_12 
REMARK    5  A    between atoms: N_12  and  C_13 
REMARK    6  A    between atoms: C_20  and  C_21 
REMARK       I    between atoms: C_21  and  N_22 
ROOT
HETATM    1  C   UNL     1      39.971 -14.599   2.423  1.00  0.00     0.035 A 
HETATM    2  C   UNL     1      39.905 -13.206   2.334  1.00  0.00     0.046 A 
HETATM    3  C   UNL     1      39.973 -12.572   1.073  1.00  0.00     0.030 A 
HETATM    4  C   UNL     1      40.109 -13.349  -0.067  1.00  0.00     0.063 A 
HETATM    5  N   UNL     1      40.140 -12.463  -1.108  1.00  0.00    -0.277 N 
HETATM    6  H   UNL     1      40.227 -12.677  -2.096  1.00  0.00     0.189 HD
HETATM    7  N   UNL     1      40.045 -11.172  -0.743  1.00  0.00    -0.168 NA
HETATM    8  C   UNL     1      39.943 -11.224   0.604  1.00  0.00     0.156 A 
HETATM    9  C   UNL     1      40.191 -14.741  -0.026  1.00  0.00     0.034 A 
HETATM   10  C   UNL     1      40.124 -15.341   1.240  1.00  0.00     0.032 A 
ENDROOT
BRANCH   1  11
HETATM   11  N   UNL     1      39.911 -15.346   3.616  1.00  0.00    -0.327 N 
HETATM   12  C   UNL     1      40.772 -15.579   4.649  1.00  0.00     0.222 C 
HETATM   13  O   UNL     1      40.378 -16.325   5.550  1.00  0.00    -0.273 OA
HETATM   14  H   UNL     1      39.030 -15.814   3.798  1.00  0.00     0.169 HD
BRANCH  12  15
HETATM   15  C   UNL     1      42.137 -14.931   4.695  1.00  0.00     0.103 C 
BRANCH  15  16
HETATM   16  C   UNL     1      43.258 -15.750   4.045  1.00  0.00     0.018 C 
BRANCH  16  17
HETATM   17  C   UNL     1      42.862 -16.594   2.813  1.00  0.00     0.015 C 
HETATM   18  C   UNL     1      43.472 -16.087   1.500  1.00  0.00     0.015 C 
BRANCH  17  19
HETATM   19  C   UNL     1      43.234 -18.054   3.049  1.00  0.00    -0.054 A 
HETATM   20  C   UNL     1      43.902 -18.463   4.214  1.00  0.00     0.007 A 
HETATM   21  C   UNL     1      44.224 -19.807   4.418  1.00  0.00     0.001 A 
HETATM   22  C   UNL     1      43.881 -20.758   3.462  1.00  0.00     0.000 A 
HETATM   23  C   UNL     1      43.215 -20.368   2.302  1.00  0.00     0.001 A 
HETATM   24  C   UNL     1      42.891 -19.025   2.097  1.00  0.00     0.007 A 
ENDBRANCH  17  19
ENDBRANCH  16  17
ENDBRANCH  15  16
ENDBRANCH  12  15
ENDBRANCH   1  11
BRANCH   8  25
HETATM   25  C   UNL     1      39.820 -10.005   1.415  1.00  0.00     0.270 C 
HETATM   26  N   UNL     1      40.956  -9.666   2.096  1.00  0.00    -0.365 N 
HETATM   27  H   UNL     1      41.775 -10.254   1.999  1.00  0.00     0.159 HD
HETATM   28  H   UNL     1      40.965  -8.846   2.683  1.00  0.00     0.159 HD
HETATM   29  O   UNL     1      38.799  -9.329   1.499  1.00  0.00    -0.266 OA
ENDBRANCH   8  25
TORSDOF 6
ENDMDL
