MODEL 1
REMARK VINA RESULT:      -8.0      0.000      0.000
REMARK  6 active torsions:
REMARK  status: ('A' for Active; 'I' for Inactive)
REMARK    1  A    between atoms: O_2  and  C_3 
REMARK    2  A    between atoms: C_6  and  C_7 
REMARK    3  A    between atoms: C_7  and  N_8 
REMARK    4  A    between atoms: N_8  and  C_9 
REMARK    5  A    between atoms: C_15  and  C_16 
REMARK       I    between atoms: C_16  and  N_17 
REMARK    6  A    between atoms: N_17  and  C_18 
ROOT
HETATM    1  C   UNL     1      44.002 -18.177   4.176  1.00  0.00     0.096 A 
HETATM    2  N   UNL     1      44.296 -19.430   4.570  1.00  0.00    -0.356 N 
HETATM    3  H   UNL     1      44.810 -19.526   5.444  1.00  0.00     0.166 HD
HETATM    4  C   UNL     1      44.008 -20.527   3.854  1.00  0.00     0.089 A 
HETATM    5  C   UNL     1      43.394 -20.403   2.617  1.00  0.00     0.018 A 
HETATM    6  C   UNL     1      43.124 -19.132   2.117  1.00  0.00     0.022 A 
HETATM    7  C   UNL     1      43.459 -18.005   2.877  1.00  0.00     0.070 A 
ENDROOT
BRANCH   1   8
HETATM    8  N   UNL     1      44.381 -17.122   5.009  1.00  0.00    -0.274 NA
HETATM    9  H   UNL     1      44.154 -16.232   4.531  1.00  0.00     0.129 HD
BRANCH   8  10
HETATM   10  C   UNL     1      43.799 -17.063   6.353  1.00  0.00     0.132 C 
BRANCH  10  11
HETATM   11  C   UNL     1      42.671 -16.065   6.394  1.00  0.00    -0.045 A 
HETATM   12  C   UNL     1      42.946 -14.692   6.480  1.00  0.00     0.011 A 
HETATM   13  C   UNL     1      41.914 -13.749   6.462  1.00  0.00     0.037 A 
HETATM   14  C   UNL     1      40.590 -14.167   6.354  1.00  0.00     0.068 A 
HETATM   15  C   UNL     1      40.307 -15.534   6.286  1.00  0.00     0.037 A 
HETATM   16  C   UNL     1      41.337 -16.479   6.291  1.00  0.00     0.011 A 
BRANCH  14  17
HETATM   17  O   UNL     1      39.498 -13.348   6.315  1.00  0.00    -0.356 OA
HETATM   18  C   UNL     1      39.698 -12.052   5.758  1.00  0.00     0.210 C 
ENDBRANCH  14  17
ENDBRANCH  10  11
ENDBRANCH   8  10
ENDBRANCH   1   8
BRANCH   7  19
HETATM   19  C   UNL     1      43.223 -16.620   2.378  1.00  0.00     0.259 C 
HETATM   20  N   UNL     1      42.521 -15.770   3.204  1.00  0.00    -0.320 N 
HETATM   21  H   UNL     1      42.240 -16.080   4.128  1.00  0.00     0.169 HD
HETATM   22  O   UNL     1      43.644 -16.361   1.254  1.00  0.00    -0.267 OA
BRANCH  20  23
HETATM   23  C   UNL     1      42.064 -14.459   2.894  1.00  0.00     0.075 A 
HETATM   24  C   UNL     1      40.729 -14.264   2.514  1.00  0.00     0.152 A 
HETATM   25 CL   UNL     1      39.618 -15.584   2.453  1.00  0.00    -0.060 Cl
HETATM   26  N   UNL     1      40.177 -13.083   2.163  1.00  0.00    -0.247 NA
HETATM   27  C   UNL     1      40.998 -12.014   2.187  1.00  0.00     0.118 A 
HETATM   28  C   UNL     1      42.334 -12.085   2.547  1.00  0.00     0.022 A 
HETATM   29  C   UNL     1      42.872 -13.322   2.908  1.00  0.00     0.034 A 
ENDBRANCH  20  23
ENDBRANCH   7  19
TORSDOF 6
ENDMDL
MODEL 2
REMARK VINA RESULT:      -7.5      2.468      5.344
REMARK  6 active torsions:
REMARK  status: ('A' for Active; 'I' for Inactive)
REMARK    1  A    between atoms: O_2  and  C_3 
REMARK    2  A    between atoms: C_6  and  C_7 
REMARK    3  A    between atoms: C_7  and  N_8 
REMARK    4  A    between atoms: N_8  and  C_9 
REMARK    5  A    between atoms: C_15  and  C_16 
REMARK       I    between atoms: C_16  and  N_17 
REMARK    6  A    between atoms: N_17  and  C_18 
ROOT
HETATM    1  C   UNL     1      42.429 -13.428   6.218  1.00  0.00     0.096 A 
HETATM    2  N   UNL     1      43.279 -13.100   7.208  1.00  0.00    -0.356 N 
HETATM    3  H   UNL     1      43.102 -13.518   8.120  1.00  0.00     0.166 HD
HETATM    4  C   UNL     1      44.282 -12.221   7.073  1.00  0.00     0.089 A 
HETATM    5  C   UNL     1      44.474 -11.571   5.863  1.00  0.00     0.018 A 
HETATM    6  C   UNL     1      43.589 -11.813   4.816  1.00  0.00     0.022 A 
HETATM    7  C   UNL     1      42.535 -12.717   4.995  1.00  0.00     0.070 A 
ENDROOT
BRANCH   1   8
HETATM    8  N   UNL     1      41.411 -14.341   6.503  1.00  0.00    -0.274 NA
HETATM    9  H   UNL     1      40.810 -14.432   5.664  1.00  0.00     0.129 HD
BRANCH   8  10
HETATM   10  C   UNL     1      41.795 -15.693   6.918  1.00  0.00     0.132 C 
BRANCH  10  11
HETATM   11  C   UNL     1      42.450 -16.428   5.777  1.00  0.00    -0.045 A 
HETATM   12  C   UNL     1      43.638 -17.145   5.988  1.00  0.00     0.011 A 
HETATM   13  C   UNL     1      44.228 -17.878   4.956  1.00  0.00     0.037 A 
HETATM   14  C   UNL     1      43.635 -17.910   3.696  1.00  0.00     0.068 A 
HETATM   15  C   UNL     1      42.461 -17.185   3.473  1.00  0.00     0.037 A 
HETATM   16  C   UNL     1      41.862 -16.459   4.506  1.00  0.00     0.011 A 
BRANCH  14  17
HETATM   17  O   UNL     1      44.105 -18.596   2.611  1.00  0.00    -0.356 OA
HETATM   18  C   UNL     1      43.485 -19.849   2.338  1.00  0.00     0.210 C 
ENDBRANCH  14  17
ENDBRANCH  10  11
ENDBRANCH   8  10
ENDBRANCH   1   8
BRANCH   7  19
HETATM   19  C   UNL     1      41.540 -12.989   3.919  1.00  0.00     0.259 C 
HETATM   20  N   UNL     1      42.037 -13.301   2.673  1.00  0.00    -0.320 N 
HETATM   21  H   UNL     1      43.038 -13.390   2.535  1.00  0.00     0.169 HD
HETATM   22  O   UNL     1      40.356 -12.879   4.224  1.00  0.00    -0.267 OA
BRANCH  20  23
HETATM   23  C   UNL     1      41.293 -13.469   1.472  1.00  0.00     0.075 A 
HETATM   24  C   UNL     1      41.021 -12.355   0.666  1.00  0.00     0.152 A 
HETATM   25 CL   UNL     1      41.609 -10.786   1.085  1.00  0.00    -0.060 Cl
HETATM   26  N   UNL     1      40.302 -12.368  -0.476  1.00  0.00    -0.247 NA
HETATM   27  C   UNL     1      39.811 -13.566  -0.854  1.00  0.00     0.118 A 
HETATM   28  C   UNL     1      40.016 -14.736  -0.139  1.00  0.00     0.022 A 
HETATM   29  C   UNL     1      40.769 -14.685   1.037  1.00  0.00     0.034 A 
ENDBRANCH  20  23
ENDBRANCH   7  19
TORSDOF 6
ENDMDL
MODEL 3
REMARK VINA RESULT:      -7.4      2.650      6.465
REMARK  6 active torsions:
REMARK  status: ('A' for Active; 'I' for Inactive)
REMARK    1  A    between atoms: O_2  and  C_3 
REMARK    2  A    between atoms: C_6  and  C_7 
REMARK    3  A    between atoms: C_7  and  N_8 
REMARK    4  A    between atoms: N_8  and  C_9 
REMARK    5  A    between atoms: C_15  and  C_16 
REMARK       I    between atoms: C_16  and  N_17 
REMARK    6  A    between atoms: N_17  and  C_18 
ROOT
HETATM    1  C   UNL     1      42.600 -13.997   4.640  1.00  0.00     0.096 A 
HETATM    2  N   UNL     1      42.792 -12.669   4.747  1.00  0.00    -0.356 N 
HETATM    3  H   UNL     1      42.545 -12.105   3.935  1.00  0.00     0.166 HD
HETATM    4  C   UNL     1      43.337 -12.074   5.818  1.00  0.00     0.089 A 
HETATM    5  C   UNL     1      43.766 -12.841   6.891  1.00  0.00     0.018 A 
HETATM    6  C   UNL     1      43.660 -14.227   6.818  1.00  0.00     0.022 A 
HETATM    7  C   UNL     1      43.110 -14.821   5.677  1.00  0.00     0.070 A 
ENDROOT
BRANCH   1   8
HETATM    8  N   UNL     1      42.044 -14.486   3.457  1.00  0.00    -0.274 NA
HETATM    9  H   UNL     1      42.402 -15.446   3.301  1.00  0.00     0.129 HD
BRANCH   8  10
HETATM   10  C   UNL     1      40.582 -14.539   3.354  1.00  0.00     0.132 C 
BRANCH  10  11
HETATM   11  C   UNL     1      40.143 -14.223   1.948  1.00  0.00    -0.045 A 
HETATM   12  C   UNL     1      39.750 -12.919   1.607  1.00  0.00     0.011 A 
HETATM   13  C   UNL     1      39.393 -12.596   0.295  1.00  0.00     0.037 A 
HETATM   14  C   UNL     1      39.428 -13.571  -0.698  1.00  0.00     0.068 A 
HETATM   15  C   UNL     1      39.801 -14.876  -0.363  1.00  0.00     0.037 A 
HETATM   16  C   UNL     1      40.170 -15.201   0.945  1.00  0.00     0.011 A 
BRANCH  14  17
HETATM   17  O   UNL     1      39.115 -13.380  -2.014  1.00  0.00    -0.356 OA
HETATM   18  C   UNL     1      38.907 -14.555  -2.792  1.00  0.00     0.210 C 
ENDBRANCH  14  17
ENDBRANCH  10  11
ENDBRANCH   8  10
ENDBRANCH   1   8
BRANCH   7  19
HETATM   19  C   UNL     1      43.003 -16.301   5.532  1.00  0.00     0.259 C 
HETATM   20  N   UNL     1      43.881 -16.908   4.660  1.00  0.00    -0.320 N 
HETATM   21  H   UNL     1      44.594 -16.357   4.195  1.00  0.00     0.169 HD
HETATM   22  O   UNL     1      42.118 -16.854   6.177  1.00  0.00    -0.267 OA
BRANCH  20  23
HETATM   23  C   UNL     1      43.884 -18.273   4.262  1.00  0.00     0.075 A 
HETATM   24  C   UNL     1      43.552 -18.608   2.942  1.00  0.00     0.152 A 
HETATM   25 CL   UNL     1      43.178 -17.388   1.779  1.00  0.00    -0.060 Cl
HETATM   26  N   UNL     1      43.485 -19.861   2.443  1.00  0.00    -0.247 NA
HETATM   27  C   UNL     1      43.763 -20.859   3.305  1.00  0.00     0.118 A 
HETATM   28  C   UNL     1      44.105 -20.649   4.632  1.00  0.00     0.022 A 
HETATM   29  C   UNL     1      44.169 -19.339   5.114  1.00  0.00     0.034 A 
ENDBRANCH  20  23
ENDBRANCH   7  19
TORSDOF 6
ENDMDL
MODEL 4
REMARK VINA RESULT:      -7.3      3.129      5.775
REMARK  6 active torsions:
REMARK  status: ('A' for Active; 'I' for Inactive)
REMARK    1  A    between atoms: O_2  and  C_3 
REMARK    2  A    between atoms: C_6  and  C_7 
REMARK    3  A    between atoms: C_7  and  N_8 
REMARK    4  A    between atoms: N_8  and  C_9 
REMARK    5  A    between atoms: C_15  and  C_16 
REMARK       I    between atoms: C_16  and  N_17 
REMARK    6  A    between atoms: N_17  and  C_18 
ROOT
HETATM    1  C   UNL     1      39.915 -13.844  -0.223  1.00  0.00     0.096 A 
HETATM    2  N   UNL     1      39.562 -14.512  -1.336  1.00  0.00    -0.356 N 
HETATM    3  H   UNL     1      39.109 -15.415  -1.204  1.00  0.00     0.166 HD
HETATM    4  C   UNL     1      39.828 -14.089  -2.580  1.00  0.00     0.089 A 
HETATM    5  C   UNL     1      40.529 -12.908  -2.773  1.00  0.00     0.018 A 
HETATM    6  C   UNL     1      40.985 -12.201  -1.664  1.00  0.00     0.022 A 
HETATM    7  C   UNL     1      40.713 -12.682  -0.377  1.00  0.00     0.070 A 
ENDROOT
BRANCH   1   8
HETATM    8  N   UNL     1      39.596 -14.413   1.012  1.00  0.00    -0.274 NA
HETATM    9  H   UNL     1      38.589 -14.256   1.193  1.00  0.00     0.129 HD
BRANCH   8  10
HETATM   10  C   UNL     1      39.861 -15.842   1.200  1.00  0.00     0.132 C 
BRANCH  10  11
HETATM   11  C   UNL     1      40.938 -16.046   2.234  1.00  0.00    -0.045 A 
HETATM   12  C   UNL     1      40.621 -16.008   3.601  1.00  0.00     0.011 A 
HETATM   13  C   UNL     1      41.596 -16.251   4.572  1.00  0.00     0.037 A 
HETATM   14  C   UNL     1      42.904 -16.540   4.190  1.00  0.00     0.068 A 
HETATM   15  C   UNL     1      43.231 -16.563   2.832  1.00  0.00     0.037 A 
HETATM   16  C   UNL     1      42.257 -16.332   1.857  1.00  0.00     0.011 A 
BRANCH  14  17
HETATM   17  O   UNL     1      43.941 -16.806   5.039  1.00  0.00    -0.356 OA
HETATM   18  C   UNL     1      44.115 -18.168   5.417  1.00  0.00     0.210 C 
ENDBRANCH  14  17
ENDBRANCH  10  11
ENDBRANCH   8  10
ENDBRANCH   1   8
BRANCH   7  19
HETATM   19  C   UNL     1      41.205 -11.983   0.844  1.00  0.00     0.259 C 
HETATM   20  N   UNL     1      41.842 -12.755   1.791  1.00  0.00    -0.320 N 
HETATM   21  H   UNL     1      42.007 -13.740   1.613  1.00  0.00     0.169 HD
HETATM   22  O   UNL     1      40.970 -10.781   0.923  1.00  0.00    -0.267 OA
BRANCH  20  23
HETATM   23  C   UNL     1      42.276 -12.342   3.081  1.00  0.00     0.075 A 
HETATM   24  C   UNL     1      41.340 -12.216   4.117  1.00  0.00     0.152 A 
HETATM   25 CL   UNL     1      39.673 -12.592   3.864  1.00  0.00    -0.060 Cl
HETATM   26  N   UNL     1      41.610 -11.803   5.374  1.00  0.00    -0.247 NA
HETATM   27  C   UNL     1      42.895 -11.490   5.632  1.00  0.00     0.118 A 
HETATM   28  C   UNL     1      43.907 -11.577   4.689  1.00  0.00     0.022 A 
HETATM   29  C   UNL     1      43.592 -12.012   3.399  1.00  0.00     0.034 A 
ENDBRANCH  20  23
ENDBRANCH   7  19
TORSDOF 6
ENDMDL
MODEL 5
REMARK VINA RESULT:      -7.2      2.663      5.814
REMARK  6 active torsions:
REMARK  status: ('A' for Active; 'I' for Inactive)
REMARK    1  A    between atoms: O_2  and  C_3 
REMARK    2  A    between atoms: C_6  and  C_7 
REMARK    3  A    between atoms: C_7  and  N_8 
REMARK    4  A    between atoms: N_8  and  C_9 
REMARK    5  A    between atoms: C_15  and  C_16 
REMARK       I    between atoms: C_16  and  N_17 
REMARK    6  A    between atoms: N_17  and  C_18 
ROOT
HETATM    1  C   UNL     1      41.260 -13.261   0.979  1.00  0.00     0.096 A 
HETATM    2  N   UNL     1      40.818 -12.350   0.092  1.00  0.00    -0.356 N 
HETATM    3  H   UNL     1      41.098 -11.383   0.251  1.00  0.00     0.166 HD
HETATM    4  C   UNL     1      39.996 -12.636  -0.928  1.00  0.00     0.089 A 
HETATM    5  C   UNL     1      39.530 -13.931  -1.098  1.00  0.00     0.018 A 
HETATM    6  C   UNL     1      39.893 -14.909  -0.176  1.00  0.00     0.022 A 
HETATM    7  C   UNL     1      40.733 -14.575   0.892  1.00  0.00     0.070 A 
ENDROOT
BRANCH   1   8
HETATM    8  N   UNL     1      42.094 -12.822   2.009  1.00  0.00    -0.274 NA
HETATM    9  H   UNL     1      42.961 -12.443   1.588  1.00  0.00     0.129 HD
BRANCH   8  10
HETATM   10  C   UNL     1      41.573 -11.809   2.932  1.00  0.00     0.132 C 
BRANCH  10  11
HETATM   11  C   UNL     1      42.414 -11.751   4.180  1.00  0.00    -0.045 A 
HETATM   12  C   UNL     1      41.828 -11.967   5.437  1.00  0.00     0.011 A 
HETATM   13  C   UNL     1      42.602 -11.973   6.601  1.00  0.00     0.037 A 
HETATM   14  C   UNL     1      43.978 -11.768   6.523  1.00  0.00     0.068 A 
HETATM   15  C   UNL     1      44.566 -11.535   5.277  1.00  0.00     0.037 A 
HETATM   16  C   UNL     1      43.797 -11.540   4.110  1.00  0.00     0.011 A 
BRANCH  14  17
HETATM   17  O   UNL     1      44.843 -11.762   7.581  1.00  0.00    -0.356 OA
HETATM   18  C   UNL     1      45.928 -10.843   7.505  1.00  0.00     0.210 C 
ENDBRANCH  14  17
ENDBRANCH  10  11
ENDBRANCH   8  10
ENDBRANCH   1   8
BRANCH   7  19
HETATM   19  C   UNL     1      41.126 -15.574   1.926  1.00  0.00     0.259 C 
HETATM   20  N   UNL     1      42.431 -16.017   1.901  1.00  0.00    -0.320 N 
HETATM   21  H   UNL     1      43.087 -15.622   1.236  1.00  0.00     0.169 HD
HETATM   22  O   UNL     1      40.246 -15.947   2.695  1.00  0.00    -0.267 OA
BRANCH  20  23
HETATM   23  C   UNL     1      42.999 -17.053   2.694  1.00  0.00     0.075 A 
HETATM   24  C   UNL     1      43.438 -16.766   3.993  1.00  0.00     0.152 A 
HETATM   25 CL   UNL     1      43.266 -15.184   4.664  1.00  0.00    -0.060 Cl
HETATM   26  N   UNL     1      44.023 -17.644   4.836  1.00  0.00    -0.247 NA
HETATM   27  C   UNL     1      44.189 -18.897   4.367  1.00  0.00     0.118 A 
HETATM   28  C   UNL     1      43.793 -19.296   3.100  1.00  0.00     0.022 A 
HETATM   29  C   UNL     1      43.188 -18.363   2.256  1.00  0.00     0.034 A 
ENDBRANCH  20  23
ENDBRANCH   7  19
TORSDOF 6
ENDMDL
MODEL 6
REMARK VINA RESULT:      -7.2      2.926      3.816
REMARK  6 active torsions:
REMARK  status: ('A' for Active; 'I' for Inactive)
REMARK    1  A    between atoms: O_2  and  C_3 
REMARK    2  A    between atoms: C_6  and  C_7 
REMARK    3  A    between atoms: C_7  and  N_8 
REMARK    4  A    between atoms: N_8  and  C_9 
REMARK    5  A    between atoms: C_15  and  C_16 
REMARK       I    between atoms: C_16  and  N_17 
REMARK    6  A    between atoms: N_17  and  C_18 
ROOT
HETATM    1  C   UNL     1      41.512 -16.303   4.144  1.00  0.00     0.096 A 
HETATM    2  N   UNL     1      42.462 -16.898   4.889  1.00  0.00    -0.356 N 
HETATM    3  H   UNL     1      42.454 -16.696   5.887  1.00  0.00     0.166 HD
HETATM    4  C   UNL     1      43.434 -17.672   4.383  1.00  0.00     0.089 A 
HETATM    5  C   UNL     1      43.514 -17.876   3.014  1.00  0.00     0.018 A 
HETATM    6  C   UNL     1      42.603 -17.235   2.179  1.00  0.00     0.022 A 
HETATM    7  C   UNL     1      41.615 -16.413   2.734  1.00  0.00     0.070 A 
ENDROOT
BRANCH   1   8
HETATM    8  N   UNL     1      40.573 -15.502   4.797  1.00  0.00    -0.274 NA
HETATM    9  H   UNL     1      39.707 -16.055   4.929  1.00  0.00     0.129 HD
BRANCH   8  10
HETATM   10  C   UNL     1      40.938 -14.938   6.101  1.00  0.00     0.132 C 
BRANCH  10  11
HETATM   11  C   UNL     1      42.045 -13.928   5.946  1.00  0.00    -0.045 A 
HETATM   12  C   UNL     1      41.932 -12.896   5.001  1.00  0.00     0.011 A 
HETATM   13  C   UNL     1      42.924 -11.919   4.882  1.00  0.00     0.037 A 
HETATM   14  C   UNL     1      44.042 -11.956   5.711  1.00  0.00     0.068 A 
HETATM   15  C   UNL     1      44.170 -12.990   6.643  1.00  0.00     0.037 A 
HETATM   16  C   UNL     1      43.175 -13.963   6.772  1.00  0.00     0.011 A 
BRANCH  14  17
HETATM   17  O   UNL     1      45.070 -11.056   5.702  1.00  0.00    -0.356 OA
HETATM   18  C   UNL     1      45.740 -10.848   6.942  1.00  0.00     0.210 C 
ENDBRANCH  14  17
ENDBRANCH  10  11
ENDBRANCH   8  10
ENDBRANCH   1   8
BRANCH   7  19
HETATM   19  C   UNL     1      40.635 -15.677   1.885  1.00  0.00     0.259 C 
HETATM   20  N   UNL     1      41.141 -14.975   0.812  1.00  0.00    -0.320 N 
HETATM   21  H   UNL     1      42.132 -15.021   0.600  1.00  0.00     0.169 HD
HETATM   22  O   UNL     1      39.459 -15.728   2.232  1.00  0.00    -0.267 OA
BRANCH  20  23
HETATM   23  C   UNL     1      40.427 -14.101  -0.053  1.00  0.00     0.075 A 
HETATM   24  C   UNL     1      40.522 -12.715   0.134  1.00  0.00     0.152 A 
HETATM   25 CL   UNL     1      41.526 -12.048   1.371  1.00  0.00    -0.060 Cl
HETATM   26  N   UNL     1      39.874 -11.778  -0.591  1.00  0.00    -0.247 NA
HETATM   27  C   UNL     1      39.071 -12.238  -1.572  1.00  0.00     0.118 A 
HETATM   28  C   UNL     1      38.899 -13.585  -1.849  1.00  0.00     0.022 A 
HETATM   29  C   UNL     1      39.588 -14.526  -1.082  1.00  0.00     0.034 A 
ENDBRANCH  20  23
ENDBRANCH   7  19
TORSDOF 6
ENDMDL
MODEL 7
REMARK VINA RESULT:      -7.1     14.183     15.704
REMARK  6 active torsions:
REMARK  status: ('A' for Active; 'I' for Inactive)
REMARK    1  A    between atoms: O_2  and  C_3 
REMARK    2  A    between atoms: C_6  and  C_7 
REMARK    3  A    between atoms: C_7  and  N_8 
REMARK    4  A    between atoms: N_8  and  C_9 
REMARK    5  A    between atoms: C_15  and  C_16 
REMARK       I    between atoms: C_16  and  N_17 
REMARK    6  A    between atoms: N_17  and  C_18 
ROOT
HETATM    1  C   UNL     1      46.931 -28.688   2.258  1.00  0.00     0.096 A 
HETATM    2  N   UNL     1      48.096 -28.088   2.565  1.00  0.00    -0.356 N 
HETATM    3  H   UNL     1      48.369 -27.295   1.986  1.00  0.00     0.166 HD
HETATM    4  C   UNL     1      48.925 -28.512   3.530  1.00  0.00     0.089 A 
HETATM    5  C   UNL     1      48.611 -29.647   4.262  1.00  0.00     0.018 A 
HETATM    6  C   UNL     1      47.454 -30.356   3.950  1.00  0.00     0.022 A 
HETATM    7  C   UNL     1      46.621 -29.903   2.920  1.00  0.00     0.070 A 
ENDROOT
BRANCH   1   8
HETATM    8  N   UNL     1      46.175 -28.155   1.212  1.00  0.00    -0.274 NA
HETATM    9  H   UNL     1      45.788 -27.245   1.518  1.00  0.00     0.129 HD
BRANCH   8  10
HETATM   10  C   UNL     1      46.840 -27.940  -0.077  1.00  0.00     0.132 C 
BRANCH  10  11
HETATM   11  C   UNL     1      45.972 -28.432  -1.206  1.00  0.00    -0.045 A 
HETATM   12  C   UNL     1      45.150 -29.556  -1.026  1.00  0.00     0.011 A 
HETATM   13  C   UNL     1      44.297 -29.993  -2.043  1.00  0.00     0.037 A 
HETATM   14  C   UNL     1      44.250 -29.309  -3.256  1.00  0.00     0.068 A 
HETATM   15  C   UNL     1      45.079 -28.200  -3.448  1.00  0.00     0.037 A 
HETATM   16  C   UNL     1      45.925 -27.753  -2.430  1.00  0.00     0.011 A 
BRANCH  14  17
HETATM   17  O   UNL     1      43.454 -29.627  -4.319  1.00  0.00    -0.356 OA
HETATM   18  C   UNL     1      44.073 -30.354  -5.377  1.00  0.00     0.210 C 
ENDBRANCH  14  17
ENDBRANCH  10  11
ENDBRANCH   8  10
ENDBRANCH   1   8
BRANCH   7  19
HETATM   19  C   UNL     1      45.388 -30.641   2.523  1.00  0.00     0.259 C 
HETATM   20  N   UNL     1      44.196 -30.194   3.051  1.00  0.00    -0.320 N 
HETATM   21  H   UNL     1      44.180 -29.363   3.634  1.00  0.00     0.169 HD
HETATM   22  O   UNL     1      45.539 -31.609   1.785  1.00  0.00    -0.267 OA
BRANCH  20  23
HETATM   23  C   UNL     1      42.919 -30.808   2.924  1.00  0.00     0.075 A 
HETATM   24  C   UNL     1      41.996 -30.297   2.001  1.00  0.00     0.152 A 
HETATM   25 CL   UNL     1      42.396 -28.958   0.987  1.00  0.00    -0.060 Cl
HETATM   26  N   UNL     1      40.744 -30.762   1.804  1.00  0.00    -0.247 NA
HETATM   27  C   UNL     1      40.371 -31.806   2.571  1.00  0.00     0.118 A 
HETATM   28  C   UNL     1      41.198 -32.395   3.515  1.00  0.00     0.022 A 
HETATM   29  C   UNL     1      42.489 -31.890   3.689  1.00  0.00     0.034 A 
ENDBRANCH  20  23
ENDBRANCH   7  19
TORSDOF 6
ENDMDL
MODEL 8
REMARK VINA RESULT:      -7.1      2.840      6.089
REMARK  6 active torsions:
REMARK  status: ('A' for Active; 'I' for Inactive)
REMARK    1  A    between atoms: O_2  and  C_3 
REMARK    2  A    between atoms: C_6  and  C_7 
REMARK    3  A    between atoms: C_7  and  N_8 
REMARK    4  A    between atoms: N_8  and  C_9 
REMARK    5  A    between atoms: C_15  and  C_16 
REMARK       I    between atoms: C_16  and  N_17 
REMARK    6  A    between atoms: N_17  and  C_18 
ROOT
HETATM    1  C   UNL     1      40.467 -14.584   1.353  1.00  0.00     0.096 A 
HETATM    2  N   UNL     1      40.178 -14.855   0.067  1.00  0.00    -0.356 N 
HETATM    3  H   UNL     1      40.499 -15.751  -0.295  1.00  0.00     0.166 HD
HETATM    4  C   UNL     1      39.559 -13.998  -0.757  1.00  0.00     0.089 A 
HETATM    5  C   UNL     1      39.202 -12.737  -0.304  1.00  0.00     0.018 A 
HETATM    6  C   UNL     1      39.532 -12.366   0.997  1.00  0.00     0.022 A 
HETATM    7  C   UNL     1      40.201 -13.273   1.827  1.00  0.00     0.070 A 
ENDROOT
BRANCH   1   8
HETATM    8  N   UNL     1      41.137 -15.559   2.094  1.00  0.00    -0.274 NA
HETATM    9  H   UNL     1      40.579 -16.431   2.068  1.00  0.00     0.129 HD
BRANCH   8  10
HETATM   10  C   UNL     1      42.507 -15.902   1.700  1.00  0.00     0.132 C 
BRANCH  10  11
HETATM   11  C   UNL     1      43.033 -17.030   2.549  1.00  0.00    -0.045 A 
HETATM   12  C   UNL     1      43.174 -18.317   2.006  1.00  0.00     0.011 A 
HETATM   13  C   UNL     1      43.713 -19.361   2.761  1.00  0.00     0.037 A 
HETATM   14  C   UNL     1      44.122 -19.134   4.073  1.00  0.00     0.068 A 
HETATM   15  C   UNL     1      43.968 -17.860   4.627  1.00  0.00     0.037 A 
HETATM   16  C   UNL     1      43.441 -16.810   3.871  1.00  0.00     0.011 A 
BRANCH  14  17
HETATM   17  O   UNL     1      44.672 -20.065   4.908  1.00  0.00    -0.356 OA
HETATM   18  C   UNL     1      43.809 -20.611   5.902  1.00  0.00     0.210 C 
ENDBRANCH  14  17
ENDBRANCH  10  11
ENDBRANCH   8  10
ENDBRANCH   1   8
BRANCH   7  19
HETATM   19  C   UNL     1      40.608 -12.918   3.216  1.00  0.00     0.259 C 
HETATM   20  N   UNL     1      41.959 -12.801   3.460  1.00  0.00    -0.320 N 
HETATM   21  H   UNL     1      42.622 -12.901   2.698  1.00  0.00     0.169 HD
HETATM   22  O   UNL     1      39.706 -12.792   4.039  1.00  0.00    -0.267 OA
BRANCH  20  23
HETATM   23  C   UNL     1      42.587 -12.601   4.721  1.00  0.00     0.075 A 
HETATM   24  C   UNL     1      42.742 -11.300   5.217  1.00  0.00     0.152 A 
HETATM   25 CL   UNL     1      42.146  -9.935   4.342  1.00  0.00    -0.060 Cl
HETATM   26  N   UNL     1      43.346 -10.968   6.378  1.00  0.00    -0.247 NA
HETATM   27  C   UNL     1      43.836 -11.992   7.105  1.00  0.00     0.118 A 
HETATM   28  C   UNL     1      43.741 -13.320   6.716  1.00  0.00     0.022 A 
HETATM   29  C   UNL     1      43.106 -13.626   5.511  1.00  0.00     0.034 A 
ENDBRANCH  20  23
ENDBRANCH   7  19
TORSDOF 6
ENDMDL
MODEL 9
REMARK VINA RESULT:      -7.1      1.599      2.129
REMARK  6 active torsions:
REMARK  status: ('A' for Active; 'I' for Inactive)
REMARK    1  A    between atoms: O_2  and  C_3 
REMARK    2  A    between atoms: C_6  and  C_7 
REMARK    3  A    between atoms: C_7  and  N_8 
REMARK    4  A    between atoms: N_8  and  C_9 
REMARK    5  A    between atoms: C_15  and  C_16 
REMARK       I    between atoms: C_16  and  N_17 
REMARK    6  A    between atoms: N_17  and  C_18 
ROOT
HETATM    1  C   UNL     1      43.657 -17.922   4.180  1.00  0.00     0.096 A 
HETATM    2  N   UNL     1      44.030 -19.043   4.824  1.00  0.00    -0.356 N 
HETATM    3  H   UNL     1      44.377 -18.930   5.775  1.00  0.00     0.166 HD
HETATM    4  C   UNL     1      44.026 -20.263   4.268  1.00  0.00     0.089 A 
HETATM    5  C   UNL     1      43.646 -20.417   2.943  1.00  0.00     0.018 A 
HETATM    6  C   UNL     1      43.315 -19.289   2.197  1.00  0.00     0.022 A 
HETATM    7  C   UNL     1      43.352 -18.026   2.798  1.00  0.00     0.070 A 
ENDROOT
BRANCH   1   8
HETATM    8  N   UNL     1      43.733 -16.711   4.872  1.00  0.00    -0.274 NA
HETATM    9  H   UNL     1      43.659 -15.938   4.187  1.00  0.00     0.129 HD
BRANCH   8  10
HETATM   10  C   UNL     1      42.749 -16.460   5.929  1.00  0.00     0.132 C 
BRANCH  10  11
HETATM   11  C   UNL     1      42.281 -15.028   5.883  1.00  0.00    -0.045 A 
HETATM   12  C   UNL     1      40.973 -14.726   5.473  1.00  0.00     0.011 A 
HETATM   13  C   UNL     1      40.504 -13.410   5.477  1.00  0.00     0.037 A 
HETATM   14  C   UNL     1      41.336 -12.375   5.898  1.00  0.00     0.068 A 
HETATM   15  C   UNL     1      42.646 -12.666   6.291  1.00  0.00     0.037 A 
HETATM   16  C   UNL     1      43.114 -13.982   6.299  1.00  0.00     0.011 A 
BRANCH  14  17
HETATM   17  O   UNL     1      40.995 -11.054   5.959  1.00  0.00    -0.356 OA
HETATM   18  C   UNL     1      42.069 -10.120   5.914  1.00  0.00     0.210 C 
ENDBRANCH  14  17
ENDBRANCH  10  11
ENDBRANCH   8  10
ENDBRANCH   1   8
BRANCH   7  19
HETATM   19  C   UNL     1      43.039 -16.783   2.038  1.00  0.00     0.259 C 
HETATM   20  N   UNL     1      41.840 -16.164   2.320  1.00  0.00    -0.320 N 
HETATM   21  H   UNL     1      41.244 -16.528   3.056  1.00  0.00     0.169 HD
HETATM   22  O   UNL     1      43.860 -16.429   1.197  1.00  0.00    -0.267 OA
BRANCH  20  23
HETATM   23  C   UNL     1      41.269 -15.053   1.640  1.00  0.00     0.075 A 
HETATM   24  C   UNL     1      41.824 -13.777   1.815  1.00  0.00     0.152 A 
HETATM   25 CL   UNL     1      43.213 -13.538   2.812  1.00  0.00    -0.060 Cl
HETATM   26  N   UNL     1      41.362 -12.637   1.258  1.00  0.00    -0.247 NA
HETATM   27  C   UNL     1      40.274 -12.759   0.471  1.00  0.00     0.118 A 
HETATM   28  C   UNL     1      39.642 -13.968   0.224  1.00  0.00     0.022 A 
HETATM   29  C   UNL     1      40.149 -15.128   0.814  1.00  0.00     0.034 A 
ENDBRANCH  20  23
ENDBRANCH   7  19
TORSDOF 6
ENDMDL
MODEL 10
REMARK VINA RESULT:      -7.0      6.256      8.949
REMARK  6 active torsions:
REMARK  status: ('A' for Active; 'I' for Inactive)
REMARK    1  A    between atoms: O_2  and  C_3 
REMARK    2  A    between atoms: C_6  and  C_7 
REMARK    3  A    between atoms: C_7  and  N_8 
REMARK    4  A    between atoms: N_8  and  C_9 
REMARK    5  A    between atoms: C_15  and  C_16 
REMARK       I    between atoms: C_16  and  N_17 
REMARK    6  A    between atoms: N_17  and  C_18 
ROOT
HETATM    1  C   UNL     1      44.554 -11.291   8.057  1.00  0.00     0.096 A 
HETATM    2  N   UNL     1      45.511 -11.230   7.113  1.00  0.00    -0.356 N 
HETATM    3  H   UNL     1      45.518 -11.977   6.419  1.00  0.00     0.166 HD
HETATM    4  C   UNL     1      46.471 -10.295   7.079  1.00  0.00     0.089 A 
HETATM    5  C   UNL     1      46.531  -9.329   8.073  1.00  0.00     0.018 A 
HETATM    6  C   UNL     1      45.612  -9.374   9.118  1.00  0.00     0.022 A 
HETATM    7  C   UNL     1      44.637 -10.378   9.140  1.00  0.00     0.070 A 
ENDROOT
BRANCH   1   8
HETATM    8  N   UNL     1      43.629 -12.335   7.987  1.00  0.00    -0.274 NA
HETATM    9  H   UNL     1      42.828 -12.103   8.601  1.00  0.00     0.129 HD
BRANCH   8  10
HETATM   10  C   UNL     1      43.087 -12.687   6.670  1.00  0.00     0.132 C 
BRANCH  10  11
HETATM   11  C   UNL     1      43.069 -14.183   6.492  1.00  0.00    -0.045 A 
HETATM   12  C   UNL     1      43.111 -14.741   5.205  1.00  0.00     0.011 A 
HETATM   13  C   UNL     1      43.152 -16.126   5.022  1.00  0.00     0.037 A 
HETATM   14  C   UNL     1      43.156 -16.974   6.126  1.00  0.00     0.068 A 
HETATM   15  C   UNL     1      43.098 -16.427   7.411  1.00  0.00     0.037 A 
HETATM   16  C   UNL     1      43.068 -15.042   7.598  1.00  0.00     0.011 A 
BRANCH  14  17
HETATM   17  O   UNL     1      43.206 -18.339   6.081  1.00  0.00    -0.356 OA
HETATM   18  C   UNL     1      44.054 -18.909   5.089  1.00  0.00     0.210 C 
ENDBRANCH  14  17
ENDBRANCH  10  11
ENDBRANCH   8  10
ENDBRANCH   1   8
BRANCH   7  19
HETATM   19  C   UNL     1      43.650 -10.493  10.251  1.00  0.00     0.259 C 
HETATM   20  N   UNL     1      42.666  -9.531  10.314  1.00  0.00    -0.320 N 
HETATM   21  H   UNL     1      42.605  -8.821   9.591  1.00  0.00     0.169 HD
HETATM   22  O   UNL     1      43.815 -11.417  11.041  1.00  0.00    -0.267 OA
BRANCH  20  23
HETATM   23  C   UNL     1      41.702  -9.357  11.346  1.00  0.00     0.075 A 
HETATM   24  C   UNL     1      42.063  -8.685  12.521  1.00  0.00     0.152 A 
HETATM   25 CL   UNL     1      43.647  -8.026  12.722  1.00  0.00    -0.060 Cl
HETATM   26  N   UNL     1      41.260  -8.481  13.587  1.00  0.00    -0.247 NA
HETATM   27  C   UNL     1      40.010  -8.977  13.492  1.00  0.00     0.118 A 
HETATM   28  C   UNL     1      39.541  -9.658  12.380  1.00  0.00     0.022 A 
HETATM   29  C   UNL     1      40.398  -9.847  11.293  1.00  0.00     0.034 A 
ENDBRANCH  20  23
ENDBRANCH   7  19
TORSDOF 6
ENDMDL
