MODEL 1
REMARK VINA RESULT:      -9.4      0.000      0.000
REMARK  4 active torsions:
REMARK  status: ('A' for Active; 'I' for Inactive)
REMARK       I    between atoms: N_10  and  C_11 
REMARK    1  A    between atoms: C_11  and  C_12 
REMARK    2  A    between atoms: C_12  and  O_13 
REMARK    3  A    between atoms: O_13  and  C_14 
REMARK    4  A    between atoms: C_15  and  C_16 
ROOT
HETATM    1  C   UNL     1      44.159 -20.318   4.833  1.00  0.00     0.001 A 
HETATM    2  C   UNL     1      43.956 -18.967   5.134  1.00  0.00     0.014 A 
HETATM    3  C   UNL     1      43.581 -18.077   4.107  1.00  0.00     0.000 A 
HETATM    4  C   UNL     1      43.426 -18.579   2.811  1.00  0.00     0.043 A 
HETATM    5  N   UNL     1      43.061 -17.525   2.000  1.00  0.00    -0.358 N 
HETATM    6  H   UNL     1      42.888 -17.599   1.007  1.00  0.00     0.166 HD
HETATM    7  C   UNL     1      42.969 -16.389   2.747  1.00  0.00     0.020 A 
HETATM    8  C   UNL     1      43.294 -16.682   4.055  1.00  0.00    -0.005 A 
HETATM    9  C   UNL     1      43.297 -15.670   5.152  1.00  0.00     0.167 C 
HETATM   10  N   UNL     1      42.992 -14.317   4.638  1.00  0.00    -0.346 N 
HETATM   11  C   UNL     1      43.150 -13.179   5.429  1.00  0.00     0.244 C 
HETATM   12  O   UNL     1      42.634 -12.098   5.131  1.00  0.00    -0.271 OA
HETATM   13  C   UNL     1      42.104 -14.210   3.462  1.00  0.00     0.132 C 
HETATM   14  C   UNL     1      42.592 -15.041   2.259  1.00  0.00     0.077 C 
HETATM   15  C   UNL     1      43.628 -19.929   2.495  1.00  0.00     0.030 A 
HETATM   16  C   UNL     1      43.997 -20.789   3.533  1.00  0.00     0.002 A 
ENDROOT
BRANCH  11  17
HETATM   17  C   UNL     1      43.976 -13.295   6.713  1.00  0.00     0.278 C 
BRANCH  17  18
HETATM   18  O   UNL     1      43.679 -12.198   7.568  1.00  0.00    -0.341 OA
BRANCH  18  19
HETATM   19  C   UNL     1      44.668 -11.265   7.741  1.00  0.00     0.077 A 
HETATM   20  C   UNL     1      44.460 -10.309   8.755  1.00  0.00    -0.001 A 
HETATM   21  C   UNL     1      45.456  -9.333   8.970  1.00  0.00     0.012 A 
HETATM   22  C   UNL     1      46.611  -9.296   8.190  1.00  0.00     0.001 A 
HETATM   23  C   UNL     1      46.792 -10.232   7.177  1.00  0.00     0.003 A 
HETATM   24  C   UNL     1      45.824 -11.211   6.951  1.00  0.00     0.037 A 
BRANCH  20  25
HETATM   25  C   UNL     1      43.210 -10.344   9.615  1.00  0.00     0.144 C 
HETATM   26  S   UNL     1      43.593 -10.653  11.374  1.00  0.00    -0.148 SA
HETATM   27  C   UNL     1      42.198  -9.712  12.029  1.00  0.00     0.085 C 
HETATM   28  C   UNL     1      42.132  -8.420  11.240  1.00  0.00     0.085 C 
HETATM   29  S   UNL     1      42.208  -8.814   9.472  1.00  0.00    -0.148 SA
ENDBRANCH  20  25
ENDBRANCH  18  19
ENDBRANCH  17  18
ENDBRANCH  11  17
TORSDOF 4
ENDMDL
MODEL 2
REMARK VINA RESULT:      -9.3      1.112      1.253
REMARK  4 active torsions:
REMARK  status: ('A' for Active; 'I' for Inactive)
REMARK       I    between atoms: N_10  and  C_11 
REMARK    1  A    between atoms: C_11  and  C_12 
REMARK    2  A    between atoms: C_12  and  O_13 
REMARK    3  A    between atoms: O_13  and  C_14 
REMARK    4  A    between atoms: C_15  and  C_16 
ROOT
HETATM    1  C   UNL     1      43.841 -20.138   5.658  1.00  0.00     0.001 A 
HETATM    2  C   UNL     1      43.595 -18.761   5.676  1.00  0.00     0.014 A 
HETATM    3  C   UNL     1      43.518 -18.055   4.459  1.00  0.00     0.000 A 
HETATM    4  C   UNL     1      43.694 -18.760   3.264  1.00  0.00     0.043 A 
HETATM    5  N   UNL     1      43.574 -17.856   2.229  1.00  0.00    -0.358 N 
HETATM    6  H   UNL     1      43.662 -18.091   1.250  1.00  0.00     0.166 HD
HETATM    7  C   UNL     1      43.314 -16.618   2.736  1.00  0.00     0.020 A 
HETATM    8  C   UNL     1      43.283 -16.692   4.113  1.00  0.00    -0.005 A 
HETATM    9  C   UNL     1      43.022 -15.519   4.997  1.00  0.00     0.167 C 
HETATM   10  N   UNL     1      42.888 -14.272   4.213  1.00  0.00    -0.346 N 
HETATM   11  C   UNL     1      42.859 -13.019   4.826  1.00  0.00     0.244 C 
HETATM   12  O   UNL     1      42.461 -12.010   4.236  1.00  0.00    -0.271 OA
HETATM   13  C   UNL     1      42.339 -14.372   2.845  1.00  0.00     0.132 C 
HETATM   14  C   UNL     1      43.105 -15.374   1.958  1.00  0.00     0.077 C 
HETATM   15  C   UNL     1      43.943 -20.138   3.231  1.00  0.00     0.030 A 
HETATM   16  C   UNL     1      44.013 -20.814   4.452  1.00  0.00     0.002 A 
ENDROOT
BRANCH  11  17
HETATM   17  C   UNL     1      43.321 -12.911   6.282  1.00  0.00     0.278 C 
BRANCH  17  18
HETATM   18  O   UNL     1      43.046 -11.605   6.771  1.00  0.00    -0.341 OA
BRANCH  18  19
HETATM   19  C   UNL     1      44.111 -10.887   7.249  1.00  0.00     0.077 A 
HETATM   20  C   UNL     1      43.806  -9.728   7.990  1.00  0.00    -0.001 A 
HETATM   21  C   UNL     1      44.873  -8.963   8.506  1.00  0.00     0.012 A 
HETATM   22  C   UNL     1      46.199  -9.325   8.274  1.00  0.00     0.001 A 
HETATM   23  C   UNL     1      46.485 -10.458   7.521  1.00  0.00     0.003 A 
HETATM   24  C   UNL     1      45.446 -11.236   7.007  1.00  0.00     0.037 A 
BRANCH  20  25
HETATM   25  C   UNL     1      42.366  -9.328   8.255  1.00  0.00     0.144 C 
HETATM   26  S   UNL     1      41.971  -9.315  10.038  1.00  0.00    -0.148 SA
HETATM   27  C   UNL     1      40.740  -7.997   9.939  1.00  0.00     0.085 C 
HETATM   28  C   UNL     1      41.320  -6.922   9.043  1.00  0.00     0.085 C 
HETATM   29  S   UNL     1      41.938  -7.699   7.526  1.00  0.00    -0.148 SA
ENDBRANCH  20  25
ENDBRANCH  18  19
ENDBRANCH  17  18
ENDBRANCH  11  17
TORSDOF 4
ENDMDL
MODEL 3
REMARK VINA RESULT:      -9.2      5.246      8.352
REMARK  4 active torsions:
REMARK  status: ('A' for Active; 'I' for Inactive)
REMARK       I    between atoms: N_10  and  C_11 
REMARK    1  A    between atoms: C_11  and  C_12 
REMARK    2  A    between atoms: C_12  and  O_13 
REMARK    3  A    between atoms: O_13  and  C_14 
REMARK    4  A    between atoms: C_15  and  C_16 
ROOT
HETATM    1  C   UNL     1      43.625 -20.606   2.626  1.00  0.00     0.001 A 
HETATM    2  C   UNL     1      43.208 -19.328   2.237  1.00  0.00     0.014 A 
HETATM    3  C   UNL     1      43.291 -18.262   3.156  1.00  0.00     0.000 A 
HETATM    4  C   UNL     1      43.791 -18.521   4.436  1.00  0.00     0.043 A 
HETATM    5  N   UNL     1      43.771 -17.332   5.136  1.00  0.00    -0.358 N 
HETATM    6  H   UNL     1      44.073 -17.226   6.094  1.00  0.00     0.166 HD
HETATM    7  C   UNL     1      43.293 -16.341   4.332  1.00  0.00     0.020 A 
HETATM    8  C   UNL     1      42.972 -16.875   3.101  1.00  0.00    -0.005 A 
HETATM    9  C   UNL     1      42.420 -16.071   1.972  1.00  0.00     0.167 C 
HETATM   10  N   UNL     1      42.187 -14.666   2.372  1.00  0.00    -0.346 N 
HETATM   11  C   UNL     1      41.477 -13.780   1.562  1.00  0.00     0.244 C 
HETATM   12  O   UNL     1      41.524 -12.558   1.731  1.00  0.00    -0.271 OA
HETATM   13  C   UNL     1      43.078 -14.085   3.399  1.00  0.00     0.132 C 
HETATM   14  C   UNL     1      43.125 -14.914   4.697  1.00  0.00     0.077 C 
HETATM   15  C   UNL     1      44.210 -19.795   4.840  1.00  0.00     0.030 A 
HETATM   16  C   UNL     1      44.118 -20.833   3.908  1.00  0.00     0.002 A 
ENDROOT
BRANCH  11  17
HETATM   17  C   UNL     1      40.634 -14.354   0.421  1.00  0.00     0.278 C 
BRANCH  17  18
HETATM   18  O   UNL     1      40.587 -13.420  -0.650  1.00  0.00    -0.341 OA
BRANCH  18  19
HETATM   19  C   UNL     1      39.505 -13.495  -1.489  1.00  0.00     0.077 A 
HETATM   20  C   UNL     1      38.592 -12.424  -1.435  1.00  0.00    -0.001 A 
HETATM   21  C   UNL     1      37.467 -12.459  -2.285  1.00  0.00     0.012 A 
HETATM   22  C   UNL     1      37.245 -13.533  -3.145  1.00  0.00     0.001 A 
HETATM   23  C   UNL     1      38.142 -14.596  -3.170  1.00  0.00     0.003 A 
HETATM   24  C   UNL     1      39.266 -14.579  -2.343  1.00  0.00     0.037 A 
BRANCH  20  25
HETATM   25  C   UNL     1      38.827 -11.245  -0.508  1.00  0.00     0.144 C 
HETATM   26  S   UNL     1      38.312  -9.663  -1.261  1.00  0.00    -0.148 SA
HETATM   27  C   UNL     1      37.856  -8.865   0.293  1.00  0.00     0.085 C 
HETATM   28  C   UNL     1      37.072  -9.884   1.095  1.00  0.00     0.085 C 
HETATM   29  S   UNL     1      37.996 -11.443   1.115  1.00  0.00    -0.148 SA
ENDBRANCH  20  25
ENDBRANCH  18  19
ENDBRANCH  17  18
ENDBRANCH  11  17
TORSDOF 4
ENDMDL
MODEL 4
REMARK VINA RESULT:      -8.7      4.373      6.665
REMARK  4 active torsions:
REMARK  status: ('A' for Active; 'I' for Inactive)
REMARK       I    between atoms: N_10  and  C_11 
REMARK    1  A    between atoms: C_11  and  C_12 
REMARK    2  A    between atoms: C_12  and  O_13 
REMARK    3  A    between atoms: O_13  and  C_14 
REMARK    4  A    between atoms: C_15  and  C_16 
ROOT
HETATM    1  C   UNL     1      43.897 -19.778   2.375  1.00  0.00     0.001 A 
HETATM    2  C   UNL     1      43.717 -18.451   2.781  1.00  0.00     0.014 A 
HETATM    3  C   UNL     1      43.578 -18.158   4.152  1.00  0.00     0.000 A 
HETATM    4  C   UNL     1      43.624 -19.213   5.069  1.00  0.00     0.043 A 
HETATM    5  N   UNL     1      43.466 -18.674   6.329  1.00  0.00    -0.358 N 
HETATM    6  H   UNL     1      43.453 -19.211   7.185  1.00  0.00     0.166 HD
HETATM    7  C   UNL     1      43.340 -17.320   6.230  1.00  0.00     0.020 A 
HETATM    8  C   UNL     1      43.392 -16.959   4.900  1.00  0.00    -0.005 A 
HETATM    9  C   UNL     1      43.286 -15.550   4.423  1.00  0.00     0.167 C 
HETATM   10  N   UNL     1      43.038 -14.617   5.544  1.00  0.00    -0.346 N 
HETATM   11  C   UNL     1      42.687 -13.285   5.327  1.00  0.00     0.244 C 
HETATM   12  O   UNL     1      42.763 -12.434   6.218  1.00  0.00    -0.271 OA
HETATM   13  C   UNL     1      43.593 -14.968   6.868  1.00  0.00     0.132 C 
HETATM   14  C   UNL     1      43.165 -16.367   7.352  1.00  0.00     0.077 C 
HETATM   15  C   UNL     1      43.801 -20.547   4.678  1.00  0.00     0.030 A 
HETATM   16  C   UNL     1      43.938 -20.808   3.312  1.00  0.00     0.002 A 
ENDROOT
BRANCH  11  17
HETATM   17  C   UNL     1      42.214 -12.876   3.930  1.00  0.00     0.278 C 
BRANCH  17  18
HETATM   18  O   UNL     1      40.854 -13.256   3.760  1.00  0.00    -0.341 OA
BRANCH  18  19
HETATM   19  C   UNL     1      40.512 -13.807   2.552  1.00  0.00     0.077 A 
HETATM   20  C   UNL     1      40.109 -12.909   1.543  1.00  0.00    -0.001 A 
HETATM   21  C   UNL     1      39.754 -13.434   0.283  1.00  0.00     0.012 A 
HETATM   22  C   UNL     1      39.778 -14.807   0.039  1.00  0.00     0.001 A 
HETATM   23  C   UNL     1      40.155 -15.682   1.052  1.00  0.00     0.003 A 
HETATM   24  C   UNL     1      40.518 -15.185   2.305  1.00  0.00     0.037 A 
BRANCH  20  25
HETATM   25  C   UNL     1      40.087 -11.413   1.795  1.00  0.00     0.144 C 
HETATM   26  S   UNL     1      41.402 -10.540   0.875  1.00  0.00    -0.148 SA
HETATM   27  C   UNL     1      40.483  -9.000   0.667  1.00  0.00     0.085 C 
HETATM   28  C   UNL     1      39.074  -9.381   0.261  1.00  0.00     0.085 C 
HETATM   29  S   UNL     1      38.464 -10.653   1.401  1.00  0.00    -0.148 SA
ENDBRANCH  20  25
ENDBRANCH  18  19
ENDBRANCH  17  18
ENDBRANCH  11  17
TORSDOF 4
ENDMDL
MODEL 5
REMARK VINA RESULT:      -8.6      3.281      7.788
REMARK  4 active torsions:
REMARK  status: ('A' for Active; 'I' for Inactive)
REMARK       I    between atoms: N_10  and  C_11 
REMARK    1  A    between atoms: C_11  and  C_12 
REMARK    2  A    between atoms: C_12  and  O_13 
REMARK    3  A    between atoms: O_13  and  C_14 
REMARK    4  A    between atoms: C_15  and  C_16 
ROOT
HETATM    1  C   UNL     1      45.030 -11.501   7.358  1.00  0.00     0.001 A 
HETATM    2  C   UNL     1      44.594 -12.130   6.187  1.00  0.00     0.014 A 
HETATM    3  C   UNL     1      43.377 -11.730   5.597  1.00  0.00     0.000 A 
HETATM    4  C   UNL     1      42.641 -10.711   6.209  1.00  0.00     0.043 A 
HETATM    5  N   UNL     1      41.507 -10.506   5.450  1.00  0.00    -0.358 N 
HETATM    6  H   UNL     1      40.789  -9.829   5.664  1.00  0.00     0.166 HD
HETATM    7  C   UNL     1      41.521 -11.350   4.380  1.00  0.00     0.020 A 
HETATM    8  C   UNL     1      42.654 -12.134   4.438  1.00  0.00    -0.005 A 
HETATM    9  C   UNL     1      42.993 -13.172   3.421  1.00  0.00     0.167 C 
HETATM   10  N   UNL     1      41.924 -13.303   2.407  1.00  0.00    -0.346 N 
HETATM   11  C   UNL     1      41.910 -14.351   1.486  1.00  0.00     0.244 C 
HETATM   12  O   UNL     1      41.213 -14.318   0.467  1.00  0.00    -0.271 OA
HETATM   13  C   UNL     1      41.133 -12.098   2.078  1.00  0.00     0.132 C 
HETATM   14  C   UNL     1      40.492 -11.440   3.316  1.00  0.00     0.077 C 
HETATM   15  C   UNL     1      43.064 -10.074   7.383  1.00  0.00     0.030 A 
HETATM   16  C   UNL     1      44.274 -10.489   7.945  1.00  0.00     0.002 A 
ENDROOT
BRANCH  11  17
HETATM   17  C   UNL     1      42.807 -15.563   1.751  1.00  0.00     0.278 C 
BRANCH  17  18
HETATM   18  O   UNL     1      42.079 -16.539   2.486  1.00  0.00    -0.341 OA
BRANCH  18  19
HETATM   19  C   UNL     1      42.775 -17.644   2.902  1.00  0.00     0.077 A 
HETATM   20  C   UNL     1      43.356 -17.576   4.184  1.00  0.00    -0.001 A 
HETATM   21  C   UNL     1      44.076 -18.694   4.653  1.00  0.00     0.012 A 
HETATM   22  C   UNL     1      44.233 -19.834   3.866  1.00  0.00     0.001 A 
HETATM   23  C   UNL     1      43.675 -19.878   2.593  1.00  0.00     0.003 A 
HETATM   24  C   UNL     1      42.951 -18.787   2.111  1.00  0.00     0.037 A 
BRANCH  20  25
HETATM   25  C   UNL     1      43.185 -16.343   5.052  1.00  0.00     0.144 C 
HETATM   26  S   UNL     1      41.518 -16.246   5.791  1.00  0.00    -0.148 SA
HETATM   27  C   UNL     1      42.037 -15.388   7.292  1.00  0.00     0.085 C 
HETATM   28  C   UNL     1      43.298 -16.074   7.776  1.00  0.00     0.085 C 
HETATM   29  S   UNL     1      44.445 -16.232   6.381  1.00  0.00    -0.148 SA
ENDBRANCH  20  25
ENDBRANCH  18  19
ENDBRANCH  17  18
ENDBRANCH  11  17
TORSDOF 4
ENDMDL
MODEL 6
REMARK VINA RESULT:      -8.6      1.413      1.705
REMARK  4 active torsions:
REMARK  status: ('A' for Active; 'I' for Inactive)
REMARK       I    between atoms: N_10  and  C_11 
REMARK    1  A    between atoms: C_11  and  C_12 
REMARK    2  A    between atoms: C_12  and  O_13 
REMARK    3  A    between atoms: O_13  and  C_14 
REMARK    4  A    between atoms: C_15  and  C_16 
ROOT
HETATM    1  C   UNL     1      43.812 -18.869   5.468  1.00  0.00     0.001 A 
HETATM    2  C   UNL     1      43.253 -17.586   5.458  1.00  0.00     0.014 A 
HETATM    3  C   UNL     1      43.110 -16.902   4.233  1.00  0.00     0.000 A 
HETATM    4  C   UNL     1      43.537 -17.534   3.061  1.00  0.00     0.043 A 
HETATM    5  N   UNL     1      43.293 -16.670   2.013  1.00  0.00    -0.358 N 
HETATM    6  H   UNL     1      43.510 -16.867   1.046  1.00  0.00     0.166 HD
HETATM    7  C   UNL     1      42.715 -15.532   2.490  1.00  0.00     0.020 A 
HETATM    8  C   UNL     1      42.593 -15.628   3.861  1.00  0.00    -0.005 A 
HETATM    9  C   UNL     1      42.000 -14.557   4.713  1.00  0.00     0.167 C 
HETATM   10  N   UNL     1      41.643 -13.365   3.913  1.00  0.00    -0.346 N 
HETATM   11  C   UNL     1      41.277 -12.161   4.514  1.00  0.00     0.244 C 
HETATM   12  O   UNL     1      40.704 -11.264   3.887  1.00  0.00    -0.271 OA
HETATM   13  C   UNL     1      41.241 -13.574   2.507  1.00  0.00     0.132 C 
HETATM   14  C   UNL     1      42.285 -14.360   1.690  1.00  0.00     0.077 C 
HETATM   15  C   UNL     1      44.100 -18.816   3.057  1.00  0.00     0.030 A 
HETATM   16  C   UNL     1      44.228 -19.472   4.284  1.00  0.00     0.002 A 
ENDROOT
BRANCH  11  17
HETATM   17  C   UNL     1      41.586 -11.966   6.000  1.00  0.00     0.278 C 
BRANCH  17  18
HETATM   18  O   UNL     1      42.222 -10.709   6.192  1.00  0.00    -0.341 OA
BRANCH  18  19
HETATM   19  C   UNL     1      43.518 -10.733   6.638  1.00  0.00     0.077 A 
HETATM   20  C   UNL     1      43.790 -10.016   7.820  1.00  0.00    -0.001 A 
HETATM   21  C   UNL     1      45.110 -10.019   8.317  1.00  0.00     0.012 A 
HETATM   22  C   UNL     1      46.131 -10.696   7.650  1.00  0.00     0.001 A 
HETATM   23  C   UNL     1      45.852 -11.379   6.471  1.00  0.00     0.003 A 
HETATM   24  C   UNL     1      44.552 -11.397   5.965  1.00  0.00     0.037 A 
BRANCH  20  25
HETATM   25  C   UNL     1      42.685  -9.282   8.558  1.00  0.00     0.144 C 
HETATM   26  S   UNL     1      42.774  -9.541  10.364  1.00  0.00    -0.148 SA
HETATM   27  C   UNL     1      42.080  -7.934  10.809  1.00  0.00     0.085 C 
HETATM   28  C   UNL     1      42.750  -6.906   9.920  1.00  0.00     0.085 C 
HETATM   29  S   UNL     1      42.670  -7.482   8.203  1.00  0.00    -0.148 SA
ENDBRANCH  20  25
ENDBRANCH  18  19
ENDBRANCH  17  18
ENDBRANCH  11  17
TORSDOF 4
ENDMDL
MODEL 7
REMARK VINA RESULT:      -8.3      4.927      8.087
REMARK  4 active torsions:
REMARK  status: ('A' for Active; 'I' for Inactive)
REMARK       I    between atoms: N_10  and  C_11 
REMARK    1  A    between atoms: C_11  and  C_12 
REMARK    2  A    between atoms: C_12  and  O_13 
REMARK    3  A    between atoms: O_13  and  C_14 
REMARK    4  A    between atoms: C_15  and  C_16 
ROOT
HETATM    1  C   UNL     1      43.269 -18.698   2.265  1.00  0.00     0.001 A 
HETATM    2  C   UNL     1      42.731 -17.424   2.479  1.00  0.00     0.014 A 
HETATM    3  C   UNL     1      43.030 -16.738   3.674  1.00  0.00     0.000 A 
HETATM    4  C   UNL     1      43.859 -17.360   4.613  1.00  0.00     0.043 A 
HETATM    5  N   UNL     1      43.997 -16.496   5.679  1.00  0.00    -0.358 N 
HETATM    6  H   UNL     1      44.541 -16.691   6.508  1.00  0.00     0.166 HD
HETATM    7  C   UNL     1      43.297 -15.353   5.430  1.00  0.00     0.020 A 
HETATM    8  C   UNL     1      42.673 -15.465   4.205  1.00  0.00    -0.005 A 
HETATM    9  C   UNL     1      41.820 -14.393   3.613  1.00  0.00     0.167 C 
HETATM   10  N   UNL     1      41.667 -13.251   4.540  1.00  0.00    -0.346 N 
HETATM   11  C   UNL     1      40.745 -12.232   4.303  1.00  0.00     0.244 C 
HETATM   12  O   UNL     1      40.804 -11.146   4.889  1.00  0.00    -0.271 OA
HETATM   13  C   UNL     1      42.784 -12.957   5.462  1.00  0.00     0.132 C 
HETATM   14  C   UNL     1      43.197 -14.170   6.318  1.00  0.00     0.077 C 
HETATM   15  C   UNL     1      44.403 -18.635   4.412  1.00  0.00     0.030 A 
HETATM   16  C   UNL     1      44.091 -19.292   3.219  1.00  0.00     0.002 A 
ENDROOT
BRANCH  11  17
HETATM   17  C   UNL     1      39.643 -12.474   3.269  1.00  0.00     0.278 C 
BRANCH  17  18
HETATM   18  O   UNL     1      39.927 -11.733   2.090  1.00  0.00    -0.341 OA
BRANCH  18  19
HETATM   19  C   UNL     1      38.855 -11.216   1.410  1.00  0.00     0.077 A 
HETATM   20  C   UNL     1      38.703 -11.624   0.070  1.00  0.00    -0.001 A 
HETATM   21  C   UNL     1      37.609 -11.120  -0.664  1.00  0.00     0.012 A 
HETATM   22  C   UNL     1      36.708 -10.224  -0.091  1.00  0.00     0.001 A 
HETATM   23  C   UNL     1      36.884  -9.811   1.225  1.00  0.00     0.003 A 
HETATM   24  C   UNL     1      37.954 -10.303   1.973  1.00  0.00     0.037 A 
BRANCH  20  25
HETATM   25  C   UNL     1      39.674 -12.606  -0.560  1.00  0.00     0.144 C 
HETATM   26  S   UNL     1      38.845 -13.744  -1.723  1.00  0.00    -0.148 SA
HETATM   27  C   UNL     1      40.267 -13.951  -2.816  1.00  0.00     0.085 C 
HETATM   28  C   UNL     1      40.861 -12.573  -3.029  1.00  0.00     0.085 C 
HETATM   29  S   UNL     1      41.067 -11.773  -1.416  1.00  0.00    -0.148 SA
ENDBRANCH  20  25
ENDBRANCH  18  19
ENDBRANCH  17  18
ENDBRANCH  11  17
TORSDOF 4
ENDMDL
MODEL 8
REMARK VINA RESULT:      -8.2      1.709      2.292
REMARK  4 active torsions:
REMARK  status: ('A' for Active; 'I' for Inactive)
REMARK       I    between atoms: N_10  and  C_11 
REMARK    1  A    between atoms: C_11  and  C_12 
REMARK    2  A    between atoms: C_12  and  O_13 
REMARK    3  A    between atoms: O_13  and  C_14 
REMARK    4  A    between atoms: C_15  and  C_16 
ROOT
HETATM    1  C   UNL     1      43.998 -18.434   4.689  1.00  0.00     0.001 A 
HETATM    2  C   UNL     1      43.651 -17.099   4.928  1.00  0.00     0.014 A 
HETATM    3  C   UNL     1      43.241 -16.286   3.853  1.00  0.00     0.000 A 
HETATM    4  C   UNL     1      43.197 -16.844   2.571  1.00  0.00     0.043 A 
HETATM    5  N   UNL     1      42.772 -15.859   1.705  1.00  0.00    -0.358 N 
HETATM    6  H   UNL     1      42.654 -15.983   0.709  1.00  0.00     0.166 HD
HETATM    7  C   UNL     1      42.534 -14.713   2.404  1.00  0.00     0.020 A 
HETATM    8  C   UNL     1      42.823 -14.929   3.735  1.00  0.00    -0.005 A 
HETATM    9  C   UNL     1      42.675 -13.886   4.791  1.00  0.00     0.167 C 
HETATM   10  N   UNL     1      42.266 -12.587   4.214  1.00  0.00    -0.346 N 
HETATM   11  C   UNL     1      42.275 -11.413   4.967  1.00  0.00     0.244 C 
HETATM   12  O   UNL     1      41.672 -10.398   4.606  1.00  0.00    -0.271 OA
HETATM   13  C   UNL     1      41.429 -12.607   2.996  1.00  0.00     0.132 C 
HETATM   14  C   UNL     1      42.052 -13.426   1.848  1.00  0.00     0.077 C 
HETATM   15  C   UNL     1      43.544 -18.177   2.316  1.00  0.00     0.030 A 
HETATM   16  C   UNL     1      43.945 -18.961   3.401  1.00  0.00     0.002 A 
ENDROOT
BRANCH  11  17
HETATM   17  C   UNL     1      43.045 -11.404   6.290  1.00  0.00     0.278 C 
BRANCH  17  18
HETATM   18  O   UNL     1      42.957 -10.114   6.881  1.00  0.00    -0.341 OA
BRANCH  18  19
HETATM   19  C   UNL     1      43.565  -9.949   8.099  1.00  0.00     0.077 A 
HETATM   20  C   UNL     1      42.778  -9.388   9.124  1.00  0.00    -0.001 A 
HETATM   21  C   UNL     1      43.364  -9.206  10.394  1.00  0.00     0.012 A 
HETATM   22  C   UNL     1      44.694  -9.550  10.632  1.00  0.00     0.001 A 
HETATM   23  C   UNL     1      45.466 -10.080   9.604  1.00  0.00     0.003 A 
HETATM   24  C   UNL     1      44.905 -10.277   8.341  1.00  0.00     0.037 A 
BRANCH  20  25
HETATM   25  C   UNL     1      41.327  -9.017   8.878  1.00  0.00     0.144 C 
HETATM   26  S   UNL     1      40.281  -9.321  10.345  1.00  0.00    -0.148 SA
HETATM   27  C   UNL     1      39.113  -7.986  10.010  1.00  0.00     0.085 C 
HETATM   28  C   UNL     1      39.932  -6.776   9.610  1.00  0.00     0.085 C 
HETATM   29  S   UNL     1      41.123  -7.276   8.338  1.00  0.00    -0.148 SA
ENDBRANCH  20  25
ENDBRANCH  18  19
ENDBRANCH  17  18
ENDBRANCH  11  17
TORSDOF 4
ENDMDL
MODEL 9
REMARK VINA RESULT:      -8.1      5.177      8.294
REMARK  4 active torsions:
REMARK  status: ('A' for Active; 'I' for Inactive)
REMARK       I    between atoms: N_10  and  C_11 
REMARK    1  A    between atoms: C_11  and  C_12 
REMARK    2  A    between atoms: C_12  and  O_13 
REMARK    3  A    between atoms: O_13  and  C_14 
REMARK    4  A    between atoms: C_15  and  C_16 
ROOT
HETATM    1  C   UNL     1      42.043  -8.712  -1.976  1.00  0.00     0.001 A 
HETATM    2  C   UNL     1      41.773  -9.748  -1.075  1.00  0.00     0.014 A 
HETATM    3  C   UNL     1      40.996 -10.847  -1.494  1.00  0.00     0.000 A 
HETATM    4  C   UNL     1      40.516 -10.864  -2.808  1.00  0.00     0.043 A 
HETATM    5  N   UNL     1      39.795 -12.028  -2.970  1.00  0.00    -0.358 N 
HETATM    6  H   UNL     1      39.327 -12.299  -3.824  1.00  0.00     0.166 HD
HETATM    7  C   UNL     1      39.822 -12.743  -1.809  1.00  0.00     0.020 A 
HETATM    8  C   UNL     1      40.545 -12.043  -0.866  1.00  0.00    -0.005 A 
HETATM    9  C   UNL     1      40.779 -12.533   0.524  1.00  0.00     0.167 C 
HETATM   10  N   UNL     1      40.072 -13.808   0.774  1.00  0.00    -0.346 N 
HETATM   11  C   UNL     1      39.961 -14.347   2.055  1.00  0.00     0.244 C 
HETATM   12  O   UNL     1      39.644 -15.525   2.245  1.00  0.00    -0.271 OA
HETATM   13  C   UNL     1      39.880 -14.725  -0.369  1.00  0.00     0.132 C 
HETATM   14  C   UNL     1      39.180 -14.057  -1.569  1.00  0.00     0.077 C 
HETATM   15  C   UNL     1      40.777  -9.833  -3.720  1.00  0.00     0.030 A 
HETATM   16  C   UNL     1      41.551  -8.757  -3.278  1.00  0.00     0.002 A 
ENDROOT
BRANCH  11  17
HETATM   17  C   UNL     1      40.264 -13.443   3.253  1.00  0.00     0.278 C 
BRANCH  17  18
HETATM   18  O   UNL     1      40.553 -14.245   4.391  1.00  0.00    -0.341 OA
BRANCH  18  19
HETATM   19  C   UNL     1      41.628 -13.870   5.154  1.00  0.00     0.077 A 
HETATM   20  C   UNL     1      42.594 -14.863   5.412  1.00  0.00    -0.001 A 
HETATM   21  C   UNL     1      43.719 -14.517   6.190  1.00  0.00     0.012 A 
HETATM   22  C   UNL     1      43.869 -13.233   6.711  1.00  0.00     0.001 A 
HETATM   23  C   UNL     1      42.896 -12.270   6.469  1.00  0.00     0.003 A 
HETATM   24  C   UNL     1      41.778 -12.586   5.696  1.00  0.00     0.037 A 
BRANCH  20  25
HETATM   25  C   UNL     1      42.444 -16.262   4.843  1.00  0.00     0.144 C 
HETATM   26  S   UNL     1      43.158 -16.403   3.167  1.00  0.00    -0.148 SA
HETATM   27  C   UNL     1      43.627 -18.140   3.319  1.00  0.00     0.085 C 
HETATM   28  C   UNL     1      44.262 -18.305   4.685  1.00  0.00     0.085 C 
HETATM   29  S   UNL     1      43.177 -17.549   5.925  1.00  0.00    -0.148 SA
ENDBRANCH  20  25
ENDBRANCH  18  19
ENDBRANCH  17  18
ENDBRANCH  11  17
TORSDOF 4
ENDMDL
MODEL 10
REMARK VINA RESULT:      -8.0      2.734      4.493
REMARK  4 active torsions:
REMARK  status: ('A' for Active; 'I' for Inactive)
REMARK       I    between atoms: N_10  and  C_11 
REMARK    1  A    between atoms: C_11  and  C_12 
REMARK    2  A    between atoms: C_12  and  O_13 
REMARK    3  A    between atoms: O_13  and  C_14 
REMARK    4  A    between atoms: C_15  and  C_16 
ROOT
HETATM    1  C   UNL     1      40.466 -12.425  -1.591  1.00  0.00     0.001 A 
HETATM    2  C   UNL     1      40.965 -12.474  -0.285  1.00  0.00     0.014 A 
HETATM    3  C   UNL     1      40.674 -13.589   0.527  1.00  0.00     0.000 A 
HETATM    4  C   UNL     1      39.888 -14.616  -0.005  1.00  0.00     0.043 A 
HETATM    5  N   UNL     1      39.748 -15.579   0.973  1.00  0.00    -0.358 N 
HETATM    6  H   UNL     1      39.222 -16.434   0.864  1.00  0.00     0.166 HD
HETATM    7  C   UNL     1      40.432 -15.195   2.088  1.00  0.00     0.020 A 
HETATM    8  C   UNL     1      41.011 -13.964   1.860  1.00  0.00    -0.005 A 
HETATM    9  C   UNL     1      41.838 -13.241   2.870  1.00  0.00     0.167 C 
HETATM   10  N   UNL     1      41.882 -13.972   4.155  1.00  0.00    -0.346 N 
HETATM   11  C   UNL     1      42.407 -13.394   5.310  1.00  0.00     0.244 C 
HETATM   12  O   UNL     1      42.719 -14.068   6.297  1.00  0.00    -0.271 OA
HETATM   13  C   UNL     1      41.790 -15.446   4.113  1.00  0.00     0.132 C 
HETATM   14  C   UNL     1      40.546 -15.953   3.357  1.00  0.00     0.077 C 
HETATM   15  C   UNL     1      39.380 -14.579  -1.309  1.00  0.00     0.030 A 
HETATM   16  C   UNL     1      39.685 -13.463  -2.093  1.00  0.00     0.002 A 
ENDROOT
BRANCH  11  17
HETATM   17  C   UNL     1      42.614 -11.877   5.335  1.00  0.00     0.278 C 
BRANCH  17  18
HETATM   18  O   UNL     1      42.655 -11.426   6.683  1.00  0.00    -0.341 OA
BRANCH  18  19
HETATM   19  C   UNL     1      43.830 -10.866   7.113  1.00  0.00     0.077 A 
HETATM   20  C   UNL     1      43.722  -9.691   7.882  1.00  0.00    -0.001 A 
HETATM   21  C   UNL     1      44.908  -9.085   8.349  1.00  0.00     0.012 A 
HETATM   22  C   UNL     1      46.160  -9.618   8.043  1.00  0.00     0.001 A 
HETATM   23  C   UNL     1      46.251 -10.765   7.262  1.00  0.00     0.003 A 
HETATM   24  C   UNL     1      45.092 -11.386   6.796  1.00  0.00     0.037 A 
BRANCH  20  25
HETATM   25  C   UNL     1      42.365  -9.107   8.227  1.00  0.00     0.144 C 
HETATM   26  S   UNL     1      42.218  -8.708  10.004  1.00  0.00    -0.148 SA
HETATM   27  C   UNL     1      41.085  -7.320   9.782  1.00  0.00     0.085 C 
HETATM   28  C   UNL     1      41.614  -6.502   8.622  1.00  0.00     0.085 C 
HETATM   29  S   UNL     1      41.962  -7.617   7.236  1.00  0.00    -0.148 SA
ENDBRANCH  20  25
ENDBRANCH  18  19
ENDBRANCH  17  18
ENDBRANCH  11  17
TORSDOF 4
ENDMDL
