MODEL 1
REMARK VINA RESULT:      -8.8      0.000      0.000
REMARK  8 active torsions:
REMARK  status: ('A' for Active; 'I' for Inactive)
REMARK    1  A    between atoms: O_2  and  C_3 
REMARK    2  A    between atoms: C_3  and  C_4 
REMARK    3  A    between atoms: C_6  and  C_7 
REMARK    4  A    between atoms: C_7  and  N_8 
REMARK    5  A    between atoms: C_17  and  C_18 
REMARK    6  A    between atoms: C_18  and  N_19 
REMARK    7  A    between atoms: C_23  and  O_24 
REMARK    8  A    between atoms: C_23  and  C_25 
ROOT
HETATM    1  N   UNL     1      41.149 -15.472   1.726  1.00  0.00    -0.059 N 
HETATM    2  H   UNL     1      40.683 -16.391   1.778  1.00  0.00     0.280 HD
HETATM    3  C   UNL     1      40.777 -14.791   3.019  1.00  0.00     0.276 C 
HETATM    4  C   UNL     1      41.559 -13.543   3.315  1.00  0.00     0.002 A 
HETATM    5  C   UNL     1      41.473 -12.442   2.463  1.00  0.00     0.076 A 
HETATM    6  O   UNL     1      40.644 -12.458   1.376  1.00  0.00    -0.349 OA
HETATM    7  C   UNL     1      41.115 -13.335   0.343  1.00  0.00     0.203 C 
HETATM    8  C   UNL     1      40.578 -14.764   0.513  1.00  0.00     0.262 C 
HETATM    9  C   UNL     1      42.375 -13.448   4.459  1.00  0.00     0.020 A 
HETATM   10  C   UNL     1      43.086 -12.269   4.753  1.00  0.00    -0.032 A 
HETATM   11  C   UNL     1      42.981 -11.183   3.872  1.00  0.00     0.011 A 
HETATM   12  C   UNL     1      42.162 -11.264   2.743  1.00  0.00     0.038 A 
ENDROOT
BRANCH  10  13
HETATM   13  C   UNL     1      43.943 -12.190   5.996  1.00  0.00     0.273 C 
BRANCH  13  14
HETATM   14  N   UNL     1      44.229 -10.788   6.507  1.00  0.00    -0.067 N 
HETATM   15  H   UNL     1      44.500 -10.227   5.687  1.00  0.00     0.280 HD
HETATM   16  C   UNL     1      43.027 -10.114   7.127  1.00  0.00     0.238 C 
HETATM   17  C   UNL     1      43.403  -8.710   7.566  1.00  0.00     0.071 C 
HETATM   18  C   UNL     1      44.525  -8.723   8.623  1.00  0.00     0.089 C 
HETATM   19  C   UNL     1      45.735  -9.421   7.970  1.00  0.00     0.071 C 
HETATM   20  C   UNL     1      45.418 -10.814   7.447  1.00  0.00     0.238 C 
BRANCH  18  21
HETATM   21  O   UNL     1      44.911  -7.361   8.816  1.00  0.00    -0.385 OA
HETATM   22  H   UNL     1      45.091  -7.193   9.761  1.00  0.00     0.211 HD
ENDBRANCH  18  21
BRANCH  18  23
HETATM   23  C   UNL     1      44.056  -9.280   9.961  1.00  0.00    -0.006 A 
HETATM   24  C   UNL     1      44.372 -10.558  10.417  1.00  0.00     0.126 A 
HETATM   25  N   UNL     1      43.908 -11.104  11.562  1.00  0.00    -0.272 NA
HETATM   26  C   UNL     1      43.153 -10.322  12.360  1.00  0.00     0.116 A 
HETATM   27  C   UNL     1      42.827  -9.018  12.046  1.00  0.00     0.020 A 
HETATM   28  C   UNL     1      43.286  -8.497  10.839  1.00  0.00     0.013 A 
ENDBRANCH  18  23
ENDBRANCH  13  14
ENDBRANCH  10  13
BRANCH   1  29
HETATM   29  C   UNL     1      42.612 -15.836   1.580  1.00  0.00     0.299 C 
BRANCH  29  30
HETATM   30  C   UNL     1      43.056 -16.955   2.446  1.00  0.00     0.079 A 
HETATM   31  O   UNL     1      43.328 -16.649   3.746  1.00  0.00    -0.316 OA
HETATM   32  C   UNL     1      43.654 -17.817   4.378  1.00  0.00     0.077 A 
HETATM   33  C   UNL     1      43.633 -18.857   3.471  1.00  0.00     0.037 A 
HETATM   34  C   UNL     1      43.247 -18.302   2.227  1.00  0.00     0.037 A 
BRANCH  32  35
HETATM   35  C   UNL     1      43.936 -17.754   5.838  1.00  0.00     0.231 C 
BRANCH  35  36
HETATM   36  O   UNL     1      42.824 -17.106   6.449  1.00  0.00    -0.390 OA
HETATM   37  C   UNL     1      43.240 -16.257   7.513  1.00  0.00     0.201 C 
ENDBRANCH  35  36
ENDBRANCH  32  35
ENDBRANCH  29  30
ENDBRANCH   1  29
TORSDOF 8
ENDMDL
MODEL 2
REMARK VINA RESULT:      -8.6      3.373      9.635
REMARK  8 active torsions:
REMARK  status: ('A' for Active; 'I' for Inactive)
REMARK    1  A    between atoms: O_2  and  C_3 
REMARK    2  A    between atoms: C_3  and  C_4 
REMARK    3  A    between atoms: C_6  and  C_7 
REMARK    4  A    between atoms: C_7  and  N_8 
REMARK    5  A    between atoms: C_17  and  C_18 
REMARK    6  A    between atoms: C_18  and  N_19 
REMARK    7  A    between atoms: C_23  and  O_24 
REMARK    8  A    between atoms: C_23  and  C_25 
ROOT
HETATM    1  N   UNL     1      42.492 -13.924   6.841  1.00  0.00    -0.059 N 
HETATM    2  H   UNL     1      42.594 -13.407   7.728  1.00  0.00     0.280 HD
HETATM    3  C   UNL     1      41.067 -13.669   6.420  1.00  0.00     0.276 C 
HETATM    4  C   UNL     1      40.747 -14.085   5.012  1.00  0.00     0.002 A 
HETATM    5  C   UNL     1      40.842 -15.426   4.639  1.00  0.00     0.076 A 
HETATM    6  O   UNL     1      41.178 -16.387   5.551  1.00  0.00    -0.349 OA
HETATM    7  C   UNL     1      42.554 -16.307   5.947  1.00  0.00     0.203 C 
HETATM    8  C   UNL     1      42.750 -15.385   7.160  1.00  0.00     0.262 C 
HETATM    9  C   UNL     1      40.330 -13.145   4.051  1.00  0.00     0.020 A 
HETATM   10  C   UNL     1      40.003 -13.538   2.739  1.00  0.00    -0.032 A 
HETATM   11  C   UNL     1      40.114 -14.893   2.395  1.00  0.00     0.011 A 
HETATM   12  C   UNL     1      40.513 -15.835   3.348  1.00  0.00     0.038 A 
ENDROOT
BRANCH  10  13
HETATM   13  C   UNL     1      39.543 -12.509   1.731  1.00  0.00     0.273 C 
BRANCH  13  14
HETATM   14  N   UNL     1      39.226 -13.045   0.345  1.00  0.00    -0.067 N 
HETATM   15  H   UNL     1      38.909 -14.016   0.472  1.00  0.00     0.280 HD
HETATM   16  C   UNL     1      38.108 -12.301  -0.348  1.00  0.00     0.238 C 
HETATM   17  C   UNL     1      37.841 -12.935  -1.702  1.00  0.00     0.071 C 
HETATM   18  C   UNL     1      39.079 -12.872  -2.617  1.00  0.00     0.089 C 
HETATM   19  C   UNL     1      40.205 -13.629  -1.886  1.00  0.00     0.071 C 
HETATM   20  C   UNL     1      40.489 -13.089  -0.492  1.00  0.00     0.238 C 
BRANCH  18  21
HETATM   21  O   UNL     1      38.765 -13.651  -3.773  1.00  0.00    -0.385 OA
HETATM   22  H   UNL     1      38.202 -14.410  -3.526  1.00  0.00     0.211 HD
ENDBRANCH  18  21
BRANCH  18  23
HETATM   23  C   UNL     1      39.395 -11.453  -3.071  1.00  0.00    -0.006 A 
HETATM   24  C   UNL     1      38.420 -10.491  -3.327  1.00  0.00     0.126 A 
HETATM   25  N   UNL     1      38.669  -9.251  -3.803  1.00  0.00    -0.272 NA
HETATM   26  C   UNL     1      39.959  -8.893  -3.960  1.00  0.00     0.116 A 
HETATM   27  C   UNL     1      41.013  -9.738  -3.677  1.00  0.00     0.020 A 
HETATM   28  C   UNL     1      40.725 -11.024  -3.227  1.00  0.00     0.013 A 
ENDBRANCH  18  23
ENDBRANCH  13  14
ENDBRANCH  10  13
BRANCH   1  29
HETATM   29  C   UNL     1      43.553 -13.302   5.957  1.00  0.00     0.299 C 
BRANCH  29  30
HETATM   30  C   UNL     1      44.346 -12.232   6.608  1.00  0.00     0.079 A 
HETATM   31  O   UNL     1      43.815 -11.683   7.738  1.00  0.00    -0.316 OA
HETATM   32  C   UNL     1      44.721 -10.774   8.210  1.00  0.00     0.077 A 
HETATM   33  C   UNL     1      45.804 -10.711   7.359  1.00  0.00     0.037 A 
HETATM   34  C   UNL     1      45.563 -11.651   6.327  1.00  0.00     0.037 A 
BRANCH  32  35
HETATM   35  C   UNL     1      44.395 -10.077   9.485  1.00  0.00     0.231 C 
BRANCH  35  36
HETATM   36  O   UNL     1      44.419 -11.060  10.515  1.00  0.00    -0.390 OA
HETATM   37  C   UNL     1      43.569 -10.698  11.598  1.00  0.00     0.201 C 
ENDBRANCH  35  36
ENDBRANCH  32  35
ENDBRANCH  29  30
ENDBRANCH   1  29
TORSDOF 8
ENDMDL
MODEL 3
REMARK VINA RESULT:      -8.6      1.843      4.780
REMARK  8 active torsions:
REMARK  status: ('A' for Active; 'I' for Inactive)
REMARK    1  A    between atoms: O_2  and  C_3 
REMARK    2  A    between atoms: C_3  and  C_4 
REMARK    3  A    between atoms: C_6  and  C_7 
REMARK    4  A    between atoms: C_7  and  N_8 
REMARK    5  A    between atoms: C_17  and  C_18 
REMARK    6  A    between atoms: C_18  and  N_19 
REMARK    7  A    between atoms: C_23  and  O_24 
REMARK    8  A    between atoms: C_23  and  C_25 
ROOT
HETATM    1  N   UNL     1      42.463 -15.122   1.342  1.00  0.00    -0.059 N 
HETATM    2  H   UNL     1      42.675 -14.871   0.364  1.00  0.00     0.280 HD
HETATM    3  C   UNL     1      43.246 -14.126   2.162  1.00  0.00     0.276 C 
HETATM    4  C   UNL     1      42.889 -14.101   3.621  1.00  0.00     0.002 A 
HETATM    5  C   UNL     1      43.090 -15.231   4.412  1.00  0.00     0.076 A 
HETATM    6  O   UNL     1      43.656 -16.362   3.891  1.00  0.00    -0.349 OA
HETATM    7  C   UNL     1      42.780 -17.043   2.983  1.00  0.00     0.203 C 
HETATM    8  C   UNL     1      42.950 -16.545   1.539  1.00  0.00     0.262 C 
HETATM    9  C   UNL     1      42.367 -12.940   4.223  1.00  0.00     0.020 A 
HETATM   10  C   UNL     1      42.058 -12.906   5.596  1.00  0.00    -0.032 A 
HETATM   11  C   UNL     1      42.268 -14.062   6.362  1.00  0.00     0.011 A 
HETATM   12  C   UNL     1      42.799 -15.213   5.774  1.00  0.00     0.038 A 
ENDROOT
BRANCH  10  13
HETATM   13  C   UNL     1      41.513 -11.641   6.220  1.00  0.00     0.273 C 
BRANCH  13  14
HETATM   14  N   UNL     1      42.545 -10.578   6.559  1.00  0.00    -0.067 N 
HETATM   15  H   UNL     1      42.891 -10.211   5.661  1.00  0.00     0.280 HD
HETATM   16  C   UNL     1      41.976  -9.408   7.327  1.00  0.00     0.238 C 
HETATM   17  C   UNL     1      43.071  -8.387   7.579  1.00  0.00     0.071 C 
HETATM   18  C   UNL     1      44.222  -8.978   8.417  1.00  0.00     0.089 C 
HETATM   19  C   UNL     1      44.779 -10.173   7.617  1.00  0.00     0.071 C 
HETATM   20  C   UNL     1      43.723 -11.212   7.271  1.00  0.00     0.238 C 
BRANCH  18  21
HETATM   21  O   UNL     1      45.257  -7.993   8.429  1.00  0.00    -0.385 OA
HETATM   22  H   UNL     1      46.123  -8.413   8.266  1.00  0.00     0.211 HD
ENDBRANCH  18  21
BRANCH  18  23
HETATM   23  C   UNL     1      43.810  -9.255   9.857  1.00  0.00    -0.006 A 
HETATM   24  C   UNL     1      43.944 -10.497  10.471  1.00  0.00     0.126 A 
HETATM   25  N   UNL     1      43.517 -10.789  11.719  1.00  0.00    -0.272 NA
HETATM   26  C   UNL     1      43.000  -9.781  12.451  1.00  0.00     0.116 A 
HETATM   27  C   UNL     1      42.877  -8.492  11.972  1.00  0.00     0.020 A 
HETATM   28  C   UNL     1      43.287  -8.231  10.667  1.00  0.00     0.013 A 
ENDBRANCH  18  23
ENDBRANCH  13  14
ENDBRANCH  10  13
BRANCH   1  29
HETATM   29  C   UNL     1      40.957 -14.983   1.415  1.00  0.00     0.299 C 
BRANCH  29  30
HETATM   30  C   UNL     1      40.400 -13.889   0.582  1.00  0.00     0.079 A 
HETATM   31  O   UNL     1      40.563 -14.008  -0.767  1.00  0.00    -0.316 OA
HETATM   32  C   UNL     1      39.930 -12.942  -1.346  1.00  0.00     0.077 A 
HETATM   33  C   UNL     1      39.406 -12.125  -0.367  1.00  0.00     0.037 A 
HETATM   34  C   UNL     1      39.708 -12.735   0.875  1.00  0.00     0.037 A 
BRANCH  32  35
HETATM   35  C   UNL     1      39.913 -12.879  -2.833  1.00  0.00     0.231 C 
BRANCH  35  36
HETATM   36  O   UNL     1      39.651 -14.197  -3.304  1.00  0.00    -0.390 OA
HETATM   37  C   UNL     1      38.253 -14.463  -3.347  1.00  0.00     0.201 C 
ENDBRANCH  35  36
ENDBRANCH  32  35
ENDBRANCH  29  30
ENDBRANCH   1  29
TORSDOF 8
ENDMDL
MODEL 4
REMARK VINA RESULT:      -8.6      2.849      9.087
REMARK  8 active torsions:
REMARK  status: ('A' for Active; 'I' for Inactive)
REMARK    1  A    between atoms: O_2  and  C_3 
REMARK    2  A    between atoms: C_3  and  C_4 
REMARK    3  A    between atoms: C_6  and  C_7 
REMARK    4  A    between atoms: C_7  and  N_8 
REMARK    5  A    between atoms: C_17  and  C_18 
REMARK    6  A    between atoms: C_18  and  N_19 
REMARK    7  A    between atoms: C_23  and  O_24 
REMARK    8  A    between atoms: C_23  and  C_25 
ROOT
HETATM    1  N   UNL     1      42.100 -14.110   6.793  1.00  0.00    -0.059 N 
HETATM    2  H   UNL     1      41.679 -13.628   7.602  1.00  0.00     0.280 HD
HETATM    3  C   UNL     1      40.990 -14.978   6.255  1.00  0.00     0.276 C 
HETATM    4  C   UNL     1      41.262 -15.576   4.904  1.00  0.00     0.002 A 
HETATM    5  C   UNL     1      42.326 -16.461   4.730  1.00  0.00     0.076 A 
HETATM    6  O   UNL     1      43.107 -16.837   5.787  1.00  0.00    -0.349 OA
HETATM    7  C   UNL     1      43.950 -15.773   6.250  1.00  0.00     0.203 C 
HETATM    8  C   UNL     1      43.263 -14.924   7.329  1.00  0.00     0.262 C 
HETATM    9  C   UNL     1      40.447 -15.275   3.796  1.00  0.00     0.020 A 
HETATM   10  C   UNL     1      40.684 -15.856   2.536  1.00  0.00    -0.032 A 
HETATM   11  C   UNL     1      41.765 -16.738   2.394  1.00  0.00     0.011 A 
HETATM   12  C   UNL     1      42.570 -17.053   3.493  1.00  0.00     0.038 A 
ENDROOT
BRANCH  10  13
HETATM   13  C   UNL     1      39.783 -15.527   1.367  1.00  0.00     0.273 C 
BRANCH  13  14
HETATM   14  N   UNL     1      40.395 -14.639   0.296  1.00  0.00    -0.067 N 
HETATM   15  H   UNL     1      41.331 -15.021   0.100  1.00  0.00     0.280 HD
HETATM   16  C   UNL     1      39.630 -14.650  -1.006  1.00  0.00     0.238 C 
HETATM   17  C   UNL     1      40.341 -13.771  -2.019  1.00  0.00     0.071 C 
HETATM   18  C   UNL     1      40.429 -12.307  -1.544  1.00  0.00     0.089 C 
HETATM   19  C   UNL     1      41.205 -12.324  -0.212  1.00  0.00     0.071 C 
HETATM   20  C   UNL     1      40.586 -13.236   0.836  1.00  0.00     0.238 C 
BRANCH  18  21
HETATM   21  O   UNL     1      41.266 -11.629  -2.482  1.00  0.00    -0.385 OA
HETATM   22  H   UNL     1      41.011 -11.865  -3.394  1.00  0.00     0.211 HD
ENDBRANCH  18  21
BRANCH  18  23
HETATM   23  C   UNL     1      39.070 -11.617  -1.532  1.00  0.00    -0.006 A 
HETATM   24  C   UNL     1      38.663 -10.734  -0.535  1.00  0.00     0.126 A 
HETATM   25  N   UNL     1      37.438 -10.170  -0.460  1.00  0.00    -0.272 NA
HETATM   26  C   UNL     1      36.579 -10.414  -1.470  1.00  0.00     0.116 A 
HETATM   27  C   UNL     1      36.892 -11.221  -2.545  1.00  0.00     0.020 A 
HETATM   28  C   UNL     1      38.148 -11.822  -2.574  1.00  0.00     0.013 A 
ENDBRANCH  18  23
ENDBRANCH  13  14
ENDBRANCH  10  13
BRANCH   1  29
HETATM   29  C   UNL     1      42.526 -12.968   5.894  1.00  0.00     0.299 C 
BRANCH  29  30
HETATM   30  C   UNL     1      43.607 -12.120   6.451  1.00  0.00     0.079 A 
HETATM   31  O   UNL     1      43.323 -11.446   7.601  1.00  0.00    -0.316 OA
HETATM   32  C   UNL     1      44.459 -10.784   7.975  1.00  0.00     0.077 A 
HETATM   33  C   UNL     1      45.450 -10.999   7.040  1.00  0.00     0.037 A 
HETATM   34  C   UNL     1      44.903 -11.860   6.059  1.00  0.00     0.037 A 
BRANCH  32  35
HETATM   35  C   UNL     1      44.420 -10.017   9.250  1.00  0.00     0.231 C 
BRANCH  35  36
HETATM   36  O   UNL     1      44.607 -10.953  10.307  1.00  0.00    -0.390 OA
HETATM   37  C   UNL     1      43.694 -10.720  11.374  1.00  0.00     0.201 C 
ENDBRANCH  35  36
ENDBRANCH  32  35
ENDBRANCH  29  30
ENDBRANCH   1  29
TORSDOF 8
ENDMDL
MODEL 5
REMARK VINA RESULT:      -8.3      1.240      1.730
REMARK  8 active torsions:
REMARK  status: ('A' for Active; 'I' for Inactive)
REMARK    1  A    between atoms: O_2  and  C_3 
REMARK    2  A    between atoms: C_3  and  C_4 
REMARK    3  A    between atoms: C_6  and  C_7 
REMARK    4  A    between atoms: C_7  and  N_8 
REMARK    5  A    between atoms: C_17  and  C_18 
REMARK    6  A    between atoms: C_18  and  N_19 
REMARK    7  A    between atoms: C_23  and  O_24 
REMARK    8  A    between atoms: C_23  and  C_25 
ROOT
HETATM    1  N   UNL     1      41.099 -15.470   1.712  1.00  0.00    -0.059 N 
HETATM    2  H   UNL     1      40.630 -16.386   1.777  1.00  0.00     0.280 HD
HETATM    3  C   UNL     1      40.743 -14.775   3.002  1.00  0.00     0.276 C 
HETATM    4  C   UNL     1      41.533 -13.527   3.279  1.00  0.00     0.002 A 
HETATM    5  C   UNL     1      41.443 -12.434   2.417  1.00  0.00     0.076 A 
HETATM    6  O   UNL     1      40.603 -12.457   1.339  1.00  0.00    -0.349 OA
HETATM    7  C   UNL     1      41.061 -13.345   0.309  1.00  0.00     0.203 C 
HETATM    8  C   UNL     1      40.519 -14.770   0.497  1.00  0.00     0.262 C 
HETATM    9  C   UNL     1      42.360 -13.426   4.413  1.00  0.00     0.020 A 
HETATM   10  C   UNL     1      43.079 -12.247   4.689  1.00  0.00    -0.032 A 
HETATM   11  C   UNL     1      42.970 -11.168   3.800  1.00  0.00     0.011 A 
HETATM   12  C   UNL     1      42.139 -11.257   2.679  1.00  0.00     0.038 A 
ENDROOT
BRANCH  10  13
HETATM   13  C   UNL     1      43.948 -12.160   5.923  1.00  0.00     0.273 C 
BRANCH  13  14
HETATM   14  N   UNL     1      44.191 -10.757   6.457  1.00  0.00    -0.067 N 
HETATM   15  H   UNL     1      44.543 -10.200   5.666  1.00  0.00     0.280 HD
HETATM   16  C   UNL     1      42.938 -10.077   6.956  1.00  0.00     0.238 C 
HETATM   17  C   UNL     1      43.277  -8.674   7.427  1.00  0.00     0.071 C 
HETATM   18  C   UNL     1      44.291  -8.689   8.587  1.00  0.00     0.089 C 
HETATM   19  C   UNL     1      45.555  -9.395   8.056  1.00  0.00     0.071 C 
HETATM   20  C   UNL     1      45.283 -10.787   7.508  1.00  0.00     0.238 C 
BRANCH  18  21
HETATM   21  O   UNL     1      44.663  -7.328   8.815  1.00  0.00    -0.385 OA
HETATM   22  H   UNL     1      44.881  -6.893   7.968  1.00  0.00     0.211 HD
ENDBRANCH  18  21
BRANCH  18  23
HETATM   23  C   UNL     1      43.692  -9.241   9.875  1.00  0.00    -0.006 A 
HETATM   24  C   UNL     1      42.512  -8.766  10.441  1.00  0.00     0.126 A 
HETATM   25  N   UNL     1      42.001  -9.183  11.620  1.00  0.00    -0.272 NA
HETATM   26  C   UNL     1      42.636 -10.193  12.249  1.00  0.00     0.116 A 
HETATM   27  C   UNL     1      43.778 -10.788  11.753  1.00  0.00     0.020 A 
HETATM   28  C   UNL     1      44.305 -10.308  10.556  1.00  0.00     0.013 A 
ENDBRANCH  18  23
ENDBRANCH  13  14
ENDBRANCH  10  13
BRANCH   1  29
HETATM   29  C   UNL     1      42.559 -15.841   1.555  1.00  0.00     0.299 C 
BRANCH  29  30
HETATM   30  C   UNL     1      43.057 -16.810   2.560  1.00  0.00     0.079 A 
HETATM   31  O   UNL     1      43.139 -18.112   2.163  1.00  0.00    -0.316 OA
HETATM   32  C   UNL     1      43.675 -18.820   3.204  1.00  0.00     0.077 A 
HETATM   33  C   UNL     1      43.890 -17.979   4.275  1.00  0.00     0.037 A 
HETATM   34  C   UNL     1      43.494 -16.684   3.861  1.00  0.00     0.037 A 
BRANCH  32  35
HETATM   35  C   UNL     1      43.924 -20.272   2.991  1.00  0.00     0.231 C 
BRANCH  35  36
HETATM   36  O   UNL     1      43.457 -20.950   4.153  1.00  0.00    -0.390 OA
HETATM   37  C   UNL     1      44.465 -21.014   5.156  1.00  0.00     0.201 C 
ENDBRANCH  35  36
ENDBRANCH  32  35
ENDBRANCH  29  30
ENDBRANCH   1  29
TORSDOF 8
ENDMDL
MODEL 6
REMARK VINA RESULT:      -8.3      4.625      8.295
REMARK  8 active torsions:
REMARK  status: ('A' for Active; 'I' for Inactive)
REMARK    1  A    between atoms: O_2  and  C_3 
REMARK    2  A    between atoms: C_3  and  C_4 
REMARK    3  A    between atoms: C_6  and  C_7 
REMARK    4  A    between atoms: C_7  and  N_8 
REMARK    5  A    between atoms: C_17  and  C_18 
REMARK    6  A    between atoms: C_18  and  N_19 
REMARK    7  A    between atoms: C_23  and  O_24 
REMARK    8  A    between atoms: C_23  and  C_25 
ROOT
HETATM    1  N   UNL     1      40.088  -9.766  -0.272  1.00  0.00    -0.059 N 
HETATM    2  H   UNL     1      40.536  -8.964   0.196  1.00  0.00     0.280 HD
HETATM    3  C   UNL     1      41.083 -10.890  -0.124  1.00  0.00     0.276 C 
HETATM    4  C   UNL     1      40.548 -12.248  -0.480  1.00  0.00     0.002 A 
HETATM    5  C   UNL     1      40.119 -12.515  -1.780  1.00  0.00     0.076 A 
HETATM    6  O   UNL     1      40.220 -11.568  -2.761  1.00  0.00    -0.349 OA
HETATM    7  C   UNL     1      39.290 -10.491  -2.579  1.00  0.00     0.203 C 
HETATM    8  C   UNL     1      39.880  -9.363  -1.720  1.00  0.00     0.262 C 
HETATM    9  C   UNL     1      40.487 -13.280   0.476  1.00  0.00     0.020 A 
HETATM   10  C   UNL     1      40.012 -14.562   0.137  1.00  0.00    -0.032 A 
HETATM   11  C   UNL     1      39.584 -14.795  -1.178  1.00  0.00     0.011 A 
HETATM   12  C   UNL     1      39.655 -13.779  -2.136  1.00  0.00     0.038 A 
ENDROOT
BRANCH  10  13
HETATM   13  C   UNL     1      39.971 -15.656   1.179  1.00  0.00     0.273 C 
BRANCH  13  14
HETATM   14  N   UNL     1      41.004 -15.544   2.289  1.00  0.00    -0.067 N 
HETATM   15  H   UNL     1      40.935 -14.584   2.656  1.00  0.00     0.280 HD
HETATM   16  C   UNL     1      40.748 -16.481   3.447  1.00  0.00     0.238 C 
HETATM   17  C   UNL     1      41.804 -16.264   4.516  1.00  0.00     0.071 C 
HETATM   18  C   UNL     1      43.222 -16.555   3.987  1.00  0.00     0.089 C 
HETATM   19  C   UNL     1      43.455 -15.595   2.803  1.00  0.00     0.071 C 
HETATM   20  C   UNL     1      42.397 -15.710   1.716  1.00  0.00     0.238 C 
BRANCH  18  21
HETATM   21  O   UNL     1      44.127 -16.144   5.013  1.00  0.00    -0.385 OA
HETATM   22  H   UNL     1      44.313 -15.189   4.936  1.00  0.00     0.211 HD
ENDBRANCH  18  21
BRANCH  18  23
HETATM   23  C   UNL     1      43.449 -18.037   3.716  1.00  0.00    -0.006 A 
HETATM   24  C   UNL     1      43.254 -18.632   2.472  1.00  0.00     0.126 A 
HETATM   25  N   UNL     1      43.374 -19.954   2.224  1.00  0.00    -0.272 NA
HETATM   26  C   UNL     1      43.794 -20.741   3.236  1.00  0.00     0.116 A 
HETATM   27  C   UNL     1      44.080 -20.255   4.496  1.00  0.00     0.020 A 
HETATM   28  C   UNL     1      43.908 -18.894   4.733  1.00  0.00     0.013 A 
ENDBRANCH  18  23
ENDBRANCH  13  14
ENDBRANCH  10  13
BRANCH   1  29
HETATM   29  C   UNL     1      38.795  -9.936   0.499  1.00  0.00     0.299 C 
BRANCH  29  30
HETATM   30  C   UNL     1      38.956  -9.939   1.973  1.00  0.00     0.079 A 
HETATM   31  O   UNL     1      39.086 -11.158   2.570  1.00  0.00    -0.316 OA
HETATM   32  C   UNL     1      39.285 -10.937   3.904  1.00  0.00     0.077 A 
HETATM   33  C   UNL     1      39.235  -9.583   4.163  1.00  0.00     0.037 A 
HETATM   34  C   UNL     1      39.025  -8.940   2.919  1.00  0.00     0.037 A 
BRANCH  32  35
HETATM   35  C   UNL     1      39.518 -12.125   4.770  1.00  0.00     0.231 C 
BRANCH  35  36
HETATM   36  O   UNL     1      40.488 -12.935   4.114  1.00  0.00    -0.390 OA
HETATM   37  C   UNL     1      41.787 -12.733   4.658  1.00  0.00     0.201 C 
ENDBRANCH  35  36
ENDBRANCH  32  35
ENDBRANCH  29  30
ENDBRANCH   1  29
TORSDOF 8
ENDMDL
MODEL 7
REMARK VINA RESULT:      -8.3      2.804     10.141
REMARK  8 active torsions:
REMARK  status: ('A' for Active; 'I' for Inactive)
REMARK    1  A    between atoms: O_2  and  C_3 
REMARK    2  A    between atoms: C_3  and  C_4 
REMARK    3  A    between atoms: C_6  and  C_7 
REMARK    4  A    between atoms: C_7  and  N_8 
REMARK    5  A    between atoms: C_17  and  C_18 
REMARK    6  A    between atoms: C_18  and  N_19 
REMARK    7  A    between atoms: C_23  and  O_24 
REMARK    8  A    between atoms: C_23  and  C_25 
ROOT
HETATM    1  N   UNL     1      43.865  -8.946  11.169  1.00  0.00    -0.059 N 
HETATM    2  H   UNL     1      44.517  -8.846  11.962  1.00  0.00     0.280 HD
HETATM    3  C   UNL     1      44.754  -9.248   9.988  1.00  0.00     0.276 C 
HETATM    4  C   UNL     1      44.025  -9.714   8.760  1.00  0.00     0.002 A 
HETATM    5  C   UNL     1      43.109  -8.873   8.127  1.00  0.00     0.076 A 
HETATM    6  O   UNL     1      42.893  -7.601   8.579  1.00  0.00    -0.349 OA
HETATM    7  C   UNL     1      42.188  -7.577   9.828  1.00  0.00     0.203 C 
HETATM    8  C   UNL     1      43.146  -7.618  11.029  1.00  0.00     0.262 C 
HETATM    9  C   UNL     1      44.261 -10.989   8.213  1.00  0.00     0.020 A 
HETATM   10  C   UNL     1      43.599 -11.416   7.046  1.00  0.00    -0.032 A 
HETATM   11  C   UNL     1      42.681 -10.549   6.437  1.00  0.00     0.011 A 
HETATM   12  C   UNL     1      42.452  -9.275   6.966  1.00  0.00     0.038 A 
ENDROOT
BRANCH  10  13
HETATM   13  C   UNL     1      43.883 -12.785   6.471  1.00  0.00     0.273 C 
BRANCH  13  14
HETATM   14  N   UNL     1      42.668 -13.555   5.979  1.00  0.00    -0.067 N 
HETATM   15  H   UNL     1      41.848 -12.968   6.185  1.00  0.00     0.280 HD
HETATM   16  C   UNL     1      42.674 -13.802   4.488  1.00  0.00     0.238 C 
HETATM   17  C   UNL     1      41.406 -14.536   4.092  1.00  0.00     0.071 C 
HETATM   18  C   UNL     1      41.297 -15.906   4.789  1.00  0.00     0.089 C 
HETATM   19  C   UNL     1      41.301 -15.629   6.306  1.00  0.00     0.071 C 
HETATM   20  C   UNL     1      42.515 -14.838   6.770  1.00  0.00     0.238 C 
BRANCH  18  21
HETATM   21  O   UNL     1      39.995 -16.411   4.483  1.00  0.00    -0.385 OA
HETATM   22  H   UNL     1      40.065 -17.283   4.049  1.00  0.00     0.211 HD
ENDBRANCH  18  21
BRANCH  18  23
HETATM   23  C   UNL     1      42.327 -16.904   4.276  1.00  0.00    -0.006 A 
HETATM   24  C   UNL     1      43.209 -17.595   5.104  1.00  0.00     0.126 A 
HETATM   25  N   UNL     1      44.182 -18.426   4.669  1.00  0.00    -0.272 NA
HETATM   26  C   UNL     1      44.247 -18.666   3.344  1.00  0.00     0.116 A 
HETATM   27  C   UNL     1      43.386 -18.090   2.432  1.00  0.00     0.020 A 
HETATM   28  C   UNL     1      42.419 -17.205   2.905  1.00  0.00     0.013 A 
ENDBRANCH  18  23
ENDBRANCH  13  14
ENDBRANCH  10  13
BRANCH   1  29
HETATM   29  C   UNL     1      42.961 -10.080  11.609  1.00  0.00     0.299 C 
BRANCH  29  30
HETATM   30  C   UNL     1      41.912  -9.687  12.580  1.00  0.00     0.079 A 
HETATM   31  O   UNL     1      42.341  -9.108  13.738  1.00  0.00    -0.316 OA
HETATM   32  C   UNL     1      41.228  -8.768  14.457  1.00  0.00     0.077 A 
HETATM   33  C   UNL     1      40.097  -9.170  13.779  1.00  0.00     0.037 A 
HETATM   34  C   UNL     1      40.537  -9.761  12.569  1.00  0.00     0.037 A 
BRANCH  32  35
HETATM   35  C   UNL     1      41.435  -8.057  15.748  1.00  0.00     0.231 C 
BRANCH  35  36
HETATM   36  O   UNL     1      40.504  -6.980  15.785  1.00  0.00    -0.390 OA
HETATM   37  C   UNL     1      41.089  -5.808  16.343  1.00  0.00     0.201 C 
ENDBRANCH  35  36
ENDBRANCH  32  35
ENDBRANCH  29  30
ENDBRANCH   1  29
TORSDOF 8
ENDMDL
MODEL 8
REMARK VINA RESULT:      -8.2      1.948      3.047
REMARK  8 active torsions:
REMARK  status: ('A' for Active; 'I' for Inactive)
REMARK    1  A    between atoms: O_2  and  C_3 
REMARK    2  A    between atoms: C_3  and  C_4 
REMARK    3  A    between atoms: C_6  and  C_7 
REMARK    4  A    between atoms: C_7  and  N_8 
REMARK    5  A    between atoms: C_17  and  C_18 
REMARK    6  A    between atoms: C_18  and  N_19 
REMARK    7  A    between atoms: C_23  and  O_24 
REMARK    8  A    between atoms: C_23  and  C_25 
ROOT
HETATM    1  N   UNL     1      41.893 -16.147   5.753  1.00  0.00    -0.059 N 
HETATM    2  H   UNL     1      41.368 -16.787   6.368  1.00  0.00     0.280 HD
HETATM    3  C   UNL     1      41.623 -14.776   6.320  1.00  0.00     0.276 C 
HETATM    4  C   UNL     1      42.501 -13.688   5.770  1.00  0.00     0.002 A 
HETATM    5  C   UNL     1      42.455 -13.369   4.413  1.00  0.00     0.076 A 
HETATM    6  O   UNL     1      41.582 -14.001   3.572  1.00  0.00    -0.349 OA
HETATM    7  C   UNL     1      41.949 -15.367   3.330  1.00  0.00     0.203 C 
HETATM    8  C   UNL     1      41.322 -16.320   4.359  1.00  0.00     0.262 C 
HETATM    9  C   UNL     1      43.368 -12.959   6.605  1.00  0.00     0.020 A 
HETATM   10  C   UNL     1      44.170 -11.920   6.096  1.00  0.00    -0.032 A 
HETATM   11  C   UNL     1      44.103 -11.628   4.726  1.00  0.00     0.011 A 
HETATM   12  C   UNL     1      43.234 -12.338   3.893  1.00  0.00     0.038 A 
ENDROOT
BRANCH  10  13
HETATM   13  C   UNL     1      45.081 -11.143   7.019  1.00  0.00     0.273 C 
BRANCH  13  14
HETATM   14  N   UNL     1      44.596  -9.755   7.404  1.00  0.00    -0.067 N 
HETATM   15  H   UNL     1      44.860  -9.128   6.632  1.00  0.00     0.280 HD
HETATM   16  C   UNL     1      43.095  -9.662   7.557  1.00  0.00     0.238 C 
HETATM   17  C   UNL     1      42.709  -8.234   7.899  1.00  0.00     0.071 C 
HETATM   18  C   UNL     1      43.341  -7.773   9.228  1.00  0.00     0.089 C 
HETATM   19  C   UNL     1      44.868  -7.886   9.050  1.00  0.00     0.071 C 
HETATM   20  C   UNL     1      45.327  -9.278   8.643  1.00  0.00     0.238 C 
BRANCH  18  21
HETATM   21  O   UNL     1      43.058  -6.378   9.346  1.00  0.00    -0.385 OA
HETATM   22  H   UNL     1      42.914  -6.141  10.282  1.00  0.00     0.211 HD
ENDBRANCH  18  21
BRANCH  18  23
HETATM   23  C   UNL     1      42.741  -8.485  10.434  1.00  0.00    -0.006 A 
HETATM   24  C   UNL     1      41.396  -8.831  10.534  1.00  0.00     0.126 A 
HETATM   25  N   UNL     1      40.824  -9.392  11.622  1.00  0.00    -0.272 NA
HETATM   26  C   UNL     1      41.633  -9.717  12.651  1.00  0.00     0.116 A 
HETATM   27  C   UNL     1      42.993  -9.483  12.640  1.00  0.00     0.020 A 
HETATM   28  C   UNL     1      43.547  -8.865  11.522  1.00  0.00     0.013 A 
ENDBRANCH  18  23
ENDBRANCH  13  14
ENDBRANCH  10  13
BRANCH   1  29
HETATM   29  C   UNL     1      43.321 -16.636   5.886  1.00  0.00     0.299 C 
BRANCH  29  30
HETATM   30  C   UNL     1      43.468 -18.112   5.870  1.00  0.00     0.079 A 
HETATM   31  O   UNL     1      43.863 -18.673   4.692  1.00  0.00    -0.316 OA
HETATM   32  C   UNL     1      43.998 -20.016   4.908  1.00  0.00     0.077 A 
HETATM   33  C   UNL     1      43.644 -20.315   6.207  1.00  0.00     0.037 A 
HETATM   34  C   UNL     1      43.304 -19.089   6.828  1.00  0.00     0.037 A 
BRANCH  32  35
HETATM   35  C   UNL     1      44.485 -20.849   3.775  1.00  0.00     0.231 C 
BRANCH  35  36
HETATM   36  O   UNL     1      43.380 -21.048   2.898  1.00  0.00    -0.390 OA
HETATM   37  C   UNL     1      43.499 -20.249   1.725  1.00  0.00     0.201 C 
ENDBRANCH  35  36
ENDBRANCH  32  35
ENDBRANCH  29  30
ENDBRANCH   1  29
TORSDOF 8
ENDMDL
MODEL 9
REMARK VINA RESULT:      -8.2      5.814     12.890
REMARK  8 active torsions:
REMARK  status: ('A' for Active; 'I' for Inactive)
REMARK    1  A    between atoms: O_2  and  C_3 
REMARK    2  A    between atoms: C_3  and  C_4 
REMARK    3  A    between atoms: C_6  and  C_7 
REMARK    4  A    between atoms: C_7  and  N_8 
REMARK    5  A    between atoms: C_17  and  C_18 
REMARK    6  A    between atoms: C_18  and  N_19 
REMARK    7  A    between atoms: C_23  and  O_24 
REMARK    8  A    between atoms: C_23  and  C_25 
ROOT
HETATM    1  N   UNL     1      41.106  -6.568  17.442  1.00  0.00    -0.059 N 
HETATM    2  H   UNL     1      41.704  -6.376  18.261  1.00  0.00     0.280 HD
HETATM    3  C   UNL     1      42.024  -6.393  16.259  1.00  0.00     0.276 C 
HETATM    4  C   UNL     1      41.466  -6.889  14.955  1.00  0.00     0.002 A 
HETATM    5  C   UNL     1      40.316  -6.310  14.419  1.00  0.00     0.076 A 
HETATM    6  O   UNL     1      39.706  -5.255  15.039  1.00  0.00    -0.349 OA
HETATM    7  C   UNL     1      39.053  -5.640  16.257  1.00  0.00     0.203 C 
HETATM    8  C   UNL     1      39.992  -5.539  17.468  1.00  0.00     0.262 C 
HETATM    9  C   UNL     1      42.094  -7.927  14.242  1.00  0.00     0.020 A 
HETATM   10  C   UNL     1      41.587  -8.375  13.007  1.00  0.00    -0.032 A 
HETATM   11  C   UNL     1      40.426  -7.774  12.498  1.00  0.00     0.011 A 
HETATM   12  C   UNL     1      39.805  -6.733  13.194  1.00  0.00     0.038 A 
ENDROOT
BRANCH  10  13
HETATM   13  C   UNL     1      42.291  -9.481  12.254  1.00  0.00     0.273 C 
BRANCH  13  14
HETATM   14  N   UNL     1      43.397  -9.034  11.313  1.00  0.00    -0.067 N 
HETATM   15  H   UNL     1      43.933  -8.311  11.814  1.00  0.00     0.280 HD
HETATM   16  C   UNL     1      44.368 -10.136  10.956  1.00  0.00     0.238 C 
HETATM   17  C   UNL     1      45.453  -9.582  10.051  1.00  0.00     0.071 C 
HETATM   18  C   UNL     1      44.873  -9.029   8.734  1.00  0.00     0.089 C 
HETATM   19  C   UNL     1      43.882  -7.914   9.125  1.00  0.00     0.071 C 
HETATM   20  C   UNL     1      42.798  -8.380  10.084  1.00  0.00     0.238 C 
BRANCH  18  21
HETATM   21  O   UNL     1      45.953  -8.380   8.060  1.00  0.00    -0.385 OA
HETATM   22  H   UNL     1      45.856  -7.411   8.123  1.00  0.00     0.211 HD
ENDBRANCH  18  21
BRANCH  18  23
HETATM   23  C   UNL     1      44.338 -10.130   7.828  1.00  0.00    -0.006 A 
HETATM   24  C   UNL     1      43.082 -10.090   7.227  1.00  0.00     0.126 A 
HETATM   25  N   UNL     1      42.553 -11.085   6.482  1.00  0.00    -0.272 NA
HETATM   26  C   UNL     1      43.333 -12.157   6.234  1.00  0.00     0.116 A 
HETATM   27  C   UNL     1      44.618 -12.280   6.721  1.00  0.00     0.020 A 
HETATM   28  C   UNL     1      45.121 -11.256   7.520  1.00  0.00     0.013 A 
ENDBRANCH  18  23
ENDBRANCH  13  14
ENDBRANCH  10  13
BRANCH   1  29
HETATM   29  C   UNL     1      40.627  -7.984  17.690  1.00  0.00     0.299 C 
BRANCH  29  30
HETATM   30  C   UNL     1      40.577  -8.373  19.120  1.00  0.00     0.079 A 
HETATM   31  O   UNL     1      41.774  -8.496  19.761  1.00  0.00    -0.316 OA
HETATM   32  C   UNL     1      41.505  -8.794  21.068  1.00  0.00     0.077 A 
HETATM   33  C   UNL     1      40.142  -8.905  21.248  1.00  0.00     0.037 A 
HETATM   34  C   UNL     1      39.543  -8.632  19.994  1.00  0.00     0.037 A 
BRANCH  32  35
HETATM   35  C   UNL     1      42.661  -8.919  21.997  1.00  0.00     0.231 C 
BRANCH  35  36
HETATM   36  O   UNL     1      43.633  -9.732  21.346  1.00  0.00    -0.390 OA
HETATM   37  C   UNL     1      43.304 -11.113  21.446  1.00  0.00     0.201 C 
ENDBRANCH  35  36
ENDBRANCH  32  35
ENDBRANCH  29  30
ENDBRANCH   1  29
TORSDOF 8
ENDMDL
MODEL 10
REMARK VINA RESULT:      -8.2      2.479      8.625
REMARK  8 active torsions:
REMARK  status: ('A' for Active; 'I' for Inactive)
REMARK    1  A    between atoms: O_2  and  C_3 
REMARK    2  A    between atoms: C_3  and  C_4 
REMARK    3  A    between atoms: C_6  and  C_7 
REMARK    4  A    between atoms: C_7  and  N_8 
REMARK    5  A    between atoms: C_17  and  C_18 
REMARK    6  A    between atoms: C_18  and  N_19 
REMARK    7  A    between atoms: C_23  and  O_24 
REMARK    8  A    between atoms: C_23  and  C_25 
ROOT
HETATM    1  N   UNL     1      41.396  -7.862   8.360  1.00  0.00    -0.059 N 
HETATM    2  H   UNL     1      40.386  -7.728   8.524  1.00  0.00     0.280 HD
HETATM    3  C   UNL     1      41.671  -9.265   8.838  1.00  0.00     0.276 C 
HETATM    4  C   UNL     1      43.018  -9.805   8.450  1.00  0.00     0.002 A 
HETATM    5  C   UNL     1      44.180  -9.191   8.916  1.00  0.00     0.076 A 
HETATM    6  O   UNL     1      44.118  -8.123   9.768  1.00  0.00    -0.349 OA
HETATM    7  C   UNL     1      43.642  -6.935   9.121  1.00  0.00     0.203 C 
HETATM    8  C   UNL     1      42.112  -6.815   9.192  1.00  0.00     0.262 C 
HETATM    9  C   UNL     1      43.138 -10.944   7.631  1.00  0.00     0.020 A 
HETATM   10  C   UNL     1      44.400 -11.467   7.290  1.00  0.00    -0.032 A 
HETATM   11  C   UNL     1      45.549 -10.823   7.771  1.00  0.00     0.011 A 
HETATM   12  C   UNL     1      45.437  -9.700   8.597  1.00  0.00     0.038 A 
ENDROOT
BRANCH  10  13
HETATM   13  C   UNL     1      44.500 -12.700   6.421  1.00  0.00     0.273 C 
BRANCH  13  14
HETATM   14  N   UNL     1      43.197 -13.448   6.191  1.00  0.00    -0.067 N 
HETATM   15  H   UNL     1      42.444 -12.836   6.535  1.00  0.00     0.280 HD
HETATM   16  C   UNL     1      42.911 -13.726   4.733  1.00  0.00     0.238 C 
HETATM   17  C   UNL     1      41.574 -14.435   4.606  1.00  0.00     0.071 C 
HETATM   18  C   UNL     1      41.572 -15.787   5.346  1.00  0.00     0.089 C 
HETATM   19  C   UNL     1      41.874 -15.478   6.826  1.00  0.00     0.071 C 
HETATM   20  C   UNL     1      43.171 -14.711   7.029  1.00  0.00     0.238 C 
BRANCH  18  21
HETATM   21  O   UNL     1      40.226 -16.264   5.308  1.00  0.00    -0.385 OA
HETATM   22  H   UNL     1      39.659 -15.718   5.886  1.00  0.00     0.211 HD
ENDBRANCH  18  21
BRANCH  18  23
HETATM   23  C   UNL     1      42.463 -16.822   4.670  1.00  0.00    -0.006 A 
HETATM   24  C   UNL     1      43.320 -17.672   5.364  1.00  0.00     0.126 A 
HETATM   25  N   UNL     1      44.175 -18.543   4.786  1.00  0.00    -0.272 NA
HETATM   26  C   UNL     1      44.134 -18.655   3.442  1.00  0.00     0.116 A 
HETATM   27  C   UNL     1      43.280 -17.912   2.652  1.00  0.00     0.020 A 
HETATM   28  C   UNL     1      42.439 -16.992   3.274  1.00  0.00     0.013 A 
ENDBRANCH  18  23
ENDBRANCH  13  14
ENDBRANCH  10  13
BRANCH   1  29
HETATM   29  C   UNL     1      41.533  -7.644   6.867  1.00  0.00     0.299 C 
BRANCH  29  30
HETATM   30  C   UNL     1      40.538  -8.375   6.046  1.00  0.00     0.079 A 
HETATM   31  O   UNL     1      41.021  -9.361   5.238  1.00  0.00    -0.316 OA
HETATM   32  C   UNL     1      39.947  -9.944   4.624  1.00  0.00     0.077 A 
HETATM   33  C   UNL     1      38.788  -9.301   5.006  1.00  0.00     0.037 A 
HETATM   34  C   UNL     1      39.168  -8.291   5.923  1.00  0.00     0.037 A 
BRANCH  32  35
HETATM   35  C   UNL     1      40.213 -11.102   3.727  1.00  0.00     0.231 C 
BRANCH  35  36
HETATM   36  O   UNL     1      40.689 -10.573   2.494  1.00  0.00    -0.390 OA
HETATM   37  C   UNL     1      42.040 -10.954   2.254  1.00  0.00     0.201 C 
ENDBRANCH  35  36
ENDBRANCH  32  35
ENDBRANCH  29  30
ENDBRANCH   1  29
TORSDOF 8
ENDMDL
