MODEL 1
REMARK VINA RESULT:      -8.6      0.000      0.000
REMARK  3 active torsions:
REMARK  status: ('A' for Active; 'I' for Inactive)
REMARK    1  A    between atoms: C_3  and  N_4 
REMARK       I    between atoms: N_4  and  C_5 
REMARK    2  A    between atoms: C_5  and  C_6 
REMARK    3  A    between atoms: C_7  and  C_8 
ROOT
HETATM    1  C   UNL     1      41.398 -14.391   5.470  1.00  0.00     0.062 A 
HETATM    2  C   UNL     1      40.393 -13.685   4.566  1.00  0.00     0.199 A 
HETATM    3  N   UNL     1      40.439 -12.237   4.760  1.00  0.00    -0.092 N 
HETATM    4  C   UNL     1      41.247 -11.599   5.659  1.00  0.00     0.735 A 
HETATM    5  N   UNL     1      42.110 -12.323   6.399  1.00  0.00    -0.191 N 
HETATM    6  N   UNL     1      39.573 -11.368   4.218  1.00  0.00     0.012 NA
HETATM    7  N   UNL     1      39.925 -10.189   4.722  1.00  0.00     0.033 NA
HETATM    8  N   UNL     1      40.964 -10.320   5.626  1.00  0.00     0.030 NA
HETATM    9  C   UNL     1      42.206 -13.709   6.319  1.00  0.00     0.037 A 
HETATM   10  C   UNL     1      43.225 -14.351   7.227  1.00  0.00     0.070 C 
HETATM   11  H   UNL     1      42.724 -11.845   7.053  1.00  0.00     0.184 HD
ENDROOT
BRANCH   1  12
HETATM   12  C   UNL     1      41.546 -15.859   5.297  1.00  0.00     0.256 C 
HETATM   13  N   UNL     1      42.732 -16.208   4.689  1.00  0.00    -0.323 N 
HETATM   14  H   UNL     1      43.313 -15.460   4.341  1.00  0.00     0.169 HD
HETATM   15  O   UNL     1      40.648 -16.593   5.684  1.00  0.00    -0.267 OA
BRANCH  13  16
HETATM   16  C   UNL     1      43.228 -17.517   4.464  1.00  0.00     0.041 A 
HETATM   17  C   UNL     1      43.395 -17.963   3.133  1.00  0.00    -0.035 A 
HETATM   18  C   UNL     1      43.072 -17.100   1.942  1.00  0.00     0.050 C 
HETATM   19  C   UNL     1      43.897 -19.256   2.896  1.00  0.00     0.009 A 
HETATM   20  C   UNL     1      44.229 -20.101   3.952  1.00  0.00     0.001 A 
HETATM   21  C   UNL     1      44.068 -19.662   5.259  1.00  0.00     0.002 A 
HETATM   22  C   UNL     1      43.572 -18.380   5.512  1.00  0.00     0.030 A 
ENDBRANCH  13  16
ENDBRANCH   1  12
BRANCH   2  23
HETATM   23  C   UNL     1      40.529 -14.022   3.095  1.00  0.00    -0.011 A 
HETATM   24  C   UNL     1      41.462 -13.345   2.309  1.00  0.00     0.125 A 
HETATM   25  N   UNL     1      41.643 -13.558   0.988  1.00  0.00    -0.272 NA
HETATM   26  C   UNL     1      40.871 -14.504   0.413  1.00  0.00     0.116 A 
HETATM   27  C   UNL     1      39.930 -15.249   1.103  1.00  0.00     0.020 A 
HETATM   28  C   UNL     1      39.761 -15.007   2.463  1.00  0.00     0.012 A 
ENDBRANCH   2  23
TORSDOF 3
ENDMDL
MODEL 2
REMARK VINA RESULT:      -8.4      1.669      3.847
REMARK  3 active torsions:
REMARK  status: ('A' for Active; 'I' for Inactive)
REMARK    1  A    between atoms: C_3  and  N_4 
REMARK       I    between atoms: N_4  and  C_5 
REMARK    2  A    between atoms: C_5  and  C_6 
REMARK    3  A    between atoms: C_7  and  C_8 
ROOT
HETATM    1  C   UNL     1      41.496 -14.455   2.558  1.00  0.00     0.062 A 
HETATM    2  C   UNL     1      41.747 -13.390   3.619  1.00  0.00     0.199 A 
HETATM    3  N   UNL     1      40.618 -12.466   3.713  1.00  0.00    -0.092 N 
HETATM    4  C   UNL     1      39.500 -12.523   2.930  1.00  0.00     0.735 A 
HETATM    5  N   UNL     1      39.376 -13.519   2.030  1.00  0.00    -0.191 N 
HETATM    6  N   UNL     1      40.611 -11.343   4.448  1.00  0.00     0.012 NA
HETATM    7  N   UNL     1      39.441 -10.774   4.174  1.00  0.00     0.033 NA
HETATM    8  N   UNL     1      38.741 -11.497   3.225  1.00  0.00     0.030 NA
HETATM    9  C   UNL     1      40.351 -14.492   1.831  1.00  0.00     0.037 A 
HETATM   10  C   UNL     1      40.043 -15.526   0.777  1.00  0.00     0.070 C 
HETATM   11  H   UNL     1      38.535 -13.571   1.461  1.00  0.00     0.184 HD
ENDROOT
BRANCH   1  12
HETATM   12  C   UNL     1      42.509 -15.535   2.432  1.00  0.00     0.256 C 
HETATM   13  N   UNL     1      42.111 -16.712   3.025  1.00  0.00    -0.323 N 
HETATM   14  H   UNL     1      41.253 -16.698   3.556  1.00  0.00     0.169 HD
HETATM   15  O   UNL     1      43.557 -15.296   1.847  1.00  0.00    -0.267 OA
BRANCH  13  16
HETATM   16  C   UNL     1      42.792 -17.955   3.004  1.00  0.00     0.041 A 
HETATM   17  C   UNL     1      43.733 -18.234   4.021  1.00  0.00    -0.035 A 
HETATM   18  C   UNL     1      44.039 -17.264   5.132  1.00  0.00     0.050 C 
HETATM   19  C   UNL     1      44.408 -19.470   4.019  1.00  0.00     0.009 A 
HETATM   20  C   UNL     1      44.162 -20.418   3.030  1.00  0.00     0.001 A 
HETATM   21  C   UNL     1      43.235 -20.145   2.032  1.00  0.00     0.002 A 
HETATM   22  C   UNL     1      42.556 -18.924   2.021  1.00  0.00     0.030 A 
ENDBRANCH  13  16
ENDBRANCH   1  12
BRANCH   2  23
HETATM   23  C   UNL     1      42.091 -13.940   4.988  1.00  0.00    -0.011 A 
HETATM   24  C   UNL     1      43.298 -13.592   5.596  1.00  0.00     0.125 A 
HETATM   25  N   UNL     1      43.702 -14.046   6.802  1.00  0.00    -0.272 NA
HETATM   26  C   UNL     1      42.863 -14.879   7.451  1.00  0.00     0.116 A 
HETATM   27  C   UNL     1      41.634 -15.273   6.950  1.00  0.00     0.020 A 
HETATM   28  C   UNL     1      41.242 -14.792   5.703  1.00  0.00     0.012 A 
ENDBRANCH   2  23
TORSDOF 3
ENDMDL
MODEL 3
REMARK VINA RESULT:      -8.3      2.178      4.088
REMARK  3 active torsions:
REMARK  status: ('A' for Active; 'I' for Inactive)
REMARK    1  A    between atoms: C_3  and  N_4 
REMARK       I    between atoms: N_4  and  C_5 
REMARK    2  A    between atoms: C_5  and  C_6 
REMARK    3  A    between atoms: C_7  and  C_8 
ROOT
HETATM    1  C   UNL     1      41.572 -13.909   1.845  1.00  0.00     0.062 A 
HETATM    2  C   UNL     1      41.917 -12.451   2.127  1.00  0.00     0.199 A 
HETATM    3  N   UNL     1      40.751 -11.590   1.935  1.00  0.00    -0.092 N 
HETATM    4  C   UNL     1      39.523 -12.025   1.521  1.00  0.00     0.735 A 
HETATM    5  N   UNL     1      39.327 -13.342   1.313  1.00  0.00    -0.191 N 
HETATM    6  N   UNL     1      40.781 -10.249   1.964  1.00  0.00     0.012 NA
HETATM    7  N   UNL     1      39.540  -9.882   1.658  1.00  0.00     0.033 NA
HETATM    8  N   UNL     1      38.748 -10.980   1.373  1.00  0.00     0.030 NA
HETATM    9  C   UNL     1      40.327 -14.296   1.471  1.00  0.00     0.037 A 
HETATM   10  C   UNL     1      39.926 -15.723   1.190  1.00  0.00     0.070 C 
HETATM   11  H   UNL     1      38.408 -13.667   1.023  1.00  0.00     0.184 HD
ENDROOT
BRANCH   1  12
HETATM   12  C   UNL     1      42.631 -14.916   2.113  1.00  0.00     0.256 C 
HETATM   13  N   UNL     1      42.230 -15.890   3.000  1.00  0.00    -0.323 N 
HETATM   14  H   UNL     1      41.332 -15.771   3.445  1.00  0.00     0.169 HD
HETATM   15  O   UNL     1      43.714 -14.798   1.554  1.00  0.00    -0.267 OA
BRANCH  13  16
HETATM   16  C   UNL     1      42.955 -17.042   3.395  1.00  0.00     0.041 A 
HETATM   17  C   UNL     1      43.554 -17.066   4.676  1.00  0.00    -0.035 A 
HETATM   18  C   UNL     1      43.448 -15.915   5.641  1.00  0.00     0.050 C 
HETATM   19  C   UNL     1      44.267 -18.208   5.084  1.00  0.00     0.009 A 
HETATM   20  C   UNL     1      44.391 -19.313   4.245  1.00  0.00     0.001 A 
HETATM   21  C   UNL     1      43.801 -19.291   2.989  1.00  0.00     0.002 A 
HETATM   22  C   UNL     1      43.088 -18.165   2.569  1.00  0.00     0.030 A 
ENDBRANCH  13  16
ENDBRANCH   1  12
BRANCH   2  23
HETATM   23  C   UNL     1      42.531 -12.206   3.490  1.00  0.00    -0.011 A 
HETATM   24  C   UNL     1      43.797 -11.628   3.589  1.00  0.00     0.125 A 
HETATM   25  N   UNL     1      44.437 -11.390   4.754  1.00  0.00    -0.272 NA
HETATM   26  C   UNL     1      43.784 -11.728   5.886  1.00  0.00     0.116 A 
HETATM   27  C   UNL     1      42.519 -12.287   5.904  1.00  0.00     0.020 A 
HETATM   28  C   UNL     1      41.883 -12.525   4.688  1.00  0.00     0.012 A 
ENDBRANCH   2  23
TORSDOF 3
ENDMDL
MODEL 4
REMARK VINA RESULT:      -8.2      1.935      2.493
REMARK  3 active torsions:
REMARK  status: ('A' for Active; 'I' for Inactive)
REMARK    1  A    between atoms: C_3  and  N_4 
REMARK       I    between atoms: N_4  and  C_5 
REMARK    2  A    between atoms: C_5  and  C_6 
REMARK    3  A    between atoms: C_7  and  C_8 
ROOT
HETATM    1  C   UNL     1      41.965 -13.067   3.428  1.00  0.00     0.062 A 
HETATM    2  C   UNL     1      40.557 -12.964   2.853  1.00  0.00     0.199 A 
HETATM    3  N   UNL     1      39.929 -11.698   3.228  1.00  0.00    -0.092 N 
HETATM    4  C   UNL     1      40.508 -10.748   4.022  1.00  0.00     0.735 A 
HETATM    5  N   UNL     1      41.766 -10.939   4.465  1.00  0.00    -0.191 N 
HETATM    6  N   UNL     1      38.644 -11.387   2.997  1.00  0.00     0.012 NA
HETATM    7  N   UNL     1      38.480 -10.200   3.574  1.00  0.00     0.033 NA
HETATM    8  N   UNL     1      39.633  -9.793   4.221  1.00  0.00     0.030 NA
HETATM    9  C   UNL     1      42.511 -12.079   4.180  1.00  0.00     0.037 A 
HETATM   10  C   UNL     1      43.900 -12.121   4.766  1.00  0.00     0.070 C 
HETATM   11  H   UNL     1      42.203 -10.222   5.040  1.00  0.00     0.184 HD
ENDROOT
BRANCH   1  12
HETATM   12  C   UNL     1      42.771 -14.251   3.031  1.00  0.00     0.256 C 
HETATM   13  N   UNL     1      42.444 -15.383   3.745  1.00  0.00    -0.323 N 
HETATM   14  H   UNL     1      41.792 -15.279   4.508  1.00  0.00     0.169 HD
HETATM   15  O   UNL     1      43.613 -14.124   2.153  1.00  0.00    -0.267 OA
BRANCH  13  16
HETATM   16  C   UNL     1      42.949 -16.694   3.551  1.00  0.00     0.041 A 
HETATM   17  C   UNL     1      43.811 -17.243   4.528  1.00  0.00    -0.035 A 
HETATM   18  C   UNL     1      44.212 -16.493   5.770  1.00  0.00     0.050 C 
HETATM   19  C   UNL     1      44.309 -18.548   4.354  1.00  0.00     0.009 A 
HETATM   20  C   UNL     1      43.965 -19.302   3.235  1.00  0.00     0.001 A 
HETATM   21  C   UNL     1      43.116 -18.764   2.277  1.00  0.00     0.002 A 
HETATM   22  C   UNL     1      42.612 -17.470   2.436  1.00  0.00     0.030 A 
ENDBRANCH  13  16
ENDBRANCH   1  12
BRANCH   2  23
HETATM   23  C   UNL     1      40.478 -13.164   1.353  1.00  0.00    -0.011 A 
HETATM   24  C   UNL     1      40.965 -12.181   0.492  1.00  0.00     0.125 A 
HETATM   25  N   UNL     1      40.921 -12.257  -0.855  1.00  0.00    -0.272 NA
HETATM   26  C   UNL     1      40.378 -13.374  -1.383  1.00  0.00     0.116 A 
HETATM   27  C   UNL     1      39.883 -14.419  -0.623  1.00  0.00     0.020 A 
HETATM   28  C   UNL     1      39.938 -14.313   0.764  1.00  0.00     0.012 A 
ENDBRANCH   2  23
TORSDOF 3
ENDMDL
MODEL 5
REMARK VINA RESULT:      -8.0      1.903      2.527
REMARK  3 active torsions:
REMARK  status: ('A' for Active; 'I' for Inactive)
REMARK    1  A    between atoms: C_3  and  N_4 
REMARK       I    between atoms: N_4  and  C_5 
REMARK    2  A    between atoms: C_5  and  C_6 
REMARK    3  A    between atoms: C_7  and  C_8 
ROOT
HETATM    1  C   UNL     1      41.958 -12.879   5.111  1.00  0.00     0.062 A 
HETATM    2  C   UNL     1      40.546 -12.502   4.673  1.00  0.00     0.199 A 
HETATM    3  N   UNL     1      40.019 -11.410   5.489  1.00  0.00    -0.092 N 
HETATM    4  C   UNL     1      40.684 -10.827   6.532  1.00  0.00     0.735 A 
HETATM    5  N   UNL     1      41.936 -11.232   6.822  1.00  0.00    -0.191 N 
HETATM    6  N   UNL     1      38.754 -10.964   5.440  1.00  0.00     0.012 NA
HETATM    7  N   UNL     1      38.689 -10.042   6.396  1.00  0.00     0.033 NA
HETATM    8  N   UNL     1      39.884  -9.951   7.088  1.00  0.00     0.030 NA
HETATM    9  C   UNL     1      42.590 -12.245   6.129  1.00  0.00     0.037 A 
HETATM   10  C   UNL     1      43.987 -12.567   6.598  1.00  0.00     0.070 C 
HETATM   11  H   UNL     1      42.437 -10.784   7.586  1.00  0.00     0.184 HD
ENDROOT
BRANCH   1  12
HETATM   12  C   UNL     1      42.668 -13.898   4.294  1.00  0.00     0.256 C 
HETATM   13  N   UNL     1      42.430 -15.185   4.721  1.00  0.00    -0.323 N 
HETATM   14  H   UNL     1      41.904 -15.301   5.574  1.00  0.00     0.169 HD
HETATM   15  O   UNL     1      43.369 -13.524   3.363  1.00  0.00    -0.267 OA
BRANCH  13  16
HETATM   16  C   UNL     1      42.870 -16.386   4.110  1.00  0.00     0.041 A 
HETATM   17  C   UNL     1      43.884 -17.141   4.743  1.00  0.00    -0.035 A 
HETATM   18  C   UNL     1      44.513 -16.723   6.046  1.00  0.00     0.050 C 
HETATM   19  C   UNL     1      44.321 -18.342   4.154  1.00  0.00     0.009 A 
HETATM   20  C   UNL     1      43.771 -18.794   2.957  1.00  0.00     0.001 A 
HETATM   21  C   UNL     1      42.774 -18.054   2.336  1.00  0.00     0.002 A 
HETATM   22  C   UNL     1      42.327 -16.861   2.910  1.00  0.00     0.030 A 
ENDBRANCH  13  16
ENDBRANCH   1  12
BRANCH   2  23
HETATM   23  C   UNL     1      40.416 -12.167   3.201  1.00  0.00    -0.011 A 
HETATM   24  C   UNL     1      39.667 -12.993   2.363  1.00  0.00     0.125 A 
HETATM   25  N   UNL     1      39.510 -12.791   1.037  1.00  0.00    -0.272 NA
HETATM   26  C   UNL     1      40.114 -11.706   0.511  1.00  0.00     0.116 A 
HETATM   27  C   UNL     1      40.863 -10.810   1.254  1.00  0.00     0.020 A 
HETATM   28  C   UNL     1      41.012 -11.043   2.619  1.00  0.00     0.012 A 
ENDBRANCH   2  23
TORSDOF 3
ENDMDL
MODEL 6
REMARK VINA RESULT:      -7.8      1.985      6.022
REMARK  3 active torsions:
REMARK  status: ('A' for Active; 'I' for Inactive)
REMARK    1  A    between atoms: C_3  and  N_4 
REMARK       I    between atoms: N_4  and  C_5 
REMARK    2  A    between atoms: C_5  and  C_6 
REMARK    3  A    between atoms: C_7  and  C_8 
ROOT
HETATM    1  C   UNL     1      41.592 -15.988   3.865  1.00  0.00     0.062 A 
HETATM    2  C   UNL     1      41.393 -15.598   5.326  1.00  0.00     0.199 A 
HETATM    3  N   UNL     1      42.543 -15.995   6.136  1.00  0.00    -0.092 N 
HETATM    4  C   UNL     1      43.637 -16.661   5.659  1.00  0.00     0.735 A 
HETATM    5  N   UNL     1      43.714 -16.944   4.344  1.00  0.00    -0.191 N 
HETATM    6  N   UNL     1      42.594 -15.920   7.475  1.00  0.00     0.012 NA
HETATM    7  N   UNL     1      43.767 -16.458   7.794  1.00  0.00     0.033 NA
HETATM    8  N   UNL     1      44.424 -16.930   6.671  1.00  0.00     0.030 NA
HETATM    9  C   UNL     1      42.714 -16.616   3.434  1.00  0.00     0.037 A 
HETATM   10  C   UNL     1      42.970 -17.016   2.002  1.00  0.00     0.070 C 
HETATM   11  H   UNL     1      44.537 -17.423   3.988  1.00  0.00     0.184 HD
ENDROOT
BRANCH   1  12
HETATM   12  C   UNL     1      40.553 -15.542   2.901  1.00  0.00     0.256 C 
HETATM   13  N   UNL     1      40.994 -14.537   2.069  1.00  0.00    -0.323 N 
HETATM   14  H   UNL     1      41.904 -14.145   2.256  1.00  0.00     0.169 HD
HETATM   15  O   UNL     1      39.452 -16.076   2.930  1.00  0.00    -0.267 OA
BRANCH  13  16
HETATM   16  C   UNL     1      40.294 -13.957   0.980  1.00  0.00     0.041 A 
HETATM   17  C   UNL     1      39.680 -12.696   1.160  1.00  0.00    -0.035 A 
HETATM   18  C   UNL     1      39.743 -11.941   2.461  1.00  0.00     0.050 C 
HETATM   19  C   UNL     1      38.993 -12.103   0.084  1.00  0.00     0.009 A 
HETATM   20  C   UNL     1      38.909 -12.741  -1.151  1.00  0.00     0.001 A 
HETATM   21  C   UNL     1      39.514 -13.978  -1.328  1.00  0.00     0.002 A 
HETATM   22  C   UNL     1      40.202 -14.579  -0.270  1.00  0.00     0.030 A 
ENDBRANCH  13  16
ENDBRANCH   1  12
BRANCH   2  23
HETATM   23  C   UNL     1      41.077 -14.132   5.545  1.00  0.00    -0.011 A 
HETATM   24  C   UNL     1      39.824 -13.753   6.025  1.00  0.00     0.125 A 
HETATM   25  N   UNL     1      39.441 -12.475   6.232  1.00  0.00    -0.272 NA
HETATM   26  C   UNL     1      40.352 -11.517   5.963  1.00  0.00     0.116 A 
HETATM   27  C   UNL     1      41.630 -11.781   5.502  1.00  0.00     0.020 A 
HETATM   28  C   UNL     1      41.998 -13.108   5.295  1.00  0.00     0.012 A 
ENDBRANCH   2  23
TORSDOF 3
ENDMDL
MODEL 7
REMARK VINA RESULT:      -7.7      2.100      6.089
REMARK  3 active torsions:
REMARK  status: ('A' for Active; 'I' for Inactive)
REMARK    1  A    between atoms: C_3  and  N_4 
REMARK       I    between atoms: N_4  and  C_5 
REMARK    2  A    between atoms: C_5  and  C_6 
REMARK    3  A    between atoms: C_7  and  C_8 
ROOT
HETATM    1  C   UNL     1      43.054 -14.929   4.945  1.00  0.00     0.062 A 
HETATM    2  C   UNL     1      43.214 -15.715   3.648  1.00  0.00     0.199 A 
HETATM    3  N   UNL     1      43.510 -17.121   3.920  1.00  0.00    -0.092 N 
HETATM    4  C   UNL     1      43.663 -17.655   5.169  1.00  0.00     0.735 A 
HETATM    5  N   UNL     1      43.485 -16.868   6.248  1.00  0.00    -0.191 N 
HETATM    6  N   UNL     1      43.848 -18.023   2.986  1.00  0.00     0.012 NA
HETATM    7  N   UNL     1      44.112 -19.130   3.673  1.00  0.00     0.033 NA
HETATM    8  N   UNL     1      44.006 -18.913   5.036  1.00  0.00     0.030 NA
HETATM    9  C   UNL     1      43.179 -15.514   6.162  1.00  0.00     0.037 A 
HETATM   10  C   UNL     1      43.021 -14.790   7.476  1.00  0.00     0.070 C 
HETATM   11  H   UNL     1      43.581 -17.272   7.177  1.00  0.00     0.184 HD
ENDROOT
BRANCH   1  12
HETATM   12  C   UNL     1      42.635 -13.508   4.825  1.00  0.00     0.256 C 
HETATM   13  N   UNL     1      41.346 -13.294   5.260  1.00  0.00    -0.323 N 
HETATM   14  H   UNL     1      40.799 -14.105   5.508  1.00  0.00     0.169 HD
HETATM   15  O   UNL     1      43.427 -12.695   4.370  1.00  0.00    -0.267 OA
BRANCH  13  16
HETATM   16  C   UNL     1      40.674 -12.051   5.372  1.00  0.00     0.041 A 
HETATM   17  C   UNL     1      39.665 -11.734   4.434  1.00  0.00    -0.035 A 
HETATM   18  C   UNL     1      39.271 -12.668   3.320  1.00  0.00     0.050 C 
HETATM   19  C   UNL     1      38.983 -10.508   4.541  1.00  0.00     0.009 A 
HETATM   20  C   UNL     1      39.288  -9.604   5.556  1.00  0.00     0.001 A 
HETATM   21  C   UNL     1      40.277  -9.917   6.479  1.00  0.00     0.002 A 
HETATM   22  C   UNL     1      40.963 -11.131   6.388  1.00  0.00     0.030 A 
ENDBRANCH  13  16
ENDBRANCH   1  12
BRANCH   2  23
HETATM   23  C   UNL     1      42.039 -15.601   2.699  1.00  0.00    -0.011 A 
HETATM   24  C   UNL     1      42.195 -14.957   1.471  1.00  0.00     0.125 A 
HETATM   25  N   UNL     1      41.205 -14.786   0.569  1.00  0.00    -0.272 NA
HETATM   26  C   UNL     1      39.996 -15.291   0.890  1.00  0.00     0.116 A 
HETATM   27  C   UNL     1      39.735 -15.966   2.070  1.00  0.00     0.020 A 
HETATM   28  C   UNL     1      40.773 -16.125   2.984  1.00  0.00     0.012 A 
ENDBRANCH   2  23
TORSDOF 3
ENDMDL
MODEL 8
REMARK VINA RESULT:      -7.7      1.701      4.191
REMARK  3 active torsions:
REMARK  status: ('A' for Active; 'I' for Inactive)
REMARK    1  A    between atoms: C_3  and  N_4 
REMARK       I    between atoms: N_4  and  C_5 
REMARK    2  A    between atoms: C_5  and  C_6 
REMARK    3  A    between atoms: C_7  and  C_8 
ROOT
HETATM    1  C   UNL     1      41.218 -14.108   2.076  1.00  0.00     0.062 A 
HETATM    2  C   UNL     1      41.810 -12.773   2.515  1.00  0.00     0.199 A 
HETATM    3  N   UNL     1      41.628 -11.754   1.483  1.00  0.00    -0.092 N 
HETATM    4  C   UNL     1      41.040 -11.974   0.269  1.00  0.00     0.735 A 
HETATM    5  N   UNL     1      40.538 -13.193  -0.008  1.00  0.00    -0.191 N 
HETATM    6  N   UNL     1      42.172 -10.528   1.518  1.00  0.00     0.012 NA
HETATM    7  N   UNL     1      41.827  -9.978   0.358  1.00  0.00     0.033 NA
HETATM    8  N   UNL     1      41.126 -10.871  -0.432  1.00  0.00     0.030 NA
HETATM    9  C   UNL     1      40.611 -14.267   0.874  1.00  0.00     0.037 A 
HETATM   10  C   UNL     1      39.998 -15.558   0.392  1.00  0.00     0.070 C 
HETATM   11  H   UNL     1      40.084 -13.350  -0.905  1.00  0.00     0.184 HD
ENDROOT
BRANCH   1  12
HETATM   12  C   UNL     1      41.225 -15.210   3.074  1.00  0.00     0.256 C 
HETATM   13  N   UNL     1      42.496 -15.629   3.397  1.00  0.00    -0.323 N 
HETATM   14  H   UNL     1      43.263 -15.238   2.870  1.00  0.00     0.169 HD
HETATM   15  O   UNL     1      40.157 -15.630   3.497  1.00  0.00    -0.267 OA
BRANCH  13  16
HETATM   16  C   UNL     1      42.860 -16.586   4.378  1.00  0.00     0.041 A 
HETATM   17  C   UNL     1      43.422 -17.813   3.957  1.00  0.00    -0.035 A 
HETATM   18  C   UNL     1      43.654 -18.144   2.507  1.00  0.00     0.050 C 
HETATM   19  C   UNL     1      43.799 -18.767   4.922  1.00  0.00     0.009 A 
HETATM   20  C   UNL     1      43.625 -18.518   6.281  1.00  0.00     0.001 A 
HETATM   21  C   UNL     1      43.076 -17.312   6.694  1.00  0.00     0.002 A 
HETATM   22  C   UNL     1      42.698 -16.354   5.749  1.00  0.00     0.030 A 
ENDBRANCH  13  16
ENDBRANCH   1  12
BRANCH   2  23
HETATM   23  C   UNL     1      41.295 -12.268   3.848  1.00  0.00    -0.011 A 
HETATM   24  C   UNL     1      39.948 -11.941   3.995  1.00  0.00     0.125 A 
HETATM   25  N   UNL     1      39.399 -11.464   5.133  1.00  0.00    -0.272 NA
HETATM   26  C   UNL     1      40.224 -11.316   6.190  1.00  0.00     0.116 A 
HETATM   27  C   UNL     1      41.572 -11.629   6.160  1.00  0.00     0.020 A 
HETATM   28  C   UNL     1      42.113 -12.116   4.973  1.00  0.00     0.012 A 
ENDBRANCH   2  23
TORSDOF 3
ENDMDL
MODEL 9
REMARK VINA RESULT:      -7.6      1.261      2.150
REMARK  3 active torsions:
REMARK  status: ('A' for Active; 'I' for Inactive)
REMARK    1  A    between atoms: C_3  and  N_4 
REMARK       I    between atoms: N_4  and  C_5 
REMARK    2  A    between atoms: C_5  and  C_6 
REMARK    3  A    between atoms: C_7  and  C_8 
ROOT
HETATM    1  C   UNL     1      42.492 -14.878   5.617  1.00  0.00     0.062 A 
HETATM    2  C   UNL     1      41.549 -13.770   5.160  1.00  0.00     0.199 A 
HETATM    3  N   UNL     1      41.987 -12.468   5.661  1.00  0.00    -0.092 N 
HETATM    4  C   UNL     1      43.075 -12.270   6.464  1.00  0.00     0.735 A 
HETATM    5  N   UNL     1      43.849 -13.322   6.795  1.00  0.00    -0.191 N 
HETATM    6  N   UNL     1      41.281 -11.332   5.550  1.00  0.00     0.012 NA
HETATM    7  N   UNL     1      41.999 -10.429   6.209  1.00  0.00     0.033 NA
HETATM    8  N   UNL     1      43.117 -11.002   6.789  1.00  0.00     0.030 NA
HETATM    9  C   UNL     1      43.582 -14.625   6.384  1.00  0.00     0.037 A 
HETATM   10  C   UNL     1      44.555 -15.676   6.856  1.00  0.00     0.070 C 
HETATM   11  H   UNL     1      44.669 -13.170   7.377  1.00  0.00     0.184 HD
ENDROOT
BRANCH   1  12
HETATM   12  C   UNL     1      42.238 -16.242   5.086  1.00  0.00     0.256 C 
HETATM   13  N   UNL     1      43.304 -16.743   4.372  1.00  0.00    -0.323 N 
HETATM   14  H   UNL     1      44.079 -16.122   4.197  1.00  0.00     0.169 HD
HETATM   15  O   UNL     1      41.160 -16.773   5.313  1.00  0.00    -0.267 OA
BRANCH  13  16
HETATM   16  C   UNL     1      43.429 -18.043   3.818  1.00  0.00     0.041 A 
HETATM   17  C   UNL     1      43.676 -19.132   4.684  1.00  0.00    -0.035 A 
HETATM   18  C   UNL     1      43.808 -18.969   6.175  1.00  0.00     0.050 C 
HETATM   19  C   UNL     1      43.790 -20.429   4.148  1.00  0.00     0.009 A 
HETATM   20  C   UNL     1      43.665 -20.651   2.780  1.00  0.00     0.001 A 
HETATM   21  C   UNL     1      43.419 -19.582   1.929  1.00  0.00     0.002 A 
HETATM   22  C   UNL     1      43.301 -18.288   2.446  1.00  0.00     0.030 A 
ENDBRANCH  13  16
ENDBRANCH   1  12
BRANCH   2  23
HETATM   23  C   UNL     1      41.333 -13.711   3.662  1.00  0.00    -0.011 A 
HETATM   24  C   UNL     1      40.057 -13.903   3.134  1.00  0.00     0.125 A 
HETATM   25  N   UNL     1      39.768 -13.890   1.815  1.00  0.00    -0.272 NA
HETATM   26  C   UNL     1      40.794 -13.661   0.970  1.00  0.00     0.116 A 
HETATM   27  C   UNL     1      42.095 -13.436   1.386  1.00  0.00     0.020 A 
HETATM   28  C   UNL     1      42.366 -13.458   2.752  1.00  0.00     0.012 A 
ENDBRANCH   2  23
TORSDOF 3
ENDMDL
MODEL 10
REMARK VINA RESULT:      -7.5      1.654      2.080
REMARK  3 active torsions:
REMARK  status: ('A' for Active; 'I' for Inactive)
REMARK    1  A    between atoms: C_3  and  N_4 
REMARK       I    between atoms: N_4  and  C_5 
REMARK    2  A    between atoms: C_5  and  C_6 
REMARK    3  A    between atoms: C_7  and  C_8 
ROOT
HETATM    1  C   UNL     1      41.940 -12.634   5.755  1.00  0.00     0.062 A 
HETATM    2  C   UNL     1      40.787 -11.782   5.235  1.00  0.00     0.199 A 
HETATM    3  N   UNL     1      41.004 -10.368   5.531  1.00  0.00    -0.092 N 
HETATM    4  C   UNL     1      42.077  -9.873   6.218  1.00  0.00     0.735 A 
HETATM    5  N   UNL     1      43.047 -10.718   6.620  1.00  0.00    -0.191 N 
HETATM    6  N   UNL     1      40.097  -9.399   5.331  1.00  0.00     0.012 NA
HETATM    7  N   UNL     1      40.671  -8.301   5.814  1.00  0.00     0.033 NA
HETATM    8  N   UNL     1      41.903  -8.584   6.375  1.00  0.00     0.030 NA
HETATM    9  C   UNL     1      43.003 -12.091   6.399  1.00  0.00     0.037 A 
HETATM   10  C   UNL     1      44.175 -12.880   6.925  1.00  0.00     0.070 C 
HETATM   11  H   UNL     1      43.855 -10.346   7.115  1.00  0.00     0.184 HD
ENDROOT
BRANCH   1  12
HETATM   12  C   UNL     1      41.913 -14.082   5.422  1.00  0.00     0.256 C 
HETATM   13  N   UNL     1      42.854 -14.430   4.480  1.00  0.00    -0.323 N 
HETATM   14  H   UNL     1      43.378 -13.683   4.048  1.00  0.00     0.169 HD
HETATM   15  O   UNL     1      41.097 -14.801   5.982  1.00  0.00    -0.267 OA
BRANCH  13  16
HETATM   16  C   UNL     1      43.159 -15.734   4.014  1.00  0.00     0.041 A 
HETATM   17  C   UNL     1      42.899 -16.052   2.661  1.00  0.00    -0.035 A 
HETATM   18  C   UNL     1      42.314 -15.059   1.692  1.00  0.00     0.050 C 
HETATM   19  C   UNL     1      43.208 -17.339   2.182  1.00  0.00     0.009 A 
HETATM   20  C   UNL     1      43.764 -18.301   3.021  1.00  0.00     0.001 A 
HETATM   21  C   UNL     1      44.023 -17.988   4.349  1.00  0.00     0.002 A 
HETATM   22  C   UNL     1      43.723 -16.713   4.839  1.00  0.00     0.030 A 
ENDBRANCH  13  16
ENDBRANCH   1  12
BRANCH   2  23
HETATM   23  C   UNL     1      40.487 -11.970   3.761  1.00  0.00    -0.011 A 
HETATM   24  C   UNL     1      41.362 -11.460   2.802  1.00  0.00     0.125 A 
HETATM   25  N   UNL     1      41.171 -11.558   1.469  1.00  0.00    -0.272 NA
HETATM   26  C   UNL     1      40.061 -12.206   1.059  1.00  0.00     0.116 A 
HETATM   27  C   UNL     1      39.138 -12.767   1.923  1.00  0.00     0.020 A 
HETATM   28  C   UNL     1      39.357 -12.650   3.293  1.00  0.00     0.012 A 
ENDBRANCH   2  23
TORSDOF 3
ENDMDL
