MODEL 1
REMARK VINA RESULT:      -9.3      0.000      0.000
REMARK  7 active torsions:
REMARK  status: ('A' for Active; 'I' for Inactive)
REMARK    1  A    between atoms: C_2  and  C_3 
REMARK    2  A    between atoms: N_4  and  C_5 
REMARK    3  A    between atoms: C_13  and  C_14 
REMARK       I    between atoms: C_14  and  N_15 
REMARK    4  A    between atoms: N_15  and  N_16 
REMARK       I    between atoms: N_16  and  C_17 
REMARK    5  A    between atoms: C_17  and  C_18 
REMARK    6  A    between atoms: C_22  and  C_23 
REMARK    7  A    between atoms: C_26  and  O_27 
ROOT
HETATM    1  N   UNL     1      43.289 -11.826   7.606  1.00  0.00    -0.262 N 
HETATM    2  C   UNL     1      44.296 -11.068   8.161  1.00  0.00     0.288 C 
HETATM    3  O   UNL     1      45.482 -11.357   8.018  1.00  0.00    -0.264 OA
HETATM    4  H   UNL     1      42.308 -11.557   7.626  1.00  0.00     0.190 HD
ENDROOT
BRANCH   1   5
HETATM    5  N   UNL     1      43.607 -12.937   6.812  1.00  0.00    -0.263 N 
HETATM    6  C   UNL     1      42.601 -13.478   6.041  1.00  0.00     0.273 C 
HETATM    7  O   UNL     1      41.462 -13.007   6.076  1.00  0.00    -0.266 OA
HETATM    8  H   UNL     1      44.592 -13.134   6.678  1.00  0.00     0.190 HD
BRANCH   6   9
HETATM    9  C   UNL     1      42.936 -14.597   5.175  1.00  0.00     0.077 A 
HETATM   10  C   UNL     1      43.077 -15.971   5.408  1.00  0.00     0.053 A 
HETATM   11  N   UNL     1      43.304 -16.561   4.146  1.00  0.00    -0.237 N 
HETATM   12  N   UNL     1      43.347 -15.607   3.177  1.00  0.00    -0.178 NA
HETATM   13  C   UNL     1      43.115 -14.458   3.790  1.00  0.00     0.158 A 
BRANCH  10  14
HETATM   14  C   UNL     1      42.889 -16.723   6.689  1.00  0.00     0.056 C 
HETATM   15  C   UNL     1      44.146 -16.711   7.552  1.00  0.00     0.011 C 
ENDBRANCH  10  14
BRANCH  11  16
HETATM   16  C   UNL     1      43.454 -17.928   3.720  1.00  0.00     0.058 A 
HETATM   17  C   UNL     1      44.025 -18.938   4.498  1.00  0.00     0.031 A 
HETATM   18  C   UNL     1      44.115 -20.251   4.015  1.00  0.00     0.002 A 
HETATM   19  C   UNL     1      43.642 -20.576   2.748  1.00  0.00     0.000 A 
HETATM   20  C   UNL     1      43.085 -19.584   1.951  1.00  0.00     0.002 A 
HETATM   21  C   UNL     1      42.997 -18.273   2.429  1.00  0.00     0.031 A 
ENDBRANCH  11  16
ENDBRANCH   6   9
ENDBRANCH   1   5
BRANCH   2  22
HETATM   22  C   UNL     1      43.850  -9.923   8.905  1.00  0.00     0.121 A 
HETATM   23  N   UNL     1      43.474  -8.757   8.299  1.00  0.00    -0.272 N 
HETATM   24  H   UNL     1      43.468  -8.560   7.303  1.00  0.00     0.189 HD
HETATM   25  N   UNL     1      43.067  -7.801   9.149  1.00  0.00    -0.174 NA
HETATM   26  C   UNL     1      43.204  -8.348  10.368  1.00  0.00     0.089 A 
HETATM   27  C   UNL     1      43.690  -9.680  10.255  1.00  0.00     0.071 A 
BRANCH  26  28
HETATM   28  C   UNL     1      42.863  -7.619  11.593  1.00  0.00    -0.005 A 
HETATM   29  C   UNL     1      42.126  -6.431  11.535  1.00  0.00     0.016 A 
HETATM   30  C   UNL     1      41.773  -5.754  12.707  1.00  0.00     0.037 A 
HETATM   31  C   UNL     1      42.151  -6.246  13.957  1.00  0.00     0.068 A 
HETATM   32  C   UNL     1      42.901  -7.419  14.025  1.00  0.00     0.037 A 
HETATM   33  C   UNL     1      43.253  -8.101  12.851  1.00  0.00     0.016 A 
BRANCH  31  34
HETATM   34  O   UNL     1      41.734  -5.497  15.022  1.00  0.00    -0.356 OA
HETATM   35  C   UNL     1      41.762  -6.122  16.298  1.00  0.00     0.210 C 
ENDBRANCH  31  34
ENDBRANCH  26  28
ENDBRANCH   2  22
TORSDOF 7
ENDMDL
MODEL 2
REMARK VINA RESULT:      -8.8      1.365      2.305
REMARK  7 active torsions:
REMARK  status: ('A' for Active; 'I' for Inactive)
REMARK    1  A    between atoms: C_2  and  C_3 
REMARK    2  A    between atoms: N_4  and  C_5 
REMARK    3  A    between atoms: C_13  and  C_14 
REMARK       I    between atoms: C_14  and  N_15 
REMARK    4  A    between atoms: N_15  and  N_16 
REMARK       I    between atoms: N_16  and  C_17 
REMARK    5  A    between atoms: C_17  and  C_18 
REMARK    6  A    between atoms: C_22  and  C_23 
REMARK    7  A    between atoms: C_26  and  O_27 
ROOT
HETATM    1  N   UNL     1      43.406 -12.631   7.574  1.00  0.00    -0.262 N 
HETATM    2  C   UNL     1      44.442 -11.725   7.507  1.00  0.00     0.288 C 
HETATM    3  O   UNL     1      45.450 -11.938   6.838  1.00  0.00    -0.264 OA
HETATM    4  H   UNL     1      42.522 -12.439   8.040  1.00  0.00     0.190 HD
ENDROOT
BRANCH   1   5
HETATM    5  N   UNL     1      43.464 -13.816   6.828  1.00  0.00    -0.263 N 
HETATM    6  C   UNL     1      43.321 -15.005   7.509  1.00  0.00     0.273 C 
HETATM    7  O   UNL     1      43.172 -15.013   8.733  1.00  0.00    -0.266 OA
HETATM    8  H   UNL     1      43.382 -13.725   5.822  1.00  0.00     0.190 HD
BRANCH   6   9
HETATM    9  C   UNL     1      43.328 -16.236   6.734  1.00  0.00     0.077 A 
HETATM   10  C   UNL     1      43.256 -16.495   5.359  1.00  0.00     0.053 A 
HETATM   11  N   UNL     1      43.423 -17.889   5.213  1.00  0.00    -0.237 N 
HETATM   12  N   UNL     1      43.549 -18.481   6.433  1.00  0.00    -0.178 NA
HETATM   13  C   UNL     1      43.507 -17.500   7.318  1.00  0.00     0.158 A 
BRANCH  10  14
HETATM   14  C   UNL     1      43.167 -15.516   4.230  1.00  0.00     0.056 C 
HETATM   15  C   UNL     1      41.724 -15.202   3.853  1.00  0.00     0.011 C 
ENDBRANCH  10  14
BRANCH  11  16
HETATM   16  C   UNL     1      43.514 -18.747   4.061  1.00  0.00     0.058 A 
HETATM   17  C   UNL     1      43.267 -18.334   2.750  1.00  0.00     0.031 A 
HETATM   18  C   UNL     1      43.399 -19.229   1.679  1.00  0.00     0.002 A 
HETATM   19  C   UNL     1      43.773 -20.550   1.900  1.00  0.00     0.000 A 
HETATM   20  C   UNL     1      44.007 -20.986   3.197  1.00  0.00     0.002 A 
HETATM   21  C   UNL     1      43.873 -20.097   4.267  1.00  0.00     0.031 A 
ENDBRANCH  11  16
ENDBRANCH   6   9
ENDBRANCH   1   5
BRANCH   2  22
HETATM   22  C   UNL     1      44.243 -10.523   8.270  1.00  0.00     0.121 A 
HETATM   23  N   UNL     1      44.674  -9.301   7.834  1.00  0.00    -0.272 N 
HETATM   24  H   UNL     1      45.165  -9.098   6.969  1.00  0.00     0.189 HD
HETATM   25  N   UNL     1      44.384  -8.288   8.665  1.00  0.00    -0.174 NA
HETATM   26  C   UNL     1      43.761  -8.867   9.704  1.00  0.00     0.089 A 
HETATM   27  C   UNL     1      43.651 -10.269   9.490  1.00  0.00     0.071 A 
BRANCH  26  28
HETATM   28  C   UNL     1      43.275  -8.095  10.852  1.00  0.00    -0.005 A 
HETATM   29  C   UNL     1      43.524  -8.528  12.160  1.00  0.00     0.016 A 
HETATM   30  C   UNL     1      43.090  -7.774  13.254  1.00  0.00     0.037 A 
HETATM   31  C   UNL     1      42.397  -6.576  13.067  1.00  0.00     0.068 A 
HETATM   32  C   UNL     1      42.128  -6.145  11.769  1.00  0.00     0.037 A 
HETATM   33  C   UNL     1      42.566  -6.899  10.670  1.00  0.00     0.016 A 
BRANCH  31  34
HETATM   34  O   UNL     1      42.038  -5.932  14.217  1.00  0.00    -0.356 OA
HETATM   35  C   UNL     1      41.498  -4.624  14.080  1.00  0.00     0.210 C 
ENDBRANCH  31  34
ENDBRANCH  26  28
ENDBRANCH   2  22
TORSDOF 7
ENDMDL
MODEL 3
REMARK VINA RESULT:      -8.7      2.420      3.156
REMARK  7 active torsions:
REMARK  status: ('A' for Active; 'I' for Inactive)
REMARK    1  A    between atoms: C_2  and  C_3 
REMARK    2  A    between atoms: N_4  and  C_5 
REMARK    3  A    between atoms: C_13  and  C_14 
REMARK       I    between atoms: C_14  and  N_15 
REMARK    4  A    between atoms: N_15  and  N_16 
REMARK       I    between atoms: N_16  and  C_17 
REMARK    5  A    between atoms: C_17  and  C_18 
REMARK    6  A    between atoms: C_22  and  C_23 
REMARK    7  A    between atoms: C_26  and  O_27 
ROOT
HETATM    1  N   UNL     1      43.355 -11.734   7.804  1.00  0.00    -0.262 N 
HETATM    2  C   UNL     1      44.458 -10.934   8.002  1.00  0.00     0.288 C 
HETATM    3  O   UNL     1      45.603 -11.377   7.950  1.00  0.00    -0.264 OA
HETATM    4  H   UNL     1      42.405 -11.377   7.745  1.00  0.00     0.190 HD
ENDROOT
BRANCH   1   5
HETATM    5  N   UNL     1      43.524 -13.089   7.486  1.00  0.00    -0.263 N 
HETATM    6  C   UNL     1      43.219 -13.485   6.202  1.00  0.00     0.273 C 
HETATM    7  O   UNL     1      42.792 -12.672   5.380  1.00  0.00    -0.266 OA
HETATM    8  H   UNL     1      44.065 -13.646   8.138  1.00  0.00     0.190 HD
BRANCH   6   9
HETATM    9  C   UNL     1      43.442 -14.879   5.850  1.00  0.00     0.077 A 
HETATM   10  C   UNL     1      42.979 -15.681   4.799  1.00  0.00     0.053 A 
HETATM   11  N   UNL     1      43.635 -16.922   4.934  1.00  0.00    -0.237 N 
HETATM   12  N   UNL     1      44.435 -16.918   6.035  1.00  0.00    -0.178 NA
HETATM   13  C   UNL     1      44.326 -15.708   6.558  1.00  0.00     0.158 A 
BRANCH  10  14
HETATM   14  C   UNL     1      42.085 -15.298   3.660  1.00  0.00     0.056 C 
HETATM   15  C   UNL     1      40.665 -15.824   3.841  1.00  0.00     0.011 C 
ENDBRANCH  10  14
BRANCH  11  16
HETATM   16  C   UNL     1      43.636 -18.119   4.135  1.00  0.00     0.058 A 
HETATM   17  C   UNL     1      43.349 -18.154   2.768  1.00  0.00     0.031 A 
HETATM   18  C   UNL     1      43.392 -19.361   2.056  1.00  0.00     0.002 A 
HETATM   19  C   UNL     1      43.716 -20.552   2.697  1.00  0.00     0.000 A 
HETATM   20  C   UNL     1      43.989 -20.543   4.059  1.00  0.00     0.002 A 
HETATM   21  C   UNL     1      43.944 -19.341   4.772  1.00  0.00     0.031 A 
ENDBRANCH  11  16
ENDBRANCH   6   9
ENDBRANCH   1   5
BRANCH   2  22
HETATM   22  C   UNL     1      44.162  -9.552   8.264  1.00  0.00     0.121 A 
HETATM   23  N   UNL     1      45.140  -8.611   8.427  1.00  0.00    -0.272 N 
HETATM   24  H   UNL     1      46.144  -8.760   8.390  1.00  0.00     0.189 HD
HETATM   25  N   UNL     1      44.679  -7.370   8.644  1.00  0.00    -0.174 NA
HETATM   26  C   UNL     1      43.343  -7.499   8.653  1.00  0.00     0.089 A 
HETATM   27  C   UNL     1      42.980  -8.854   8.415  1.00  0.00     0.071 A 
BRANCH  26  28
HETATM   28  C   UNL     1      42.449  -6.357   8.867  1.00  0.00    -0.005 A 
HETATM   29  C   UNL     1      42.673  -5.463   9.921  1.00  0.00     0.016 A 
HETATM   30  C   UNL     1      41.840  -4.355  10.103  1.00  0.00     0.037 A 
HETATM   31  C   UNL     1      40.766  -4.119   9.243  1.00  0.00     0.068 A 
HETATM   32  C   UNL     1      40.524  -5.013   8.201  1.00  0.00     0.037 A 
HETATM   33  C   UNL     1      41.360  -6.123   8.014  1.00  0.00     0.016 A 
BRANCH  31  34
HETATM   34  O   UNL     1      40.037  -2.998   9.525  1.00  0.00    -0.356 OA
HETATM   35  C   UNL     1      40.464  -2.214  10.632  1.00  0.00     0.210 C 
ENDBRANCH  31  34
ENDBRANCH  26  28
ENDBRANCH   2  22
TORSDOF 7
ENDMDL
MODEL 4
REMARK VINA RESULT:      -8.5      1.620      2.087
REMARK  7 active torsions:
REMARK  status: ('A' for Active; 'I' for Inactive)
REMARK    1  A    between atoms: C_2  and  C_3 
REMARK    2  A    between atoms: N_4  and  C_5 
REMARK    3  A    between atoms: C_13  and  C_14 
REMARK       I    between atoms: C_14  and  N_15 
REMARK    4  A    between atoms: N_15  and  N_16 
REMARK       I    between atoms: N_16  and  C_17 
REMARK    5  A    between atoms: C_17  and  C_18 
REMARK    6  A    between atoms: C_22  and  C_23 
REMARK    7  A    between atoms: C_26  and  O_27 
ROOT
HETATM    1  N   UNL     1      42.576 -10.888   7.555  1.00  0.00    -0.262 N 
HETATM    2  C   UNL     1      43.339 -10.423   8.603  1.00  0.00     0.288 C 
HETATM    3  O   UNL     1      44.392 -10.964   8.932  1.00  0.00    -0.264 OA
HETATM    4  H   UNL     1      41.754 -10.404   7.201  1.00  0.00     0.190 HD
ENDROOT
BRANCH   1   5
HETATM    5  N   UNL     1      43.019 -11.982   6.799  1.00  0.00    -0.263 N 
HETATM    6  C   UNL     1      42.094 -12.627   6.008  1.00  0.00     0.273 C 
HETATM    7  O   UNL     1      40.916 -12.260   5.994  1.00  0.00    -0.266 OA
HETATM    8  H   UNL     1      44.022 -12.093   6.704  1.00  0.00     0.190 HD
BRANCH   6   9
HETATM    9  C   UNL     1      42.558 -13.730   5.181  1.00  0.00     0.077 A 
HETATM   10  C   UNL     1      42.624 -15.114   5.389  1.00  0.00     0.053 A 
HETATM   11  N   UNL     1      43.065 -15.673   4.172  1.00  0.00    -0.237 N 
HETATM   12  N   UNL     1      43.306 -14.692   3.259  1.00  0.00    -0.178 NA
HETATM   13  C   UNL     1      42.991 -13.556   3.858  1.00  0.00     0.158 A 
BRANCH  10  14
HETATM   14  C   UNL     1      42.187 -15.897   6.589  1.00  0.00     0.056 C 
HETATM   15  C   UNL     1      43.145 -15.730   7.764  1.00  0.00     0.011 C 
ENDBRANCH  10  14
BRANCH  11  16
HETATM   16  C   UNL     1      43.262 -17.030   3.734  1.00  0.00     0.058 A 
HETATM   17  C   UNL     1      42.713 -17.569   2.568  1.00  0.00     0.031 A 
HETATM   18  C   UNL     1      42.971 -18.897   2.202  1.00  0.00     0.002 A 
HETATM   19  C   UNL     1      43.775 -19.710   2.994  1.00  0.00     0.000 A 
HETATM   20  C   UNL     1      44.317 -19.199   4.167  1.00  0.00     0.002 A 
HETATM   21  C   UNL     1      44.059 -17.876   4.536  1.00  0.00     0.031 A 
ENDBRANCH  11  16
ENDBRANCH   6   9
ENDBRANCH   1   5
BRANCH   2  22
HETATM   22  C   UNL     1      42.811  -9.262   9.266  1.00  0.00     0.121 A 
HETATM   23  N   UNL     1      41.475  -9.100   9.505  1.00  0.00    -0.272 N 
HETATM   24  H   UNL     1      40.727  -9.740   9.255  1.00  0.00     0.189 HD
HETATM   25  N   UNL     1      41.166  -7.966  10.152  1.00  0.00    -0.174 NA
HETATM   26  C   UNL     1      42.341  -7.340  10.324  1.00  0.00     0.089 A 
HETATM   27  C   UNL     1      43.397  -8.125   9.783  1.00  0.00     0.071 A 
BRANCH  26  28
HETATM   28  C   UNL     1      42.443  -6.042  10.998  1.00  0.00    -0.005 A 
HETATM   29  C   UNL     1      42.796  -4.892  10.281  1.00  0.00     0.016 A 
HETATM   30  C   UNL     1      42.861  -3.649  10.919  1.00  0.00     0.037 A 
HETATM   31  C   UNL     1      42.579  -3.528  12.281  1.00  0.00     0.068 A 
HETATM   32  C   UNL     1      42.244  -4.670  13.006  1.00  0.00     0.037 A 
HETATM   33  C   UNL     1      42.176  -5.918  12.369  1.00  0.00     0.016 A 
BRANCH  31  34
HETATM   34  O   UNL     1      42.669  -2.258  12.778  1.00  0.00    -0.356 OA
HETATM   35  C   UNL     1      42.320  -2.077  14.144  1.00  0.00     0.210 C 
ENDBRANCH  31  34
ENDBRANCH  26  28
ENDBRANCH   2  22
TORSDOF 7
ENDMDL
MODEL 5
REMARK VINA RESULT:      -8.4      2.466     12.111
REMARK  7 active torsions:
REMARK  status: ('A' for Active; 'I' for Inactive)
REMARK    1  A    between atoms: C_2  and  C_3 
REMARK    2  A    between atoms: N_4  and  C_5 
REMARK    3  A    between atoms: C_13  and  C_14 
REMARK       I    between atoms: C_14  and  N_15 
REMARK    4  A    between atoms: N_15  and  N_16 
REMARK       I    between atoms: N_16  and  C_17 
REMARK    5  A    between atoms: C_17  and  C_18 
REMARK    6  A    between atoms: C_22  and  C_23 
REMARK    7  A    between atoms: C_26  and  O_27 
ROOT
HETATM    1  N   UNL     1      42.268 -10.613   7.632  1.00  0.00    -0.262 N 
HETATM    2  C   UNL     1      41.968 -10.297   6.326  1.00  0.00     0.288 C 
HETATM    3  O   UNL     1      41.379  -9.261   6.025  1.00  0.00    -0.264 OA
HETATM    4  H   UNL     1      42.838 -11.413   7.900  1.00  0.00     0.190 HD
ENDROOT
BRANCH   1   5
HETATM    5  N   UNL     1      41.942  -9.719   8.660  1.00  0.00    -0.263 N 
HETATM    6  C   UNL     1      42.746  -9.713   9.780  1.00  0.00     0.273 C 
HETATM    7  O   UNL     1      43.700 -10.489   9.870  1.00  0.00    -0.266 OA
HETATM    8  H   UNL     1      41.284  -8.982   8.432  1.00  0.00     0.190 HD
BRANCH   6   9
HETATM    9  C   UNL     1      42.445  -8.750  10.828  1.00  0.00     0.077 A 
HETATM   10  C   UNL     1      41.895  -8.880  12.109  1.00  0.00     0.053 A 
HETATM   11  N   UNL     1      41.957  -7.597  12.694  1.00  0.00    -0.237 N 
HETATM   12  N   UNL     1      42.478  -6.699  11.813  1.00  0.00    -0.178 NA
HETATM   13  C   UNL     1      42.775  -7.390  10.725  1.00  0.00     0.158 A 
BRANCH  10  14
HETATM   14  C   UNL     1      41.454 -10.126  12.811  1.00  0.00     0.056 C 
HETATM   15  C   UNL     1      39.935 -10.253  12.858  1.00  0.00     0.011 C 
ENDBRANCH  10  14
BRANCH  11  16
HETATM   16  C   UNL     1      41.617  -7.103  14.002  1.00  0.00     0.058 A 
HETATM   17  C   UNL     1      42.505  -7.050  15.079  1.00  0.00     0.031 A 
HETATM   18  C   UNL     1      42.100  -6.533  16.318  1.00  0.00     0.002 A 
HETATM   19  C   UNL     1      40.803  -6.066  16.503  1.00  0.00     0.000 A 
HETATM   20  C   UNL     1      39.899  -6.124  15.450  1.00  0.00     0.002 A 
HETATM   21  C   UNL     1      40.299  -6.642  14.214  1.00  0.00     0.031 A 
ENDBRANCH  11  16
ENDBRANCH   6   9
ENDBRANCH   1   5
BRANCH   2  22
HETATM   22  C   UNL     1      42.402 -11.264   5.355  1.00  0.00     0.121 A 
HETATM   23  N   UNL     1      43.150 -10.921   4.264  1.00  0.00    -0.272 N 
HETATM   24  H   UNL     1      43.472  -9.992   4.011  1.00  0.00     0.189 HD
HETATM   25  N   UNL     1      43.481 -11.956   3.476  1.00  0.00    -0.174 NA
HETATM   26  C   UNL     1      42.907 -13.022   4.056  1.00  0.00     0.089 A 
HETATM   27  C   UNL     1      42.223 -12.628   5.239  1.00  0.00     0.071 A 
BRANCH  26  28
HETATM   28  C   UNL     1      43.026 -14.373   3.498  1.00  0.00    -0.005 A 
HETATM   29  C   UNL     1      42.886 -15.498   4.318  1.00  0.00     0.016 A 
HETATM   30  C   UNL     1      42.967 -16.787   3.779  1.00  0.00     0.037 A 
HETATM   31  C   UNL     1      43.192 -16.977   2.415  1.00  0.00     0.068 A 
HETATM   32  C   UNL     1      43.350 -15.863   1.592  1.00  0.00     0.037 A 
HETATM   33  C   UNL     1      43.267 -14.570   2.130  1.00  0.00     0.016 A 
BRANCH  31  34
HETATM   34  O   UNL     1      43.239 -18.283   2.015  1.00  0.00    -0.356 OA
HETATM   35  C   UNL     1      43.881 -19.201   2.891  1.00  0.00     0.210 C 
ENDBRANCH  31  34
ENDBRANCH  26  28
ENDBRANCH   2  22
TORSDOF 7
ENDMDL
MODEL 6
REMARK VINA RESULT:      -8.4      3.169     12.176
REMARK  7 active torsions:
REMARK  status: ('A' for Active; 'I' for Inactive)
REMARK    1  A    between atoms: C_2  and  C_3 
REMARK    2  A    between atoms: N_4  and  C_5 
REMARK    3  A    between atoms: C_13  and  C_14 
REMARK       I    between atoms: C_14  and  N_15 
REMARK    4  A    between atoms: N_15  and  N_16 
REMARK       I    between atoms: N_16  and  C_17 
REMARK    5  A    between atoms: C_17  and  C_18 
REMARK    6  A    between atoms: C_22  and  C_23 
REMARK    7  A    between atoms: C_26  and  O_27 
ROOT
HETATM    1  N   UNL     1      40.942 -11.039   6.926  1.00  0.00    -0.262 N 
HETATM    2  C   UNL     1      42.190 -11.204   6.367  1.00  0.00     0.288 C 
HETATM    3  O   UNL     1      43.129 -10.458   6.637  1.00  0.00    -0.264 OA
HETATM    4  H   UNL     1      40.177 -11.697   6.796  1.00  0.00     0.190 HD
ENDROOT
BRANCH   1   5
HETATM    5  N   UNL     1      40.727 -10.024   7.868  1.00  0.00    -0.263 N 
HETATM    6  C   UNL     1      39.504  -9.991   8.503  1.00  0.00     0.273 C 
HETATM    7  O   UNL     1      38.632 -10.818   8.225  1.00  0.00    -0.266 OA
HETATM    8  H   UNL     1      41.546  -9.519   8.189  1.00  0.00     0.190 HD
BRANCH   6   9
HETATM    9  C   UNL     1      39.293  -8.973   9.520  1.00  0.00     0.077 A 
HETATM   10  C   UNL     1      39.616  -8.907  10.881  1.00  0.00     0.053 A 
HETATM   11  N   UNL     1      39.253  -7.612  11.307  1.00  0.00    -0.237 N 
HETATM   12  N   UNL     1      38.693  -6.914  10.281  1.00  0.00    -0.178 NA
HETATM   13  C   UNL     1      38.735  -7.718   9.232  1.00  0.00     0.158 A 
BRANCH  10  14
HETATM   14  C   UNL     1      40.331  -9.920  11.719  1.00  0.00     0.056 C 
HETATM   15  C   UNL     1      39.413 -10.561  12.755  1.00  0.00     0.011 C 
ENDBRANCH  10  14
BRANCH  11  16
HETATM   16  C   UNL     1      39.396  -6.920  12.562  1.00  0.00     0.058 A 
HETATM   17  C   UNL     1      40.616  -6.494  13.092  1.00  0.00     0.031 A 
HETATM   18  C   UNL     1      40.667  -5.807  14.313  1.00  0.00     0.002 A 
HETATM   19  C   UNL     1      39.503  -5.538  15.025  1.00  0.00     0.000 A 
HETATM   20  C   UNL     1      38.281  -5.967  14.525  1.00  0.00     0.002 A 
HETATM   21  C   UNL     1      38.227  -6.655  13.309  1.00  0.00     0.031 A 
ENDBRANCH  11  16
ENDBRANCH   6   9
ENDBRANCH   1   5
BRANCH   2  22
HETATM   22  C   UNL     1      42.303 -12.313   5.460  1.00  0.00     0.121 A 
HETATM   23  N   UNL     1      41.892 -12.238   4.158  1.00  0.00    -0.272 N 
HETATM   24  H   UNL     1      41.474 -11.438   3.694  1.00  0.00     0.189 HD
HETATM   25  N   UNL     1      42.093 -13.362   3.453  1.00  0.00    -0.174 NA
HETATM   26  C   UNL     1      42.634 -14.223   4.330  1.00  0.00     0.089 A 
HETATM   27  C   UNL     1      42.784 -13.599   5.600  1.00  0.00     0.071 A 
BRANCH  26  28
HETATM   28  C   UNL     1      43.007 -15.590   3.954  1.00  0.00    -0.005 A 
HETATM   29  C   UNL     1      43.651 -16.431   4.869  1.00  0.00     0.016 A 
HETATM   30  C   UNL     1      43.976 -17.746   4.520  1.00  0.00     0.037 A 
HETATM   31  C   UNL     1      43.669 -18.246   3.254  1.00  0.00     0.068 A 
HETATM   32  C   UNL     1      43.043 -17.411   2.330  1.00  0.00     0.037 A 
HETATM   33  C   UNL     1      42.714 -16.093   2.678  1.00  0.00     0.016 A 
BRANCH  31  34
HETATM   34  O   UNL     1      44.030 -19.547   3.044  1.00  0.00    -0.356 OA
HETATM   35  C   UNL     1      43.451 -20.203   1.924  1.00  0.00     0.210 C 
ENDBRANCH  31  34
ENDBRANCH  26  28
ENDBRANCH   2  22
TORSDOF 7
ENDMDL
MODEL 7
REMARK VINA RESULT:      -8.3      8.582     13.073
REMARK  7 active torsions:
REMARK  status: ('A' for Active; 'I' for Inactive)
REMARK    1  A    between atoms: C_2  and  C_3 
REMARK    2  A    between atoms: N_4  and  C_5 
REMARK    3  A    between atoms: C_13  and  C_14 
REMARK       I    between atoms: C_14  and  N_15 
REMARK    4  A    between atoms: N_15  and  N_16 
REMARK       I    between atoms: N_16  and  C_17 
REMARK    5  A    between atoms: C_17  and  C_18 
REMARK    6  A    between atoms: C_22  and  C_23 
REMARK    7  A    between atoms: C_26  and  O_27 
ROOT
HETATM    1  N   UNL     1      41.243 -12.689  -0.631  1.00  0.00    -0.262 N 
HETATM    2  C   UNL     1      40.176 -13.416  -0.153  1.00  0.00     0.288 C 
HETATM    3  O   UNL     1      39.029 -13.229  -0.553  1.00  0.00    -0.264 OA
HETATM    4  H   UNL     1      42.211 -12.888  -0.390  1.00  0.00     0.190 HD
ENDROOT
BRANCH   1   5
HETATM    5  N   UNL     1      41.043 -11.734  -1.637  1.00  0.00    -0.263 N 
HETATM    6  C   UNL     1      41.395 -10.431  -1.358  1.00  0.00     0.273 C 
HETATM    7  O   UNL     1      41.845 -10.126  -0.251  1.00  0.00    -0.266 OA
HETATM    8  H   UNL     1      40.869 -12.086  -2.571  1.00  0.00     0.190 HD
BRANCH   6   9
HETATM    9  C   UNL     1      41.240  -9.444  -2.416  1.00  0.00     0.077 A 
HETATM   10  C   UNL     1      41.952  -8.284  -2.746  1.00  0.00     0.053 A 
HETATM   11  N   UNL     1      41.389  -7.808  -3.949  1.00  0.00    -0.237 N 
HETATM   12  N   UNL     1      40.350  -8.600  -4.332  1.00  0.00    -0.178 NA
HETATM   13  C   UNL     1      40.280  -9.566  -3.433  1.00  0.00     0.158 A 
BRANCH  10  14
HETATM   14  C   UNL     1      43.161  -7.711  -2.075  1.00  0.00     0.056 C 
HETATM   15  C   UNL     1      42.800  -6.615  -1.079  1.00  0.00     0.011 C 
ENDBRANCH  10  14
BRANCH  11  16
HETATM   16  C   UNL     1      41.724  -6.710  -4.817  1.00  0.00     0.058 A 
HETATM   17  C   UNL     1      42.880  -6.649  -5.600  1.00  0.00     0.031 A 
HETATM   18  C   UNL     1      43.122  -5.551  -6.436  1.00  0.00     0.002 A 
HETATM   19  C   UNL     1      42.219  -4.495  -6.503  1.00  0.00     0.000 A 
HETATM   20  C   UNL     1      41.071  -4.528  -5.721  1.00  0.00     0.002 A 
HETATM   21  C   UNL     1      40.829  -5.621  -4.883  1.00  0.00     0.031 A 
ENDBRANCH  11  16
ENDBRANCH   6   9
ENDBRANCH   1   5
BRANCH   2  22
HETATM   22  C   UNL     1      40.513 -14.405   0.835  1.00  0.00     0.121 A 
HETATM   23  N   UNL     1      39.615 -14.842   1.768  1.00  0.00    -0.272 N 
HETATM   24  H   UNL     1      38.653 -14.539   1.881  1.00  0.00     0.189 HD
HETATM   25  N   UNL     1      40.097 -15.781   2.596  1.00  0.00    -0.174 NA
HETATM   26  C   UNL     1      41.372 -15.953   2.213  1.00  0.00     0.089 A 
HETATM   27  C   UNL     1      41.668 -15.108   1.107  1.00  0.00     0.071 A 
BRANCH  26  28
HETATM   28  C   UNL     1      42.266 -16.907   2.876  1.00  0.00    -0.005 A 
HETATM   29  C   UNL     1      42.585 -16.762   4.231  1.00  0.00     0.016 A 
HETATM   30  C   UNL     1      43.411 -17.691   4.872  1.00  0.00     0.037 A 
HETATM   31  C   UNL     1      43.937 -18.780   4.174  1.00  0.00     0.068 A 
HETATM   32  C   UNL     1      43.639 -18.924   2.819  1.00  0.00     0.037 A 
HETATM   33  C   UNL     1      42.809 -17.994   2.176  1.00  0.00     0.016 A 
BRANCH  31  34
HETATM   34  O   UNL     1      44.719 -19.618   4.917  1.00  0.00    -0.356 OA
HETATM   35  C   UNL     1      44.150 -20.866   5.292  1.00  0.00     0.210 C 
ENDBRANCH  31  34
ENDBRANCH  26  28
ENDBRANCH   2  22
TORSDOF 7
ENDMDL
MODEL 8
REMARK VINA RESULT:      -8.3      3.196      4.412
REMARK  7 active torsions:
REMARK  status: ('A' for Active; 'I' for Inactive)
REMARK    1  A    between atoms: C_2  and  C_3 
REMARK    2  A    between atoms: N_4  and  C_5 
REMARK    3  A    between atoms: C_13  and  C_14 
REMARK       I    between atoms: C_14  and  N_15 
REMARK    4  A    between atoms: N_15  and  N_16 
REMARK       I    between atoms: N_16  and  C_17 
REMARK    5  A    between atoms: C_17  and  C_18 
REMARK    6  A    between atoms: C_22  and  C_23 
REMARK    7  A    between atoms: C_26  and  O_27 
ROOT
HETATM    1  N   UNL     1      43.148 -11.643   6.891  1.00  0.00    -0.262 N 
HETATM    2  C   UNL     1      44.310 -11.041   7.319  1.00  0.00     0.288 C 
HETATM    3  O   UNL     1      45.290 -10.922   6.587  1.00  0.00    -0.264 OA
HETATM    4  H   UNL     1      42.292 -11.668   7.442  1.00  0.00     0.190 HD
ENDROOT
BRANCH   1   5
HETATM    5  N   UNL     1      43.042 -12.098   5.570  1.00  0.00    -0.263 N 
HETATM    6  C   UNL     1      41.896 -12.779   5.220  1.00  0.00     0.273 C 
HETATM    7  O   UNL     1      41.015 -12.994   6.055  1.00  0.00    -0.266 OA
HETATM    8  H   UNL     1      43.698 -11.712   4.901  1.00  0.00     0.190 HD
BRANCH   6   9
HETATM    9  C   UNL     1      41.757 -13.209   3.837  1.00  0.00     0.077 A 
HETATM   10  C   UNL     1      40.707 -13.117   2.914  1.00  0.00     0.053 A 
HETATM   11  N   UNL     1      41.213 -13.614   1.694  1.00  0.00    -0.237 N 
HETATM   12  N   UNL     1      42.498 -14.037   1.851  1.00  0.00    -0.178 NA
HETATM   13  C   UNL     1      42.812 -13.780   3.110  1.00  0.00     0.158 A 
BRANCH  10  14
HETATM   14  C   UNL     1      39.358 -12.494   3.096  1.00  0.00     0.056 C 
HETATM   15  C   UNL     1      39.378 -10.992   2.834  1.00  0.00     0.011 C 
ENDBRANCH  10  14
BRANCH  11  16
HETATM   16  C   UNL     1      40.652 -13.716   0.373  1.00  0.00     0.058 A 
HETATM   17  C   UNL     1      39.903 -14.803  -0.084  1.00  0.00     0.031 A 
HETATM   18  C   UNL     1      39.373 -14.814  -1.381  1.00  0.00     0.002 A 
HETATM   19  C   UNL     1      39.586 -13.745  -2.245  1.00  0.00     0.000 A 
HETATM   20  C   UNL     1      40.342 -12.661  -1.818  1.00  0.00     0.002 A 
HETATM   21  C   UNL     1      40.874 -12.648  -0.525  1.00  0.00     0.031 A 
ENDBRANCH  11  16
ENDBRANCH   6   9
ENDBRANCH   1   5
BRANCH   2  22
HETATM   22  C   UNL     1      44.279 -10.564   8.674  1.00  0.00     0.121 A 
HETATM   23  N   UNL     1      45.413 -10.416   9.424  1.00  0.00    -0.272 N 
HETATM   24  H   UNL     1      46.366 -10.618   9.138  1.00  0.00     0.189 HD
HETATM   25  N   UNL     1      45.196  -9.940  10.660  1.00  0.00    -0.174 NA
HETATM   26  C   UNL     1      43.864  -9.792  10.740  1.00  0.00     0.089 A 
HETATM   27  C   UNL     1      43.255 -10.170   9.511  1.00  0.00     0.071 A 
BRANCH  26  28
HETATM   28  C   UNL     1      43.205  -9.289  11.949  1.00  0.00    -0.005 A 
HETATM   29  C   UNL     1      42.157 -10.004  12.540  1.00  0.00     0.016 A 
HETATM   30  C   UNL     1      41.551  -9.540  13.712  1.00  0.00     0.037 A 
HETATM   31  C   UNL     1      41.976  -8.355  14.316  1.00  0.00     0.068 A 
HETATM   32  C   UNL     1      43.008  -7.627  13.726  1.00  0.00     0.037 A 
HETATM   33  C   UNL     1      43.618  -8.092  12.551  1.00  0.00     0.016 A 
BRANCH  31  34
HETATM   34  O   UNL     1      41.310  -8.020  15.461  1.00  0.00    -0.356 OA
HETATM   35  C   UNL     1      41.894  -7.009  16.272  1.00  0.00     0.210 C 
ENDBRANCH  31  34
ENDBRANCH  26  28
ENDBRANCH   2  22
TORSDOF 7
ENDMDL
MODEL 9
REMARK VINA RESULT:      -8.2      4.234      5.395
REMARK  7 active torsions:
REMARK  status: ('A' for Active; 'I' for Inactive)
REMARK    1  A    between atoms: C_2  and  C_3 
REMARK    2  A    between atoms: N_4  and  C_5 
REMARK    3  A    between atoms: C_13  and  C_14 
REMARK       I    between atoms: C_14  and  N_15 
REMARK    4  A    between atoms: N_15  and  N_16 
REMARK       I    between atoms: N_16  and  C_17 
REMARK    5  A    between atoms: C_17  and  C_18 
REMARK    6  A    between atoms: C_22  and  C_23 
REMARK    7  A    between atoms: C_26  and  O_27 
ROOT
HETATM    1  N   UNL     1      42.581 -11.953   5.401  1.00  0.00    -0.262 N 
HETATM    2  C   UNL     1      43.822 -11.410   5.649  1.00  0.00     0.288 C 
HETATM    3  O   UNL     1      44.644 -11.229   4.754  1.00  0.00    -0.264 OA
HETATM    4  H   UNL     1      41.848 -12.023   6.103  1.00  0.00     0.190 HD
ENDROOT
BRANCH   1   5
HETATM    5  N   UNL     1      42.208 -12.272   4.088  1.00  0.00    -0.263 N 
HETATM    6  C   UNL     1      41.240 -11.493   3.493  1.00  0.00     0.273 C 
HETATM    7  O   UNL     1      40.713 -10.566   4.113  1.00  0.00    -0.266 OA
HETATM    8  H   UNL     1      42.819 -12.902   3.581  1.00  0.00     0.190 HD
BRANCH   6   9
HETATM    9  C   UNL     1      40.886 -11.786   2.113  1.00  0.00     0.077 A 
HETATM   10  C   UNL     1      40.071 -12.762   1.526  1.00  0.00     0.053 A 
HETATM   11  N   UNL     1      40.032 -12.464   0.148  1.00  0.00    -0.237 N 
HETATM   12  N   UNL     1      40.814 -11.384  -0.126  1.00  0.00    -0.178 NA
HETATM   13  C   UNL     1      41.300 -10.984   1.037  1.00  0.00     0.158 A 
BRANCH  10  14
HETATM   14  C   UNL     1      39.268 -13.832   2.199  1.00  0.00     0.056 C 
HETATM   15  C   UNL     1      40.013 -15.162   2.252  1.00  0.00     0.011 C 
ENDBRANCH  10  14
BRANCH  11  16
HETATM   16  C   UNL     1      39.319 -13.047  -0.958  1.00  0.00     0.058 A 
HETATM   17  C   UNL     1      38.120 -12.549  -1.475  1.00  0.00     0.031 A 
HETATM   18  C   UNL     1      37.500 -13.165  -2.570  1.00  0.00     0.002 A 
HETATM   19  C   UNL     1      38.061 -14.290  -3.164  1.00  0.00     0.000 A 
HETATM   20  C   UNL     1      39.244 -14.812  -2.657  1.00  0.00     0.002 A 
HETATM   21  C   UNL     1      39.864 -14.202  -1.562  1.00  0.00     0.031 A 
ENDBRANCH  11  16
ENDBRANCH   6   9
ENDBRANCH   1   5
BRANCH   2  22
HETATM   22  C   UNL     1      44.068 -11.071   7.024  1.00  0.00     0.121 A 
HETATM   23  N   UNL     1      45.293 -11.232   7.610  1.00  0.00    -0.272 N 
HETATM   24  H   UNL     1      46.135 -11.596   7.175  1.00  0.00     0.189 HD
HETATM   25  N   UNL     1      45.344 -10.844   8.893  1.00  0.00    -0.174 NA
HETATM   26  C   UNL     1      44.097 -10.435   9.176  1.00  0.00     0.089 A 
HETATM   27  C   UNL     1      43.268 -10.559   8.026  1.00  0.00     0.071 A 
BRANCH  26  28
HETATM   28  C   UNL     1      43.722  -9.928  10.500  1.00  0.00    -0.005 A 
HETATM   29  C   UNL     1      43.695  -8.552  10.755  1.00  0.00     0.016 A 
HETATM   30  C   UNL     1      43.305  -8.068  12.008  1.00  0.00     0.037 A 
HETATM   31  C   UNL     1      42.938  -8.945  13.030  1.00  0.00     0.068 A 
HETATM   32  C   UNL     1      42.979 -10.318  12.791  1.00  0.00     0.037 A 
HETATM   33  C   UNL     1      43.367 -10.805  11.534  1.00  0.00     0.016 A 
BRANCH  31  34
HETATM   34  O   UNL     1      42.569  -8.345  14.200  1.00  0.00    -0.356 OA
HETATM   35  C   UNL     1      41.182  -8.347  14.515  1.00  0.00     0.210 C 
ENDBRANCH  31  34
ENDBRANCH  26  28
ENDBRANCH   2  22
TORSDOF 7
ENDMDL
MODEL 10
REMARK VINA RESULT:      -8.2      2.605     12.294
REMARK  7 active torsions:
REMARK  status: ('A' for Active; 'I' for Inactive)
REMARK    1  A    between atoms: C_2  and  C_3 
REMARK    2  A    between atoms: N_4  and  C_5 
REMARK    3  A    between atoms: C_13  and  C_14 
REMARK       I    between atoms: C_14  and  N_15 
REMARK    4  A    between atoms: N_15  and  N_16 
REMARK       I    between atoms: N_16  and  C_17 
REMARK    5  A    between atoms: C_17  and  C_18 
REMARK    6  A    between atoms: C_22  and  C_23 
REMARK    7  A    between atoms: C_26  and  O_27 
ROOT
HETATM    1  N   UNL     1      41.172 -11.250   6.670  1.00  0.00    -0.262 N 
HETATM    2  C   UNL     1      40.100 -12.008   6.256  1.00  0.00     0.288 C 
HETATM    3  O   UNL     1      38.948 -11.749   6.596  1.00  0.00    -0.264 OA
HETATM    4  H   UNL     1      42.120 -11.383   6.327  1.00  0.00     0.190 HD
ENDROOT
BRANCH   1   5
HETATM    5  N   UNL     1      40.960 -10.117   7.467  1.00  0.00    -0.263 N 
HETATM    6  C   UNL     1      42.071  -9.442   7.925  1.00  0.00     0.273 C 
HETATM    7  O   UNL     1      43.205  -9.846   7.654  1.00  0.00    -0.266 OA
HETATM    8  H   UNL     1      40.022  -9.734   7.473  1.00  0.00     0.190 HD
BRANCH   6   9
HETATM    9  C   UNL     1      41.858  -8.235   8.708  1.00  0.00     0.077 A 
HETATM   10  C   UNL     1      42.491  -7.715   9.844  1.00  0.00     0.053 A 
HETATM   11  N   UNL     1      41.909  -6.450  10.072  1.00  0.00    -0.237 N 
HETATM   12  N   UNL     1      40.933  -6.205   9.155  1.00  0.00    -0.178 NA
HETATM   13  C   UNL     1      40.921  -7.254   8.350  1.00  0.00     0.158 A 
BRANCH  10  14
HETATM   14  C   UNL     1      43.649  -8.280  10.607  1.00  0.00     0.056 C 
HETATM   15  C   UNL     1      43.218  -9.371  11.581  1.00  0.00     0.011 C 
ENDBRANCH  10  14
BRANCH  11  16
HETATM   16  C   UNL     1      42.175  -5.411  11.032  1.00  0.00     0.058 A 
HETATM   17  C   UNL     1      41.941  -5.526  12.404  1.00  0.00     0.031 A 
HETATM   18  C   UNL     1      42.248  -4.472  13.275  1.00  0.00     0.002 A 
HETATM   19  C   UNL     1      42.788  -3.285  12.792  1.00  0.00     0.000 A 
HETATM   20  C   UNL     1      43.014  -3.143  11.429  1.00  0.00     0.002 A 
HETATM   21  C   UNL     1      42.706  -4.191  10.557  1.00  0.00     0.031 A 
ENDBRANCH  11  16
ENDBRANCH   6   9
ENDBRANCH   1   5
BRANCH   2  22
HETATM   22  C   UNL     1      40.435 -13.110   5.396  1.00  0.00     0.121 A 
HETATM   23  N   UNL     1      39.696 -13.429   4.292  1.00  0.00    -0.272 N 
HETATM   24  H   UNL     1      38.860 -12.958   3.958  1.00  0.00     0.189 HD
HETATM   25  N   UNL     1      40.168 -14.474   3.596  1.00  0.00    -0.174 NA
HETATM   26  C   UNL     1      41.248 -14.881   4.283  1.00  0.00     0.089 A 
HETATM   27  C   UNL     1      41.449 -14.047   5.418  1.00  0.00     0.071 A 
BRANCH  26  28
HETATM   28  C   UNL     1      42.064 -16.020   3.853  1.00  0.00    -0.005 A 
HETATM   29  C   UNL     1      42.964 -16.627   4.737  1.00  0.00     0.016 A 
HETATM   30  C   UNL     1      43.718 -17.736   4.336  1.00  0.00     0.037 A 
HETATM   31  C   UNL     1      43.591 -18.257   3.047  1.00  0.00     0.068 A 
HETATM   32  C   UNL     1      42.711 -17.648   2.154  1.00  0.00     0.037 A 
HETATM   33  C   UNL     1      41.953 -16.539   2.555  1.00  0.00     0.016 A 
BRANCH  31  34
HETATM   34  O   UNL     1      44.375 -19.345   2.786  1.00  0.00    -0.356 OA
HETATM   35  C   UNL     1      43.709 -20.541   2.401  1.00  0.00     0.210 C 
ENDBRANCH  31  34
ENDBRANCH  26  28
ENDBRANCH   2  22
TORSDOF 7
ENDMDL
