MODEL 1
REMARK VINA RESULT:      -8.7      0.000      0.000
REMARK  5 active torsions:
REMARK  status: ('A' for Active; 'I' for Inactive)
REMARK    1  A    between atoms: C_2  and  C_3 
REMARK    2  A    between atoms: C_2  and  C_9 
REMARK    3  A    between atoms: C_9  and  C_10 
REMARK       I    between atoms: C_10  and  N_11 
REMARK    4  A    between atoms: N_11  and  C_12 
REMARK    5  A    between atoms: C_19  and  C_20 
REMARK       I    between atoms: C_20  and  N_21 
ROOT
HETATM    1  C   UNL     1      40.285 -13.908  -0.387  1.00  0.00     0.035 A 
HETATM    2  C   UNL     1      40.900 -12.653  -0.285  1.00  0.00     0.046 A 
HETATM    3  C   UNL     1      40.542 -11.625  -1.186  1.00  0.00     0.030 A 
HETATM    4  C   UNL     1      39.578 -11.886  -2.151  1.00  0.00     0.063 A 
HETATM    5  N   UNL     1      39.448 -10.723  -2.858  1.00  0.00    -0.277 N 
HETATM    6  H   UNL     1      38.831 -10.547  -3.642  1.00  0.00     0.189 HD
HETATM    7  N   UNL     1      40.247  -9.727  -2.443  1.00  0.00    -0.168 NA
HETATM    8  C   UNL     1      40.932 -10.270  -1.410  1.00  0.00     0.156 A 
HETATM    9  C   UNL     1      38.942 -13.121  -2.279  1.00  0.00     0.034 A 
HETATM   10  C   UNL     1      39.319 -14.126  -1.380  1.00  0.00     0.032 A 
ENDROOT
BRANCH   1  11
HETATM   11  N   UNL     1      40.600 -15.007   0.442  1.00  0.00    -0.327 N 
HETATM   12  C   UNL     1      40.531 -15.068   1.823  1.00  0.00     0.223 C 
HETATM   13  O   UNL     1      40.079 -14.208   2.570  1.00  0.00    -0.273 OA
HETATM   14  H   UNL     1      40.907 -15.844  -0.035  1.00  0.00     0.169 HD
BRANCH  12  15
HETATM   15  C   UNL     1      41.115 -16.354   2.389  1.00  0.00     0.116 C 
BRANCH  15  16
HETATM   16  C   UNL     1      42.625 -16.271   2.747  1.00  0.00    -0.012 C 
HETATM   17  C   UNL     1      42.820 -15.319   3.953  1.00  0.00     0.020 C 
HETATM   18  C   UNL     1      43.454 -15.682   1.580  1.00  0.00     0.020 C 
BRANCH  16  19
HETATM   19  C   UNL     1      43.122 -17.708   3.032  1.00  0.00    -0.050 A 
HETATM   20  C   UNL     1      43.781 -18.059   4.224  1.00  0.00     0.008 A 
HETATM   21  C   UNL     1      44.220 -19.366   4.454  1.00  0.00     0.001 A 
HETATM   22  C   UNL     1      44.005 -20.358   3.503  1.00  0.00     0.000 A 
HETATM   23  C   UNL     1      43.346 -20.042   2.320  1.00  0.00     0.001 A 
HETATM   24  C   UNL     1      42.909 -18.735   2.089  1.00  0.00     0.008 A 
ENDBRANCH  16  19
ENDBRANCH  15  16
ENDBRANCH  12  15
ENDBRANCH   1  11
BRANCH   8  25
HETATM   25  C   UNL     1      41.936  -9.491  -0.672  1.00  0.00     0.270 C 
HETATM   26  N   UNL     1      41.640  -9.311   0.652  1.00  0.00    -0.365 N 
HETATM   27  H   UNL     1      40.781  -9.708   1.015  1.00  0.00     0.159 HD
HETATM   28  H   UNL     1      42.268  -8.784   1.237  1.00  0.00     0.159 HD
HETATM   29  O   UNL     1      42.958  -9.023  -1.161  1.00  0.00    -0.266 OA
ENDBRANCH   8  25
TORSDOF 5
ENDMDL
MODEL 2
REMARK VINA RESULT:      -8.7      2.177      3.001
REMARK  5 active torsions:
REMARK  status: ('A' for Active; 'I' for Inactive)
REMARK    1  A    between atoms: C_2  and  C_3 
REMARK    2  A    between atoms: C_2  and  C_9 
REMARK    3  A    between atoms: C_9  and  C_10 
REMARK       I    between atoms: C_10  and  N_11 
REMARK    4  A    between atoms: N_11  and  C_12 
REMARK    5  A    between atoms: C_19  and  C_20 
REMARK       I    between atoms: C_20  and  N_21 
ROOT
HETATM    1  C   UNL     1      39.813 -13.447   1.638  1.00  0.00     0.035 A 
HETATM    2  C   UNL     1      39.773 -13.550   0.241  1.00  0.00     0.046 A 
HETATM    3  C   UNL     1      38.987 -12.642  -0.504  1.00  0.00     0.030 A 
HETATM    4  C   UNL     1      38.277 -11.660   0.173  1.00  0.00     0.063 A 
HETATM    5  N   UNL     1      37.626 -10.949  -0.797  1.00  0.00    -0.277 N 
HETATM    6  H   UNL     1      37.012 -10.154  -0.667  1.00  0.00     0.189 HD
HETATM    7  N   UNL     1      37.845 -11.385  -2.048  1.00  0.00    -0.168 NA
HETATM    8  C   UNL     1      38.684 -12.434  -1.884  1.00  0.00     0.156 A 
HETATM    9  C   UNL     1      38.296 -11.524   1.561  1.00  0.00     0.034 A 
HETATM   10  C   UNL     1      39.076 -12.440   2.278  1.00  0.00     0.032 A 
ENDROOT
BRANCH   1  11
HETATM   11  N   UNL     1      40.538 -14.327   2.470  1.00  0.00    -0.327 N 
HETATM   12  C   UNL     1      40.587 -15.708   2.397  1.00  0.00     0.223 C 
HETATM   13  O   UNL     1      40.089 -16.412   1.525  1.00  0.00    -0.273 OA
HETATM   14  H   UNL     1      41.088 -13.892   3.199  1.00  0.00     0.169 HD
BRANCH  12  15
HETATM   15  C   UNL     1      41.330 -16.339   3.565  1.00  0.00     0.116 C 
BRANCH  15  16
HETATM   16  C   UNL     1      42.866 -16.462   3.358  1.00  0.00    -0.012 C 
HETATM   17  C   UNL     1      43.603 -15.719   4.500  1.00  0.00     0.020 C 
HETATM   18  C   UNL     1      43.316 -15.799   2.035  1.00  0.00     0.020 C 
BRANCH  16  19
HETATM   19  C   UNL     1      43.214 -17.969   3.301  1.00  0.00    -0.050 A 
HETATM   20  C   UNL     1      42.961 -18.762   2.168  1.00  0.00     0.008 A 
HETATM   21  C   UNL     1      43.286 -20.122   2.146  1.00  0.00     0.001 A 
HETATM   22  C   UNL     1      43.878 -20.722   3.252  1.00  0.00     0.000 A 
HETATM   23  C   UNL     1      44.149 -19.960   4.382  1.00  0.00     0.001 A 
HETATM   24  C   UNL     1      43.823 -18.601   4.406  1.00  0.00     0.008 A 
ENDBRANCH  16  19
ENDBRANCH  15  16
ENDBRANCH  12  15
ENDBRANCH   1  11
BRANCH   8  25
HETATM   25  C   UNL     1      39.168 -13.207  -3.036  1.00  0.00     0.270 C 
HETATM   26  N   UNL     1      38.191 -13.910  -3.687  1.00  0.00    -0.365 N 
HETATM   27  H   UNL     1      37.240 -13.852  -3.340  1.00  0.00     0.159 HD
HETATM   28  H   UNL     1      38.429 -14.474  -4.486  1.00  0.00     0.159 HD
HETATM   29  O   UNL     1      40.334 -13.251  -3.410  1.00  0.00    -0.266 OA
ENDBRANCH   8  25
TORSDOF 5
ENDMDL
MODEL 3
REMARK VINA RESULT:      -8.6      2.111      2.711
REMARK  5 active torsions:
REMARK  status: ('A' for Active; 'I' for Inactive)
REMARK    1  A    between atoms: C_2  and  C_3 
REMARK    2  A    between atoms: C_2  and  C_9 
REMARK    3  A    between atoms: C_9  and  C_10 
REMARK       I    between atoms: C_10  and  N_11 
REMARK    4  A    between atoms: N_11  and  C_12 
REMARK    5  A    between atoms: C_19  and  C_20 
REMARK       I    between atoms: C_20  and  N_21 
ROOT
HETATM    1  C   UNL     1      40.020 -14.146   1.791  1.00  0.00     0.035 A 
HETATM    2  C   UNL     1      40.222 -14.017   0.410  1.00  0.00     0.046 A 
HETATM    3  C   UNL     1      39.671 -12.911  -0.276  1.00  0.00     0.030 A 
HETATM    4  C   UNL     1      38.945 -11.971   0.444  1.00  0.00     0.063 A 
HETATM    5  N   UNL     1      38.549 -11.038  -0.474  1.00  0.00    -0.277 N 
HETATM    6  H   UNL     1      37.998 -10.205  -0.304  1.00  0.00     0.189 HD
HETATM    7  N   UNL     1      38.947 -11.290  -1.731  1.00  0.00    -0.168 NA
HETATM    8  C   UNL     1      39.641 -12.446  -1.626  1.00  0.00     0.156 A 
HETATM    9  C   UNL     1      38.728 -12.064   1.819  1.00  0.00     0.034 A 
HETATM   10  C   UNL     1      39.278 -13.172   2.475  1.00  0.00     0.032 A 
ENDROOT
BRANCH   1  11
HETATM   11  N   UNL     1      40.499 -15.231   2.556  1.00  0.00    -0.327 N 
HETATM   12  C   UNL     1      41.045 -15.191   3.826  1.00  0.00     0.223 C 
HETATM   13  O   UNL     1      41.115 -14.212   4.561  1.00  0.00    -0.273 OA
HETATM   14  H   UNL     1      40.426 -16.141   2.122  1.00  0.00     0.169 HD
BRANCH  12  15
HETATM   15  C   UNL     1      41.615 -16.530   4.270  1.00  0.00     0.116 C 
BRANCH  15  16
HETATM   16  C   UNL     1      43.136 -16.703   4.002  1.00  0.00    -0.012 C 
HETATM   17  C   UNL     1      43.938 -16.182   5.221  1.00  0.00     0.020 C 
HETATM   18  C   UNL     1      43.596 -15.871   2.782  1.00  0.00     0.020 C 
BRANCH  16  19
HETATM   19  C   UNL     1      43.397 -18.200   3.709  1.00  0.00    -0.050 A 
HETATM   20  C   UNL     1      43.848 -19.096   4.694  1.00  0.00     0.008 A 
HETATM   21  C   UNL     1      44.077 -20.444   4.399  1.00  0.00     0.001 A 
HETATM   22  C   UNL     1      43.852 -20.931   3.116  1.00  0.00     0.000 A 
HETATM   23  C   UNL     1      43.394 -20.070   2.126  1.00  0.00     0.001 A 
HETATM   24  C   UNL     1      43.168 -18.722   2.419  1.00  0.00     0.008 A 
ENDBRANCH  16  19
ENDBRANCH  15  16
ENDBRANCH  12  15
ENDBRANCH   1  11
BRANCH   8  25
HETATM   25  C   UNL     1      40.249 -13.078  -2.805  1.00  0.00     0.270 C 
HETATM   26  N   UNL     1      41.506 -12.621  -3.098  1.00  0.00    -0.365 N 
HETATM   27  H   UNL     1      41.911 -11.905  -2.506  1.00  0.00     0.159 HD
HETATM   28  H   UNL     1      41.999 -12.991  -3.893  1.00  0.00     0.159 HD
HETATM   29  O   UNL     1      39.711 -13.936  -3.497  1.00  0.00    -0.266 OA
ENDBRANCH   8  25
TORSDOF 5
ENDMDL
MODEL 4
REMARK VINA RESULT:      -8.4      5.661      8.029
REMARK  5 active torsions:
REMARK  status: ('A' for Active; 'I' for Inactive)
REMARK    1  A    between atoms: C_2  and  C_3 
REMARK    2  A    between atoms: C_2  and  C_9 
REMARK    3  A    between atoms: C_9  and  C_10 
REMARK       I    between atoms: C_10  and  N_11 
REMARK    4  A    between atoms: N_11  and  C_12 
REMARK    5  A    between atoms: C_19  and  C_20 
REMARK       I    between atoms: C_20  and  N_21 
ROOT
HETATM    1  C   UNL     1      44.205 -12.511   6.770  1.00  0.00     0.035 A 
HETATM    2  C   UNL     1      43.709 -11.941   7.951  1.00  0.00     0.046 A 
HETATM    3  C   UNL     1      44.368 -10.828   8.519  1.00  0.00     0.030 A 
HETATM    4  C   UNL     1      45.494 -10.321   7.884  1.00  0.00     0.063 A 
HETATM    5  N   UNL     1      45.902  -9.267   8.654  1.00  0.00    -0.277 N 
HETATM    6  H   UNL     1      46.697  -8.660   8.493  1.00  0.00     0.189 HD
HETATM    7  N   UNL     1      45.145  -9.046   9.741  1.00  0.00    -0.168 NA
HETATM    8  C   UNL     1      44.192 -10.005   9.673  1.00  0.00     0.156 A 
HETATM    9  C   UNL     1      46.014 -10.859   6.706  1.00  0.00     0.034 A 
HETATM   10  C   UNL     1      45.347 -11.966   6.166  1.00  0.00     0.032 A 
ENDROOT
BRANCH   1  11
HETATM   11  N   UNL     1      43.639 -13.644   6.147  1.00  0.00    -0.327 N 
HETATM   12  C   UNL     1      42.412 -13.732   5.512  1.00  0.00     0.223 C 
HETATM   13  O   UNL     1      41.640 -12.808   5.283  1.00  0.00    -0.273 OA
HETATM   14  H   UNL     1      44.201 -14.484   6.166  1.00  0.00     0.169 HD
BRANCH  12  15
HETATM   15  C   UNL     1      42.053 -15.155   5.111  1.00  0.00     0.116 C 
BRANCH  15  16
HETATM   16  C   UNL     1      42.207 -15.454   3.593  1.00  0.00    -0.012 C 
HETATM   17  C   UNL     1      43.040 -14.330   2.927  1.00  0.00     0.020 C 
HETATM   18  C   UNL     1      40.837 -15.473   2.875  1.00  0.00     0.020 C 
BRANCH  16  19
HETATM   19  C   UNL     1      42.861 -16.849   3.451  1.00  0.00    -0.050 A 
HETATM   20  C   UNL     1      43.788 -17.348   4.383  1.00  0.00     0.008 A 
HETATM   21  C   UNL     1      44.365 -18.613   4.228  1.00  0.00     0.001 A 
HETATM   22  C   UNL     1      44.023 -19.413   3.143  1.00  0.00     0.000 A 
HETATM   23  C   UNL     1      43.100 -18.950   2.212  1.00  0.00     0.001 A 
HETATM   24  C   UNL     1      42.526 -17.685   2.366  1.00  0.00     0.008 A 
ENDBRANCH  16  19
ENDBRANCH  15  16
ENDBRANCH  12  15
ENDBRANCH   1  11
BRANCH   8  25
HETATM   25  C   UNL     1      43.149 -10.115  10.702  1.00  0.00     0.270 C 
HETATM   26  N   UNL     1      43.318 -11.170  11.557  1.00  0.00    -0.365 N 
HETATM   27  H   UNL     1      44.116 -11.780  11.423  1.00  0.00     0.159 HD
HETATM   28  H   UNL     1      42.648 -11.329  12.292  1.00  0.00     0.159 HD
HETATM   29  O   UNL     1      42.195  -9.354  10.817  1.00  0.00    -0.266 OA
ENDBRANCH   8  25
TORSDOF 5
ENDMDL
MODEL 5
REMARK VINA RESULT:      -8.2      5.707      7.792
REMARK  5 active torsions:
REMARK  status: ('A' for Active; 'I' for Inactive)
REMARK    1  A    between atoms: C_2  and  C_3 
REMARK    2  A    between atoms: C_2  and  C_9 
REMARK    3  A    between atoms: C_9  and  C_10 
REMARK       I    between atoms: C_10  and  N_11 
REMARK    4  A    between atoms: N_11  and  C_12 
REMARK    5  A    between atoms: C_19  and  C_20 
REMARK       I    between atoms: C_20  and  N_21 
ROOT
HETATM    1  C   UNL     1      43.438 -11.829   6.970  1.00  0.00     0.035 A 
HETATM    2  C   UNL     1      43.106 -10.574   7.498  1.00  0.00     0.046 A 
HETATM    3  C   UNL     1      44.133  -9.665   7.837  1.00  0.00     0.030 A 
HETATM    4  C   UNL     1      45.454 -10.040   7.630  1.00  0.00     0.063 A 
HETATM    5  N   UNL     1      46.204  -8.974   8.045  1.00  0.00    -0.277 N 
HETATM    6  H   UNL     1      47.214  -8.894   8.039  1.00  0.00     0.189 HD
HETATM    7  N   UNL     1      45.488  -7.938   8.511  1.00  0.00    -0.168 NA
HETATM    8  C   UNL     1      44.205  -8.350   8.391  1.00  0.00     0.156 A 
HETATM    9  C   UNL     1      45.822 -11.278   7.103  1.00  0.00     0.034 A 
HETATM   10  C   UNL     1      44.787 -12.164   6.781  1.00  0.00     0.032 A 
ENDROOT
BRANCH   1  11
HETATM   11  N   UNL     1      42.487 -12.816   6.635  1.00  0.00    -0.327 N 
HETATM   12  C   UNL     1      42.332 -13.459   5.419  1.00  0.00     0.223 C 
HETATM   13  O   UNL     1      43.066 -13.361   4.442  1.00  0.00    -0.273 OA
HETATM   14  H   UNL     1      41.851 -13.084   7.374  1.00  0.00     0.169 HD
BRANCH  12  15
HETATM   15  C   UNL     1      41.090 -14.337   5.366  1.00  0.00     0.116 C 
BRANCH  15  16
HETATM   16  C   UNL     1      41.322 -15.806   5.819  1.00  0.00    -0.012 C 
HETATM   17  C   UNL     1      39.967 -16.445   6.215  1.00  0.00     0.020 C 
HETATM   18  C   UNL     1      42.227 -15.878   7.072  1.00  0.00     0.020 C 
BRANCH  16  19
HETATM   19  C   UNL     1      42.020 -16.553   4.658  1.00  0.00    -0.050 A 
HETATM   20  C   UNL     1      41.555 -16.496   3.333  1.00  0.00     0.008 A 
HETATM   21  C   UNL     1      42.206 -17.183   2.304  1.00  0.00     0.001 A 
HETATM   22  C   UNL     1      43.343 -17.938   2.572  1.00  0.00     0.000 A 
HETATM   23  C   UNL     1      43.832 -18.003   3.871  1.00  0.00     0.001 A 
HETATM   24  C   UNL     1      43.180 -17.318   4.901  1.00  0.00     0.008 A 
ENDBRANCH  16  19
ENDBRANCH  15  16
ENDBRANCH  12  15
ENDBRANCH   1  11
BRANCH   8  25
HETATM   25  C   UNL     1      43.088  -7.491   8.808  1.00  0.00     0.270 C 
HETATM   26  N   UNL     1      42.882  -7.460  10.160  1.00  0.00    -0.365 N 
HETATM   27  H   UNL     1      43.487  -8.014  10.755  1.00  0.00     0.159 HD
HETATM   28  H   UNL     1      42.134  -6.902  10.539  1.00  0.00     0.159 HD
HETATM   29  O   UNL     1      42.377  -6.846   8.045  1.00  0.00    -0.266 OA
ENDBRANCH   8  25
TORSDOF 5
ENDMDL
MODEL 6
REMARK VINA RESULT:      -8.1      3.226      8.589
REMARK  5 active torsions:
REMARK  status: ('A' for Active; 'I' for Inactive)
REMARK    1  A    between atoms: C_2  and  C_3 
REMARK    2  A    between atoms: C_2  and  C_9 
REMARK    3  A    between atoms: C_9  and  C_10 
REMARK       I    between atoms: C_10  and  N_11 
REMARK    4  A    between atoms: N_11  and  C_12 
REMARK    5  A    between atoms: C_19  and  C_20 
REMARK       I    between atoms: C_20  and  N_21 
ROOT
HETATM    1  C   UNL     1      42.435 -16.098   2.504  1.00  0.00     0.035 A 
HETATM    2  C   UNL     1      42.250 -15.927   3.883  1.00  0.00     0.046 A 
HETATM    3  C   UNL     1      42.794 -16.870   4.783  1.00  0.00     0.030 A 
HETATM    4  C   UNL     1      43.509 -17.946   4.275  1.00  0.00     0.063 A 
HETATM    5  N   UNL     1      43.903 -18.669   5.366  1.00  0.00    -0.277 N 
HETATM    6  H   UNL     1      44.446 -19.524   5.373  1.00  0.00     0.189 HD
HETATM    7  N   UNL     1      43.502 -18.163   6.543  1.00  0.00    -0.168 NA
HETATM    8  C   UNL     1      42.812 -17.050   6.200  1.00  0.00     0.156 A 
HETATM    9  C   UNL     1      43.718 -18.147   2.910  1.00  0.00     0.034 A 
HETATM   10  C   UNL     1      43.163 -17.202   2.037  1.00  0.00     0.032 A 
ENDROOT
BRANCH   1  11
HETATM   11  N   UNL     1      41.901 -15.232   1.526  1.00  0.00    -0.327 N 
HETATM   12  C   UNL     1      40.621 -15.242   1.000  1.00  0.00     0.223 C 
HETATM   13  O   UNL     1      39.685 -15.942   1.368  1.00  0.00    -0.273 OA
HETATM   14  H   UNL     1      42.529 -14.521   1.178  1.00  0.00     0.169 HD
BRANCH  12  15
HETATM   15  C   UNL     1      40.450 -14.274  -0.162  1.00  0.00     0.116 C 
BRANCH  15  16
HETATM   16  C   UNL     1      39.915 -12.872   0.242  1.00  0.00    -0.012 C 
HETATM   17  C   UNL     1      41.090 -11.863   0.287  1.00  0.00     0.020 C 
HETATM   18  C   UNL     1      39.291 -12.888   1.657  1.00  0.00     0.020 C 
BRANCH  16  19
HETATM   19  C   UNL     1      38.822 -12.473  -0.778  1.00  0.00    -0.050 A 
HETATM   20  C   UNL     1      38.321 -13.368  -1.740  1.00  0.00     0.008 A 
HETATM   21  C   UNL     1      37.333 -12.979  -2.650  1.00  0.00     0.001 A 
HETATM   22  C   UNL     1      36.816 -11.688  -2.617  1.00  0.00     0.000 A 
HETATM   23  C   UNL     1      37.284 -10.785  -1.669  1.00  0.00     0.001 A 
HETATM   24  C   UNL     1      38.273 -11.173  -0.761  1.00  0.00     0.008 A 
ENDBRANCH  16  19
ENDBRANCH  15  16
ENDBRANCH  12  15
ENDBRANCH   1  11
BRANCH   8  25
HETATM   25  C   UNL     1      42.190 -16.197   7.221  1.00  0.00     0.270 C 
HETATM   26  N   UNL     1      43.039 -15.817   8.225  1.00  0.00    -0.365 N 
HETATM   27  H   UNL     1      43.999 -16.142   8.197  1.00  0.00     0.159 HD
HETATM   28  H   UNL     1      42.699 -15.236   8.974  1.00  0.00     0.159 HD
HETATM   29  O   UNL     1      41.018 -15.838   7.215  1.00  0.00    -0.266 OA
ENDBRANCH   8  25
TORSDOF 5
ENDMDL
MODEL 7
REMARK VINA RESULT:      -8.0      2.083      3.583
REMARK  5 active torsions:
REMARK  status: ('A' for Active; 'I' for Inactive)
REMARK    1  A    between atoms: C_2  and  C_3 
REMARK    2  A    between atoms: C_2  and  C_9 
REMARK    3  A    between atoms: C_9  and  C_10 
REMARK       I    between atoms: C_10  and  N_11 
REMARK    4  A    between atoms: N_11  and  C_12 
REMARK    5  A    between atoms: C_19  and  C_20 
REMARK       I    between atoms: C_20  and  N_21 
ROOT
HETATM    1  C   UNL     1      41.125 -13.443   0.814  1.00  0.00     0.035 A 
HETATM    2  C   UNL     1      40.426 -14.087  -0.217  1.00  0.00     0.046 A 
HETATM    3  C   UNL     1      39.736 -13.318  -1.179  1.00  0.00     0.030 A 
HETATM    4  C   UNL     1      39.774 -11.933  -1.082  1.00  0.00     0.063 A 
HETATM    5  N   UNL     1      39.030 -11.475  -2.134  1.00  0.00    -0.277 N 
HETATM    6  H   UNL     1      38.839 -10.510  -2.376  1.00  0.00     0.189 HD
HETATM    7  N   UNL     1      38.504 -12.439  -2.905  1.00  0.00    -0.168 NA
HETATM    8  C   UNL     1      38.930 -13.586  -2.327  1.00  0.00     0.156 A 
HETATM    9  C   UNL     1      40.462 -11.258  -0.074  1.00  0.00     0.034 A 
HETATM   10  C   UNL     1      41.132 -12.042   0.873  1.00  0.00     0.032 A 
ENDROOT
BRANCH   1  11
HETATM   11  N   UNL     1      41.813 -14.124   1.841  1.00  0.00    -0.327 N 
HETATM   12  C   UNL     1      41.856 -13.801   3.186  1.00  0.00     0.223 C 
HETATM   13  O   UNL     1      41.213 -12.920   3.746  1.00  0.00    -0.273 OA
HETATM   14  H   UNL     1      42.329 -14.945   1.556  1.00  0.00     0.169 HD
BRANCH  12  15
HETATM   15  C   UNL     1      42.840 -14.655   3.971  1.00  0.00     0.116 C 
BRANCH  15  16
HETATM   16  C   UNL     1      42.211 -15.910   4.640  1.00  0.00    -0.012 C 
HETATM   17  C   UNL     1      40.672 -15.870   4.470  1.00  0.00     0.020 C 
HETATM   18  C   UNL     1      42.487 -15.941   6.162  1.00  0.00     0.020 C 
BRANCH  16  19
HETATM   19  C   UNL     1      42.854 -17.161   3.994  1.00  0.00    -0.050 A 
HETATM   20  C   UNL     1      42.524 -17.597   2.698  1.00  0.00     0.008 A 
HETATM   21  C   UNL     1      43.120 -18.732   2.140  1.00  0.00     0.001 A 
HETATM   22  C   UNL     1      44.065 -19.455   2.860  1.00  0.00     0.000 A 
HETATM   23  C   UNL     1      44.419 -19.041   4.138  1.00  0.00     0.001 A 
HETATM   24  C   UNL     1      43.821 -17.907   4.697  1.00  0.00     0.008 A 
ENDBRANCH  16  19
ENDBRANCH  15  16
ENDBRANCH  12  15
ENDBRANCH   1  11
BRANCH   8  25
HETATM   25  C   UNL     1      38.558 -14.897  -2.876  1.00  0.00     0.270 C 
HETATM   26  N   UNL     1      38.072 -14.851  -4.155  1.00  0.00    -0.365 N 
HETATM   27  H   UNL     1      38.003 -13.949  -4.614  1.00  0.00     0.159 HD
HETATM   28  H   UNL     1      37.786 -15.701  -4.612  1.00  0.00     0.159 HD
HETATM   29  O   UNL     1      38.652 -15.961  -2.274  1.00  0.00    -0.266 OA
ENDBRANCH   8  25
TORSDOF 5
ENDMDL
MODEL 8
REMARK VINA RESULT:      -7.9      4.810      8.564
REMARK  5 active torsions:
REMARK  status: ('A' for Active; 'I' for Inactive)
REMARK    1  A    between atoms: C_2  and  C_3 
REMARK    2  A    between atoms: C_2  and  C_9 
REMARK    3  A    between atoms: C_9  and  C_10 
REMARK       I    between atoms: C_10  and  N_11 
REMARK    4  A    between atoms: N_11  and  C_12 
REMARK    5  A    between atoms: C_19  and  C_20 
REMARK       I    between atoms: C_20  and  N_21 
ROOT
HETATM    1  C   UNL     1      42.933 -15.403   4.320  1.00  0.00     0.035 A 
HETATM    2  C   UNL     1      43.204 -16.668   4.860  1.00  0.00     0.046 A 
HETATM    3  C   UNL     1      43.474 -17.752   3.996  1.00  0.00     0.030 A 
HETATM    4  C   UNL     1      43.471 -17.534   2.625  1.00  0.00     0.063 A 
HETATM    5  N   UNL     1      43.760 -18.746   2.063  1.00  0.00    -0.277 N 
HETATM    6  H   UNL     1      43.840 -18.962   1.076  1.00  0.00     0.189 HD
HETATM    7  N   UNL     1      43.946 -19.739   2.947  1.00  0.00    -0.168 NA
HETATM    8  C   UNL     1      43.771 -19.141   4.148  1.00  0.00     0.156 A 
HETATM    9  C   UNL     1      43.209 -16.289   2.052  1.00  0.00     0.034 A 
HETATM   10  C   UNL     1      42.938 -15.231   2.928  1.00  0.00     0.032 A 
ENDROOT
BRANCH   1  11
HETATM   11  N   UNL     1      42.617 -14.268   5.098  1.00  0.00    -0.327 N 
HETATM   12  C   UNL     1      41.481 -13.482   5.019  1.00  0.00     0.223 C 
HETATM   13  O   UNL     1      40.492 -13.695   4.328  1.00  0.00    -0.273 OA
HETATM   14  H   UNL     1      43.302 -14.008   5.794  1.00  0.00     0.169 HD
BRANCH  12  15
HETATM   15  C   UNL     1      41.559 -12.238   5.892  1.00  0.00     0.116 C 
BRANCH  15  16
HETATM   16  C   UNL     1      42.407 -11.082   5.290  1.00  0.00    -0.012 C 
HETATM   17  C   UNL     1      41.554  -9.791   5.234  1.00  0.00     0.020 C 
HETATM   18  C   UNL     1      42.838 -11.391   3.837  1.00  0.00     0.020 C 
BRANCH  16  19
HETATM   19  C   UNL     1      43.676 -10.925   6.161  1.00  0.00    -0.050 A 
HETATM   20  C   UNL     1      43.662 -10.280   7.410  1.00  0.00     0.008 A 
HETATM   21  C   UNL     1      44.825 -10.152   8.175  1.00  0.00     0.001 A 
HETATM   22  C   UNL     1      46.030 -10.671   7.715  1.00  0.00     0.000 A 
HETATM   23  C   UNL     1      46.072 -11.323   6.488  1.00  0.00     0.001 A 
HETATM   24  C   UNL     1      44.910 -11.450   5.722  1.00  0.00     0.008 A 
ENDBRANCH  16  19
ENDBRANCH  15  16
ENDBRANCH  12  15
ENDBRANCH   1  11
BRANCH   8  25
HETATM   25  C   UNL     1      43.885 -19.903   5.400  1.00  0.00     0.270 C 
HETATM   26  N   UNL     1      44.545 -21.095   5.270  1.00  0.00    -0.365 N 
HETATM   27  H   UNL     1      44.891 -21.360   4.355  1.00  0.00     0.159 HD
HETATM   28  H   UNL     1      44.666 -21.688   6.074  1.00  0.00     0.159 HD
HETATM   29  O   UNL     1      43.439 -19.542   6.483  1.00  0.00    -0.266 OA
ENDBRANCH   8  25
TORSDOF 5
ENDMDL
MODEL 9
REMARK VINA RESULT:      -7.8      6.345      9.260
REMARK  5 active torsions:
REMARK  status: ('A' for Active; 'I' for Inactive)
REMARK    1  A    between atoms: C_2  and  C_3 
REMARK    2  A    between atoms: C_2  and  C_9 
REMARK    3  A    between atoms: C_9  and  C_10 
REMARK       I    between atoms: C_10  and  N_11 
REMARK    4  A    between atoms: N_11  and  C_12 
REMARK    5  A    between atoms: C_19  and  C_20 
REMARK       I    between atoms: C_20  and  N_21 
ROOT
HETATM    1  C   UNL     1      43.163 -13.698   6.468  1.00  0.00     0.035 A 
HETATM    2  C   UNL     1      42.201 -13.433   5.484  1.00  0.00     0.046 A 
HETATM    3  C   UNL     1      41.902 -14.418   4.517  1.00  0.00     0.030 A 
HETATM    4  C   UNL     1      42.569 -15.634   4.571  1.00  0.00     0.063 A 
HETATM    5  N   UNL     1      42.076 -16.366   3.527  1.00  0.00    -0.277 N 
HETATM    6  H   UNL     1      42.336 -17.308   3.261  1.00  0.00     0.189 HD
HETATM    7  N   UNL     1      41.149 -15.732   2.792  1.00  0.00    -0.168 NA
HETATM    8  C   UNL     1      41.031 -14.524   3.390  1.00  0.00     0.156 A 
HETATM    9  C   UNL     1      43.529 -15.935   5.538  1.00  0.00     0.034 A 
HETATM   10  C   UNL     1      43.814 -14.940   6.481  1.00  0.00     0.032 A 
ENDROOT
BRANCH   1  11
HETATM   11  N   UNL     1      43.556 -12.766   7.453  1.00  0.00    -0.327 N 
HETATM   12  C   UNL     1      44.448 -11.717   7.314  1.00  0.00     0.223 C 
HETATM   13  O   UNL     1      44.979 -11.343   6.275  1.00  0.00    -0.273 OA
HETATM   14  H   UNL     1      43.129 -12.881   8.362  1.00  0.00     0.169 HD
BRANCH  12  15
HETATM   15  C   UNL     1      44.764 -11.028   8.633  1.00  0.00     0.116 C 
BRANCH  15  16
HETATM   16  C   UNL     1      44.170  -9.598   8.770  1.00  0.00    -0.012 C 
HETATM   17  C   UNL     1      43.030  -9.411   7.739  1.00  0.00     0.020 C 
HETATM   18  C   UNL     1      45.228  -8.512   8.462  1.00  0.00     0.020 C 
BRANCH  16  19
HETATM   19  C   UNL     1      43.691  -9.424  10.231  1.00  0.00    -0.050 A 
HETATM   20  C   UNL     1      43.462  -8.162  10.807  1.00  0.00     0.008 A 
HETATM   21  C   UNL     1      43.031  -8.036  12.131  1.00  0.00     0.001 A 
HETATM   22  C   UNL     1      42.809  -9.167  12.910  1.00  0.00     0.000 A 
HETATM   23  C   UNL     1      43.016 -10.427  12.363  1.00  0.00     0.001 A 
HETATM   24  C   UNL     1      43.450 -10.554  11.040  1.00  0.00     0.008 A 
ENDBRANCH  16  19
ENDBRANCH  15  16
ENDBRANCH  12  15
ENDBRANCH   1  11
BRANCH   8  25
HETATM   25  C   UNL     1      40.102 -13.508   2.874  1.00  0.00     0.270 C 
HETATM   26  N   UNL     1      38.810 -13.943   2.753  1.00  0.00    -0.365 N 
HETATM   27  H   UNL     1      38.594 -14.898   3.013  1.00  0.00     0.159 HD
HETATM   28  H   UNL     1      38.104 -13.317   2.402  1.00  0.00     0.159 HD
HETATM   29  O   UNL     1      40.417 -12.365   2.563  1.00  0.00    -0.266 OA
ENDBRANCH   8  25
TORSDOF 5
ENDMDL
MODEL 10
REMARK VINA RESULT:      -7.8      5.865      8.316
REMARK  5 active torsions:
REMARK  status: ('A' for Active; 'I' for Inactive)
REMARK    1  A    between atoms: C_2  and  C_3 
REMARK    2  A    between atoms: C_2  and  C_9 
REMARK    3  A    between atoms: C_9  and  C_10 
REMARK       I    between atoms: C_10  and  N_11 
REMARK    4  A    between atoms: N_11  and  C_12 
REMARK    5  A    between atoms: C_19  and  C_20 
REMARK       I    between atoms: C_20  and  N_21 
ROOT
HETATM    1  C   UNL     1      44.533 -11.292   6.388  1.00  0.00     0.035 A 
HETATM    2  C   UNL     1      43.543 -10.797   7.248  1.00  0.00     0.046 A 
HETATM    3  C   UNL     1      43.920 -10.150   8.446  1.00  0.00     0.030 A 
HETATM    4  C   UNL     1      45.271 -10.013   8.737  1.00  0.00     0.063 A 
HETATM    5  N   UNL     1      45.319  -9.358   9.937  1.00  0.00    -0.277 N 
HETATM    6  H   UNL     1      46.146  -9.089  10.456  1.00  0.00     0.189 HD
HETATM    7  N   UNL     1      44.118  -9.060  10.457  1.00  0.00    -0.168 NA
HETATM    8  C   UNL     1      43.241  -9.545   9.548  1.00  0.00     0.156 A 
HETATM    9  C   UNL     1      46.283 -10.488   7.903  1.00  0.00     0.034 A 
HETATM   10  C   UNL     1      45.884 -11.133   6.725  1.00  0.00     0.032 A 
ENDROOT
BRANCH   1  11
HETATM   11  N   UNL     1      44.256 -11.983   5.189  1.00  0.00    -0.327 N 
HETATM   12  C   UNL     1      43.465 -11.561   4.135  1.00  0.00     0.223 C 
HETATM   13  O   UNL     1      42.944 -10.458   4.009  1.00  0.00    -0.273 OA
HETATM   14  H   UNL     1      44.693 -12.890   5.093  1.00  0.00     0.169 HD
BRANCH  12  15
HETATM   15  C   UNL     1      43.250 -12.640   3.084  1.00  0.00     0.116 C 
BRANCH  15  16
HETATM   16  C   UNL     1      42.050 -13.586   3.370  1.00  0.00    -0.012 C 
HETATM   17  C   UNL     1      40.916 -13.305   2.353  1.00  0.00     0.020 C 
HETATM   18  C   UNL     1      41.454 -13.340   4.776  1.00  0.00     0.020 C 
BRANCH  16  19
HETATM   19  C   UNL     1      42.570 -15.042   3.300  1.00  0.00    -0.050 A 
HETATM   20  C   UNL     1      42.595 -15.780   2.103  1.00  0.00     0.008 A 
HETATM   21  C   UNL     1      43.069 -17.095   2.070  1.00  0.00     0.001 A 
HETATM   22  C   UNL     1      43.539 -17.702   3.230  1.00  0.00     0.000 A 
HETATM   23  C   UNL     1      43.537 -16.993   4.425  1.00  0.00     0.001 A 
HETATM   24  C   UNL     1      43.060 -15.679   4.459  1.00  0.00     0.008 A 
ENDBRANCH  16  19
ENDBRANCH  15  16
ENDBRANCH  12  15
ENDBRANCH   1  11
BRANCH   8  25
HETATM   25  C   UNL     1      41.791  -9.425   9.752  1.00  0.00     0.270 C 
HETATM   26  N   UNL     1      41.340 -10.002  10.908  1.00  0.00    -0.365 N 
HETATM   27  H   UNL     1      42.011 -10.457  11.517  1.00  0.00     0.159 HD
HETATM   28  H   UNL     1      40.358  -9.975  11.130  1.00  0.00     0.159 HD
HETATM   29  O   UNL     1      41.018  -8.872   8.978  1.00  0.00    -0.266 OA
ENDBRANCH   8  25
TORSDOF 5
ENDMDL
