MODEL 1
REMARK VINA RESULT:      -9.0      0.000      0.000
REMARK  8 active torsions:
REMARK  status: ('A' for Active; 'I' for Inactive)
REMARK    1  A    between atoms: C_6  and  C_7 
REMARK       I    between atoms: C_7  and  N_8 
REMARK    2  A    between atoms: N_8  and  C_9 
REMARK    3  A    between atoms: C_9  and  C_10 
REMARK    4  A    between atoms: N_15  and  C_17 
REMARK    5  A    between atoms: C_17  and  C_18 
REMARK    6  A    between atoms: C_21  and  C_22 
REMARK    7  A    between atoms: C_23  and  C_24 
REMARK    8  A    between atoms: C_24  and  O_25 
ROOT
HETATM    1  C   UNL     1      41.817 -12.758   3.213  1.00  0.00     0.140 C 
HETATM    2  O   UNL     1      41.998 -12.639   4.644  1.00  0.00    -0.373 OA
HETATM    3  C   UNL     1      43.164 -11.818   4.876  1.00  0.00     0.064 C 
HETATM    4  C   UNL     1      44.049 -12.560   5.881  1.00  0.00     0.066 C 
HETATM    5  C   UNL     1      43.355 -12.703   7.229  1.00  0.00     0.238 C 
HETATM    6  N   UNL     1      42.945 -11.353   7.768  1.00  0.00    -0.067 N 
HETATM    7  H   UNL     1      42.372 -11.561   8.595  1.00  0.00     0.280 HD
HETATM    8  C   UNL     1      42.028 -10.638   6.805  1.00  0.00     0.238 C 
HETATM    9  C   UNL     1      42.695 -10.474   5.445  1.00  0.00     0.066 C 
HETATM   10  C   UNL     1      43.857 -11.647   3.518  1.00  0.00     0.041 C 
HETATM   11  C   UNL     1      43.231 -12.727   2.665  1.00  0.00     0.036 C 
ENDROOT
BRANCH   1  12
HETATM   12  C   UNL     1      41.063 -14.040   2.846  1.00  0.00     0.155 C 
BRANCH  12  13
HETATM   13  N   UNL     1      41.908 -15.218   2.745  1.00  0.00    -0.353 N 
HETATM   14  C   UNL     1      41.995 -16.150   3.757  1.00  0.00     0.270 C 
HETATM   15  O   UNL     1      41.466 -15.957   4.848  1.00  0.00    -0.266 OA
HETATM   16  H   UNL     1      42.283 -15.450   1.839  1.00  0.00     0.162 HD
BRANCH  14  17
HETATM   17  C   UNL     1      42.754 -17.339   3.437  1.00  0.00     0.122 A 
HETATM   18  N   UNL     1      43.837 -17.785   4.161  1.00  0.00    -0.269 N 
HETATM   19  N   UNL     1      44.401 -18.903   3.664  1.00  0.00    -0.177 NA
HETATM   20  C   UNL     1      44.412 -17.191   5.348  1.00  0.00     0.180 C 
HETATM   21  C   UNL     1      43.635 -19.225   2.621  1.00  0.00     0.053 A 
HETATM   22  C   UNL     1      43.911 -20.448   1.828  1.00  0.00     0.072 C 
HETATM   23  C   UNL     1      42.606 -18.278   2.428  1.00  0.00     0.065 A 
ENDBRANCH  14  17
ENDBRANCH  12  13
ENDBRANCH   1  12
BRANCH   6  24
HETATM   24  C   UNL     1      44.067 -10.479   8.291  1.00  0.00     0.273 C 
BRANCH  24  25
HETATM   25  C   UNL     1      43.751  -9.811   9.601  1.00  0.00    -0.033 A 
HETATM   26  C   UNL     1      43.663 -10.570  10.779  1.00  0.00     0.010 A 
HETATM   27  C   UNL     1      43.319  -9.965  11.989  1.00  0.00     0.021 A 
HETATM   28  C   UNL     1      43.059  -8.596  12.038  1.00  0.00     0.017 A 
HETATM   29  C   UNL     1      43.159  -7.829  10.877  1.00  0.00     0.021 A 
HETATM   30  C   UNL     1      43.503  -8.430   9.663  1.00  0.00     0.010 A 
BRANCH  28  31
HETATM   31  C   UNL     1      42.684  -7.984  13.273  1.00  0.00    -0.064 C 
HETATM   32  C   UNL     1      42.381  -7.466  14.314  1.00  0.00    -0.064 C 
BRANCH  32  33
HETATM   33  C   UNL     1      42.017  -6.836  15.595  1.00  0.00     0.114 C 
HETATM   34  C   UNL     1      41.410  -5.454  15.360  1.00  0.00     0.060 C 
HETATM   35  C   UNL     1      41.051  -7.724  16.374  1.00  0.00     0.060 C 
BRANCH  33  36
HETATM   36  O   UNL     1      43.197  -6.686  16.380  1.00  0.00    -0.378 OA
HETATM   37  H   UNL     1      43.711  -7.506  16.289  1.00  0.00     0.211 HD
ENDBRANCH  33  36
ENDBRANCH  32  33
ENDBRANCH  28  31
ENDBRANCH  24  25
ENDBRANCH   6  24
TORSDOF 8
ENDMDL
MODEL 2
REMARK VINA RESULT:      -8.8      2.803      4.708
REMARK  8 active torsions:
REMARK  status: ('A' for Active; 'I' for Inactive)
REMARK    1  A    between atoms: C_6  and  C_7 
REMARK       I    between atoms: C_7  and  N_8 
REMARK    2  A    between atoms: N_8  and  C_9 
REMARK    3  A    between atoms: C_9  and  C_10 
REMARK    4  A    between atoms: N_15  and  C_17 
REMARK    5  A    between atoms: C_17  and  C_18 
REMARK    6  A    between atoms: C_21  and  C_22 
REMARK    7  A    between atoms: C_23  and  C_24 
REMARK    8  A    between atoms: C_24  and  O_25 
ROOT
HETATM    1  C   UNL     1      44.479 -11.410   7.017  1.00  0.00     0.140 C 
HETATM    2  O   UNL     1      43.823 -11.065   8.259  1.00  0.00    -0.373 OA
HETATM    3  C   UNL     1      44.457  -9.876   8.781  1.00  0.00     0.064 C 
HETATM    4  C   UNL     1      44.794 -10.148  10.249  1.00  0.00     0.066 C 
HETATM    5  C   UNL     1      43.533 -10.354  11.076  1.00  0.00     0.238 C 
HETATM    6  N   UNL     1      42.607  -9.167  10.949  1.00  0.00    -0.067 N 
HETATM    7  H   UNL     1      41.741  -9.456  11.420  1.00  0.00     0.280 HD
HETATM    8  C   UNL     1      42.228  -8.927   9.507  1.00  0.00     0.238 C 
HETATM    9  C   UNL     1      43.469  -8.712   8.650  1.00  0.00     0.066 C 
HETATM   10  C   UNL     1      45.718  -9.646   7.936  1.00  0.00     0.041 C 
HETATM   11  C   UNL     1      45.914 -10.968   7.231  1.00  0.00     0.036 C 
ENDROOT
BRANCH   1  12
HETATM   12  C   UNL     1      44.354 -12.905   6.711  1.00  0.00     0.155 C 
BRANCH  12  13
HETATM   13  N   UNL     1      43.472 -13.211   5.597  1.00  0.00    -0.353 N 
HETATM   14  C   UNL     1      42.433 -14.111   5.707  1.00  0.00     0.270 C 
HETATM   15  O   UNL     1      42.289 -14.798   6.714  1.00  0.00    -0.266 OA
HETATM   16  H   UNL     1      43.506 -12.607   4.791  1.00  0.00     0.162 HD
BRANCH  14  17
HETATM   17  C   UNL     1      41.556 -14.183   4.560  1.00  0.00     0.122 A 
HETATM   18  N   UNL     1      40.453 -13.378   4.375  1.00  0.00    -0.269 N 
HETATM   19  N   UNL     1      39.773 -13.639   3.242  1.00  0.00    -0.177 NA
HETATM   20  C   UNL     1      39.968 -12.330   5.246  1.00  0.00     0.180 C 
HETATM   21  C   UNL     1      40.478 -14.601   2.645  1.00  0.00     0.053 A 
HETATM   22  C   UNL     1      40.066 -15.132   1.323  1.00  0.00     0.072 C 
HETATM   23  C   UNL     1      41.587 -14.985   3.429  1.00  0.00     0.065 A 
ENDBRANCH  14  17
ENDBRANCH  12  13
ENDBRANCH   1  12
BRANCH   6  24
HETATM   24  C   UNL     1      43.036  -7.909  11.676  1.00  0.00     0.273 C 
BRANCH  24  25
HETATM   25  C   UNL     1      42.547  -7.837  13.097  1.00  0.00    -0.033 A 
HETATM   26  C   UNL     1      43.199  -7.015  14.029  1.00  0.00     0.010 A 
HETATM   27  C   UNL     1      42.782  -6.983  15.361  1.00  0.00     0.021 A 
HETATM   28  C   UNL     1      41.709  -7.770  15.777  1.00  0.00     0.017 A 
HETATM   29  C   UNL     1      41.043  -8.580  14.856  1.00  0.00     0.021 A 
HETATM   30  C   UNL     1      41.457  -8.615  13.522  1.00  0.00     0.010 A 
BRANCH  28  31
HETATM   31  C   UNL     1      41.299  -7.753  17.146  1.00  0.00    -0.064 C 
HETATM   32  C   UNL     1      40.952  -7.750  18.296  1.00  0.00    -0.064 C 
BRANCH  32  33
HETATM   33  C   UNL     1      40.516  -7.751  19.703  1.00  0.00     0.114 C 
HETATM   34  C   UNL     1      39.254  -8.594  19.874  1.00  0.00     0.060 C 
HETATM   35  C   UNL     1      41.632  -8.262  20.610  1.00  0.00     0.060 C 
BRANCH  33  36
HETATM   36  O   UNL     1      40.222  -6.410  20.090  1.00  0.00    -0.378 OA
HETATM   37  H   UNL     1      39.538  -6.078  19.486  1.00  0.00     0.211 HD
ENDBRANCH  33  36
ENDBRANCH  32  33
ENDBRANCH  28  31
ENDBRANCH  24  25
ENDBRANCH   6  24
TORSDOF 8
ENDMDL
MODEL 3
REMARK VINA RESULT:      -8.3      2.036      3.629
REMARK  8 active torsions:
REMARK  status: ('A' for Active; 'I' for Inactive)
REMARK    1  A    between atoms: C_6  and  C_7 
REMARK       I    between atoms: C_7  and  N_8 
REMARK    2  A    between atoms: N_8  and  C_9 
REMARK    3  A    between atoms: C_9  and  C_10 
REMARK    4  A    between atoms: N_15  and  C_17 
REMARK    5  A    between atoms: C_17  and  C_18 
REMARK    6  A    between atoms: C_21  and  C_22 
REMARK    7  A    between atoms: C_23  and  C_24 
REMARK    8  A    between atoms: C_24  and  O_25 
ROOT
HETATM    1  C   UNL     1      43.395 -11.197   6.383  1.00  0.00     0.140 C 
HETATM    2  O   UNL     1      42.870 -10.586   7.585  1.00  0.00    -0.373 OA
HETATM    3  C   UNL     1      43.988 -10.244   8.434  1.00  0.00     0.064 C 
HETATM    4  C   UNL     1      43.679 -10.788   9.832  1.00  0.00     0.066 C 
HETATM    5  C   UNL     1      42.462 -10.099  10.435  1.00  0.00     0.238 C 
HETATM    6  N   UNL     1      42.655  -8.601  10.471  1.00  0.00    -0.067 N 
HETATM    7  H   UNL     1      41.743  -8.225  10.759  1.00  0.00     0.280 HD
HETATM    8  C   UNL     1      42.906  -8.053   9.088  1.00  0.00     0.238 C 
HETATM    9  C   UNL     1      44.122  -8.717   8.455  1.00  0.00     0.066 C 
HETATM   10  C   UNL     1      45.225 -10.913   7.819  1.00  0.00     0.041 C 
HETATM   11  C   UNL     1      44.638 -11.923   6.860  1.00  0.00     0.036 C 
ENDROOT
BRANCH   1  12
HETATM   12  C   UNL     1      42.370 -12.131   5.733  1.00  0.00     0.155 C 
BRANCH  12  13
HETATM   13  N   UNL     1      42.905 -13.428   5.355  1.00  0.00    -0.353 N 
HETATM   14  C   UNL     1      42.216 -14.602   5.579  1.00  0.00     0.270 C 
HETATM   15  O   UNL     1      41.177 -14.616   6.233  1.00  0.00    -0.266 OA
HETATM   16  H   UNL     1      43.706 -13.446   4.744  1.00  0.00     0.162 HD
BRANCH  14  17
HETATM   17  C   UNL     1      42.813 -15.786   5.003  1.00  0.00     0.122 A 
HETATM   18  N   UNL     1      43.655 -16.639   5.684  1.00  0.00    -0.269 N 
HETATM   19  N   UNL     1      44.107 -17.666   4.939  1.00  0.00    -0.177 NA
HETATM   20  C   UNL     1      44.091 -16.538   7.059  1.00  0.00     0.180 C 
HETATM   21  C   UNL     1      43.504 -17.511   3.759  1.00  0.00     0.053 A 
HETATM   22  C   UNL     1      43.715 -18.493   2.667  1.00  0.00     0.072 C 
HETATM   23  C   UNL     1      42.700 -16.351   3.742  1.00  0.00     0.065 A 
ENDBRANCH  14  17
ENDBRANCH  12  13
ENDBRANCH   1  12
BRANCH   6  24
HETATM   24  C   UNL     1      43.627  -8.083  11.511  1.00  0.00     0.273 C 
BRANCH  24  25
HETATM   25  C   UNL     1      43.038  -7.982  12.891  1.00  0.00    -0.033 A 
HETATM   26  C   UNL     1      43.368  -6.901  13.724  1.00  0.00     0.010 A 
HETATM   27  C   UNL     1      42.865  -6.828  15.025  1.00  0.00     0.021 A 
HETATM   28  C   UNL     1      42.026  -7.832  15.508  1.00  0.00     0.017 A 
HETATM   29  C   UNL     1      41.678  -8.903  14.683  1.00  0.00     0.021 A 
HETATM   30  C   UNL     1      42.179  -8.980  13.381  1.00  0.00     0.010 A 
BRANCH  28  31
HETATM   31  C   UNL     1      41.532  -7.767  16.846  1.00  0.00    -0.064 C 
HETATM   32  C   UNL     1      41.105  -7.708  17.968  1.00  0.00    -0.064 C 
BRANCH  32  33
HETATM   33  C   UNL     1      40.577  -7.627  19.341  1.00  0.00     0.114 C 
HETATM   34  C   UNL     1      40.427  -6.170  19.773  1.00  0.00     0.060 C 
HETATM   35  C   UNL     1      39.244  -8.361  19.447  1.00  0.00     0.060 C 
BRANCH  33  36
HETATM   36  O   UNL     1      41.497  -8.270  20.221  1.00  0.00    -0.378 OA
HETATM   37  H   UNL     1      41.795  -7.605  20.864  1.00  0.00     0.211 HD
ENDBRANCH  33  36
ENDBRANCH  32  33
ENDBRANCH  28  31
ENDBRANCH  24  25
ENDBRANCH   6  24
TORSDOF 8
ENDMDL
MODEL 4
REMARK VINA RESULT:      -8.3      3.576     12.264
REMARK  8 active torsions:
REMARK  status: ('A' for Active; 'I' for Inactive)
REMARK    1  A    between atoms: C_6  and  C_7 
REMARK       I    between atoms: C_7  and  N_8 
REMARK    2  A    between atoms: N_8  and  C_9 
REMARK    3  A    between atoms: C_9  and  C_10 
REMARK    4  A    between atoms: N_15  and  C_17 
REMARK    5  A    between atoms: C_17  and  C_18 
REMARK    6  A    between atoms: C_21  and  C_22 
REMARK    7  A    between atoms: C_23  and  C_24 
REMARK    8  A    between atoms: C_24  and  O_25 
ROOT
HETATM    1  C   UNL     1      44.445 -10.421  10.388  1.00  0.00     0.140 C 
HETATM    2  O   UNL     1      43.931 -11.064   9.198  1.00  0.00    -0.373 OA
HETATM    3  C   UNL     1      44.386 -10.308   8.054  1.00  0.00     0.064 C 
HETATM    4  C   UNL     1      43.164 -10.044   7.170  1.00  0.00     0.066 C 
HETATM    5  C   UNL     1      42.590 -11.342   6.620  1.00  0.00     0.238 C 
HETATM    6  N   UNL     1      43.643 -12.119   5.864  1.00  0.00    -0.067 N 
HETATM    7  H   UNL     1      43.205 -13.025   5.657  1.00  0.00     0.280 HD
HETATM    8  C   UNL     1      44.827 -12.429   6.747  1.00  0.00     0.238 C 
HETATM    9  C   UNL     1      45.431 -11.149   7.312  1.00  0.00     0.066 C 
HETATM   10  C   UNL     1      44.990  -9.008   8.601  1.00  0.00     0.041 C 
HETATM   11  C   UNL     1      44.475  -8.950  10.020  1.00  0.00     0.036 C 
ENDROOT
BRANCH   1  12
HETATM   12  C   UNL     1      43.567 -10.713  11.609  1.00  0.00     0.155 C 
BRANCH  12  13
HETATM   13  N   UNL     1      43.113  -9.524  12.312  1.00  0.00    -0.353 N 
HETATM   14  C   UNL     1      41.863  -9.442  12.888  1.00  0.00     0.270 C 
HETATM   15  O   UNL     1      41.023 -10.320  12.714  1.00  0.00    -0.266 OA
HETATM   16  H   UNL     1      43.802  -8.827  12.547  1.00  0.00     0.162 HD
BRANCH  14  17
HETATM   17  C   UNL     1      41.627  -8.257  13.683  1.00  0.00     0.122 A 
HETATM   18  N   UNL     1      40.828  -7.206  13.289  1.00  0.00    -0.269 N 
HETATM   19  N   UNL     1      40.773  -6.201  14.183  1.00  0.00    -0.177 NA
HETATM   20  C   UNL     1      40.083  -7.077  12.056  1.00  0.00     0.180 C 
HETATM   21  C   UNL     1      41.510  -6.627  15.209  1.00  0.00     0.053 A 
HETATM   22  C   UNL     1      41.653  -5.802  16.433  1.00  0.00     0.072 C 
HETATM   23  C   UNL     1      42.075  -7.893  14.944  1.00  0.00     0.065 A 
ENDBRANCH  14  17
ENDBRANCH  12  13
ENDBRANCH   1  12
BRANCH   6  24
HETATM   24  C   UNL     1      44.032 -11.563   4.509  1.00  0.00     0.273 C 
BRANCH  24  25
HETATM   25  C   UNL     1      43.083 -11.946   3.406  1.00  0.00    -0.033 A 
HETATM   26  C   UNL     1      43.013 -13.277   2.964  1.00  0.00     0.010 A 
HETATM   27  C   UNL     1      42.173 -13.630   1.906  1.00  0.00     0.021 A 
HETATM   28  C   UNL     1      41.393 -12.659   1.278  1.00  0.00     0.017 A 
HETATM   29  C   UNL     1      41.442 -11.337   1.720  1.00  0.00     0.021 A 
HETATM   30  C   UNL     1      42.282 -10.979   2.778  1.00  0.00     0.010 A 
BRANCH  28  31
HETATM   31  C   UNL     1      40.552 -13.019   0.181  1.00  0.00    -0.064 C 
HETATM   32  C   UNL     1      39.836 -13.313  -0.739  1.00  0.00    -0.064 C 
BRANCH  32  33
HETATM   33  C   UNL     1      38.951 -13.673  -1.860  1.00  0.00     0.114 C 
HETATM   34  C   UNL     1      39.315 -12.875  -3.110  1.00  0.00     0.060 C 
HETATM   35  C   UNL     1      39.021 -15.172  -2.137  1.00  0.00     0.060 C 
BRANCH  33  36
HETATM   36  O   UNL     1      37.607 -13.362  -1.497  1.00  0.00    -0.378 OA
HETATM   37  H   UNL     1      37.110 -13.225  -2.320  1.00  0.00     0.211 HD
ENDBRANCH  33  36
ENDBRANCH  32  33
ENDBRANCH  28  31
ENDBRANCH  24  25
ENDBRANCH   6  24
TORSDOF 8
ENDMDL
MODEL 5
REMARK VINA RESULT:      -8.2      3.265     11.493
REMARK  8 active torsions:
REMARK  status: ('A' for Active; 'I' for Inactive)
REMARK    1  A    between atoms: C_6  and  C_7 
REMARK       I    between atoms: C_7  and  N_8 
REMARK    2  A    between atoms: N_8  and  C_9 
REMARK    3  A    between atoms: C_9  and  C_10 
REMARK    4  A    between atoms: N_15  and  C_17 
REMARK    5  A    between atoms: C_17  and  C_18 
REMARK    6  A    between atoms: C_21  and  C_22 
REMARK    7  A    between atoms: C_23  and  C_24 
REMARK    8  A    between atoms: C_24  and  O_25 
ROOT
HETATM    1  C   UNL     1      44.542 -11.579   5.924  1.00  0.00     0.140 C 
HETATM    2  O   UNL     1      44.089 -12.932   6.162  1.00  0.00    -0.373 OA
HETATM    3  C   UNL     1      42.777 -13.071   5.572  1.00  0.00     0.064 C 
HETATM    4  C   UNL     1      41.867 -13.696   6.633  1.00  0.00     0.066 C 
HETATM    5  C   UNL     1      42.322 -15.103   6.992  1.00  0.00     0.238 C 
HETATM    6  N   UNL     1      42.391 -15.977   5.762  1.00  0.00    -0.067 N 
HETATM    7  H   UNL     1      42.833 -16.848   6.080  1.00  0.00     0.280 HD
HETATM    8  C   UNL     1      43.330 -15.393   4.733  1.00  0.00     0.238 C 
HETATM    9  C   UNL     1      42.900 -13.984   4.347  1.00  0.00     0.066 C 
HETATM   10  C   UNL     1      42.320 -11.659   5.183  1.00  0.00     0.041 C 
HETATM   11  C   UNL     1      43.265 -10.761   5.948  1.00  0.00     0.036 C 
ENDROOT
BRANCH   1  12
HETATM   12  C   UNL     1      45.557 -11.131   6.979  1.00  0.00     0.155 C 
BRANCH  12  13
HETATM   13  N   UNL     1      44.959 -10.563   8.176  1.00  0.00    -0.353 N 
HETATM   14  C   UNL     1      45.157  -9.249   8.545  1.00  0.00     0.270 C 
HETATM   15  O   UNL     1      45.961  -8.536   7.952  1.00  0.00    -0.266 OA
HETATM   16  H   UNL     1      44.231 -11.090   8.632  1.00  0.00     0.162 HD
BRANCH  14  17
HETATM   17  C   UNL     1      44.367  -8.799   9.669  1.00  0.00     0.122 A 
HETATM   18  N   UNL     1      43.362  -7.860   9.584  1.00  0.00    -0.269 N 
HETATM   19  N   UNL     1      42.777  -7.582  10.764  1.00  0.00    -0.177 NA
HETATM   20  C   UNL     1      42.900  -7.165   8.403  1.00  0.00     0.180 C 
HETATM   21  C   UNL     1      43.376  -8.396  11.633  1.00  0.00     0.053 A 
HETATM   22  C   UNL     1      42.964  -8.421  13.058  1.00  0.00     0.072 C 
HETATM   23  C   UNL     1      44.382  -9.164  11.007  1.00  0.00     0.065 A 
ENDBRANCH  14  17
ENDBRANCH  12  13
ENDBRANCH   1  12
BRANCH   6  24
HETATM   24  C   UNL     1      41.060 -16.414   5.183  1.00  0.00     0.273 C 
BRANCH  24  25
HETATM   25  C   UNL     1      40.819 -15.915   3.784  1.00  0.00    -0.033 A 
HETATM   26  C   UNL     1      41.429 -16.553   2.692  1.00  0.00     0.010 A 
HETATM   27  C   UNL     1      41.251 -16.064   1.395  1.00  0.00     0.021 A 
HETATM   28  C   UNL     1      40.462 -14.936   1.175  1.00  0.00     0.017 A 
HETATM   29  C   UNL     1      39.839 -14.304   2.252  1.00  0.00     0.021 A 
HETATM   30  C   UNL     1      40.014 -14.789   3.550  1.00  0.00     0.010 A 
BRANCH  28  31
HETATM   31  C   UNL     1      40.302 -14.425  -0.149  1.00  0.00    -0.064 C 
HETATM   32  C   UNL     1      40.178 -13.994  -1.264  1.00  0.00    -0.064 C 
BRANCH  32  33
HETATM   33  C   UNL     1      40.034 -13.459  -2.629  1.00  0.00     0.114 C 
HETATM   34  C   UNL     1      38.868 -14.132  -3.350  1.00  0.00     0.060 C 
HETATM   35  C   UNL     1      39.846 -11.945  -2.594  1.00  0.00     0.060 C 
BRANCH  33  36
HETATM   36  O   UNL     1      41.233 -13.730  -3.353  1.00  0.00    -0.378 OA
HETATM   37  H   UNL     1      41.078 -14.532  -3.879  1.00  0.00     0.211 HD
ENDBRANCH  33  36
ENDBRANCH  32  33
ENDBRANCH  28  31
ENDBRANCH  24  25
ENDBRANCH   6  24
TORSDOF 8
ENDMDL
MODEL 6
REMARK VINA RESULT:      -8.1      6.373     10.876
REMARK  8 active torsions:
REMARK  status: ('A' for Active; 'I' for Inactive)
REMARK    1  A    between atoms: C_6  and  C_7 
REMARK       I    between atoms: C_7  and  N_8 
REMARK    2  A    between atoms: N_8  and  C_9 
REMARK    3  A    between atoms: C_9  and  C_10 
REMARK    4  A    between atoms: N_15  and  C_17 
REMARK    5  A    between atoms: C_17  and  C_18 
REMARK    6  A    between atoms: C_21  and  C_22 
REMARK    7  A    between atoms: C_23  and  C_24 
REMARK    8  A    between atoms: C_24  and  O_25 
ROOT
HETATM    1  C   UNL     1      41.917 -13.788   5.090  1.00  0.00     0.140 C 
HETATM    2  O   UNL     1      41.721 -14.065   3.684  1.00  0.00    -0.373 OA
HETATM    3  C   UNL     1      40.494 -13.421   3.272  1.00  0.00     0.064 C 
HETATM    4  C   UNL     1      39.664 -14.465   2.520  1.00  0.00     0.066 C 
HETATM    5  C   UNL     1      40.361 -14.908   1.241  1.00  0.00     0.238 C 
HETATM    6  N   UNL     1      40.664 -13.721   0.355  1.00  0.00    -0.067 N 
HETATM    7  H   UNL     1      41.247 -14.099  -0.402  1.00  0.00     0.280 HD
HETATM    8  C   UNL     1      41.527 -12.713   1.074  1.00  0.00     0.238 C 
HETATM    9  C   UNL     1      40.856 -12.245   2.359  1.00  0.00     0.066 C 
HETATM   10  C   UNL     1      39.796 -12.949   4.555  1.00  0.00     0.041 C 
HETATM   11  C   UNL     1      40.508 -13.716   5.645  1.00  0.00     0.036 C 
ENDROOT
BRANCH   1  12
HETATM   12  C   UNL     1      42.770 -14.869   5.762  1.00  0.00     0.155 C 
BRANCH  12  13
HETATM   13  N   UNL     1      42.933 -16.075   4.968  1.00  0.00    -0.353 N 
HETATM   14  C   UNL     1      43.978 -16.952   5.168  1.00  0.00     0.270 C 
HETATM   15  O   UNL     1      44.897 -16.683   5.936  1.00  0.00    -0.266 OA
HETATM   16  H   UNL     1      42.158 -16.368   4.395  1.00  0.00     0.162 HD
BRANCH  14  17
HETATM   17  C   UNL     1      43.909 -18.178   4.405  1.00  0.00     0.122 A 
HETATM   18  N   UNL     1      43.764 -19.430   4.962  1.00  0.00    -0.269 N 
HETATM   19  N   UNL     1      43.744 -20.429   4.058  1.00  0.00    -0.177 NA
HETATM   20  C   UNL     1      43.647 -19.766   6.364  1.00  0.00     0.180 C 
HETATM   21  C   UNL     1      43.824 -19.811   2.879  1.00  0.00     0.053 A 
HETATM   22  C   UNL     1      43.782 -20.585   1.615  1.00  0.00     0.072 C 
HETATM   23  C   UNL     1      43.942 -18.413   3.039  1.00  0.00     0.065 A 
ENDBRANCH  14  17
ENDBRANCH  12  13
ENDBRANCH   1  12
BRANCH   6  24
HETATM   24  C   UNL     1      39.475 -13.101  -0.351  1.00  0.00     0.273 C 
BRANCH  24  25
HETATM   25  C   UNL     1      39.843 -11.963  -1.264  1.00  0.00    -0.033 A 
HETATM   26  C   UNL     1      40.614 -12.200  -2.413  1.00  0.00     0.010 A 
HETATM   27  C   UNL     1      41.003 -11.141  -3.236  1.00  0.00     0.021 A 
HETATM   28  C   UNL     1      40.625  -9.836  -2.923  1.00  0.00     0.017 A 
HETATM   29  C   UNL     1      39.845  -9.591  -1.792  1.00  0.00     0.021 A 
HETATM   30  C   UNL     1      39.454 -10.648  -0.966  1.00  0.00     0.010 A 
BRANCH  28  31
HETATM   31  C   UNL     1      41.044  -8.753  -3.755  1.00  0.00    -0.064 C 
HETATM   32  C   UNL     1      41.407  -7.848  -4.458  1.00  0.00    -0.064 C 
BRANCH  32  33
HETATM   33  C   UNL     1      41.861  -6.739  -5.315  1.00  0.00     0.114 C 
HETATM   34  C   UNL     1      40.965  -6.610  -6.546  1.00  0.00     0.060 C 
HETATM   35  C   UNL     1      41.889  -5.431  -4.529  1.00  0.00     0.060 C 
BRANCH  33  36
HETATM   36  O   UNL     1      43.192  -7.013  -5.747  1.00  0.00    -0.378 OA
HETATM   37  H   UNL     1      43.229  -7.954  -5.988  1.00  0.00     0.211 HD
ENDBRANCH  33  36
ENDBRANCH  32  33
ENDBRANCH  28  31
ENDBRANCH  24  25
ENDBRANCH   6  24
TORSDOF 8
ENDMDL
MODEL 7
REMARK VINA RESULT:      -8.0      3.916     11.336
REMARK  8 active torsions:
REMARK  status: ('A' for Active; 'I' for Inactive)
REMARK    1  A    between atoms: C_6  and  C_7 
REMARK       I    between atoms: C_7  and  N_8 
REMARK    2  A    between atoms: N_8  and  C_9 
REMARK    3  A    between atoms: C_9  and  C_10 
REMARK    4  A    between atoms: N_15  and  C_17 
REMARK    5  A    between atoms: C_17  and  C_18 
REMARK    6  A    between atoms: C_21  and  C_22 
REMARK    7  A    between atoms: C_23  and  C_24 
REMARK    8  A    between atoms: C_24  and  O_25 
ROOT
HETATM    1  C   UNL     1      44.355 -11.179   8.296  1.00  0.00     0.140 C 
HETATM    2  O   UNL     1      43.391 -12.071   7.689  1.00  0.00    -0.373 OA
HETATM    3  C   UNL     1      44.027 -12.707   6.557  1.00  0.00     0.064 C 
HETATM    4  C   UNL     1      43.077 -12.563   5.364  1.00  0.00     0.066 C 
HETATM    5  C   UNL     1      41.776 -13.317   5.600  1.00  0.00     0.238 C 
HETATM    6  N   UNL     1      42.045 -14.773   5.899  1.00  0.00    -0.067 N 
HETATM    7  H   UNL     1      41.134 -15.159   6.176  1.00  0.00     0.280 HD
HETATM    8  C   UNL     1      42.938 -14.922   7.108  1.00  0.00     0.238 C 
HETATM    9  C   UNL     1      44.253 -14.182   6.904  1.00  0.00     0.066 C 
HETATM   10  C   UNL     1      45.352 -11.968   6.328  1.00  0.00     0.041 C 
HETATM   11  C   UNL     1      45.187 -10.694   7.124  1.00  0.00     0.036 C 
ENDROOT
BRANCH   1  12
HETATM   12  C   UNL     1      43.667 -10.038   9.051  1.00  0.00     0.155 C 
BRANCH  12  13
HETATM   13  N   UNL     1      42.354  -9.689   8.533  1.00  0.00    -0.353 N 
HETATM   14  C   UNL     1      42.123  -8.518   7.843  1.00  0.00     0.270 C 
HETATM   15  O   UNL     1      42.987  -7.651   7.752  1.00  0.00    -0.266 OA
HETATM   16  H   UNL     1      41.651 -10.411   8.513  1.00  0.00     0.162 HD
BRANCH  14  17
HETATM   17  C   UNL     1      40.805  -8.397   7.260  1.00  0.00     0.122 A 
HETATM   18  N   UNL     1      39.811  -7.581   7.754  1.00  0.00    -0.269 N 
HETATM   19  N   UNL     1      38.659  -7.646   7.060  1.00  0.00    -0.177 NA
HETATM   20  C   UNL     1      39.877  -6.705   8.903  1.00  0.00     0.180 C 
HETATM   21  C   UNL     1      38.922  -8.484   6.056  1.00  0.00     0.053 A 
HETATM   22  C   UNL     1      37.896  -8.780   5.028  1.00  0.00     0.072 C 
HETATM   23  C   UNL     1      40.237  -8.989   6.142  1.00  0.00     0.065 A 
ENDBRANCH  14  17
ENDBRANCH  12  13
ENDBRANCH   1  12
BRANCH   6  24
HETATM   24  C   UNL     1      42.479 -15.624   4.722  1.00  0.00     0.273 C 
BRANCH  24  25
HETATM   25  C   UNL     1      41.804 -15.253   3.430  1.00  0.00    -0.033 A 
HETATM   26  C   UNL     1      40.483 -15.656   3.182  1.00  0.00     0.010 A 
HETATM   27  C   UNL     1      39.868 -15.360   1.963  1.00  0.00     0.021 A 
HETATM   28  C   UNL     1      40.564 -14.657   0.981  1.00  0.00     0.017 A 
HETATM   29  C   UNL     1      41.872 -14.237   1.223  1.00  0.00     0.021 A 
HETATM   30  C   UNL     1      42.491 -14.531   2.441  1.00  0.00     0.010 A 
BRANCH  28  31
HETATM   31  C   UNL     1      39.940 -14.376  -0.273  1.00  0.00    -0.064 C 
HETATM   32  C   UNL     1      39.407 -14.148  -1.326  1.00  0.00    -0.064 C 
BRANCH  32  33
HETATM   33  C   UNL     1      38.755 -13.880  -2.619  1.00  0.00     0.114 C 
HETATM   34  C   UNL     1      38.359 -15.188  -3.302  1.00  0.00     0.060 C 
HETATM   35  C   UNL     1      37.537 -12.981  -2.429  1.00  0.00     0.060 C 
BRANCH  33  36
HETATM   36  O   UNL     1      39.677 -13.190  -3.460  1.00  0.00    -0.378 OA
HETATM   37  H   UNL     1      39.307 -13.193  -4.358  1.00  0.00     0.211 HD
ENDBRANCH  33  36
ENDBRANCH  32  33
ENDBRANCH  28  31
ENDBRANCH  24  25
ENDBRANCH   6  24
TORSDOF 8
ENDMDL
MODEL 8
REMARK VINA RESULT:      -8.0      4.207     13.277
REMARK  8 active torsions:
REMARK  status: ('A' for Active; 'I' for Inactive)
REMARK    1  A    between atoms: C_6  and  C_7 
REMARK       I    between atoms: C_7  and  N_8 
REMARK    2  A    between atoms: N_8  and  C_9 
REMARK    3  A    between atoms: C_9  and  C_10 
REMARK    4  A    between atoms: N_15  and  C_17 
REMARK    5  A    between atoms: C_17  and  C_18 
REMARK    6  A    between atoms: C_21  and  C_22 
REMARK    7  A    between atoms: C_23  and  C_24 
REMARK    8  A    between atoms: C_24  and  O_25 
ROOT
HETATM    1  C   UNL     1      41.975  -7.686  14.193  1.00  0.00     0.140 C 
HETATM    2  O   UNL     1      41.842  -8.549  13.039  1.00  0.00    -0.373 OA
HETATM    3  C   UNL     1      42.496  -7.902  11.924  1.00  0.00     0.064 C 
HETATM    4  C   UNL     1      41.517  -7.927  10.747  1.00  0.00     0.066 C 
HETATM    5  C   UNL     1      41.227  -9.353  10.300  1.00  0.00     0.238 C 
HETATM    6  N   UNL     1      42.506 -10.078   9.951  1.00  0.00    -0.067 N 
HETATM    7  H   UNL     1      42.224 -11.054   9.799  1.00  0.00     0.280 HD
HETATM    8  C   UNL     1      43.454 -10.103  11.126  1.00  0.00     0.238 C 
HETATM    9  C   UNL     1      43.770  -8.690  11.596  1.00  0.00     0.066 C 
HETATM   10  C   UNL     1      42.815  -6.470  12.374  1.00  0.00     0.041 C 
HETATM   11  C   UNL     1      41.955  -6.289  13.604  1.00  0.00     0.036 C 
ENDROOT
BRANCH   1  12
HETATM   12  C   UNL     1      40.850  -7.924  15.205  1.00  0.00     0.155 C 
BRANCH  12  13
HETATM   13  N   UNL     1      41.314  -8.183  16.558  1.00  0.00    -0.353 N 
HETATM   14  C   UNL     1      41.280  -7.220  17.544  1.00  0.00     0.270 C 
HETATM   15  O   UNL     1      40.983  -6.057  17.289  1.00  0.00    -0.266 OA
HETATM   16  H   UNL     1      41.480  -9.141  16.821  1.00  0.00     0.162 HD
BRANCH  14  17
HETATM   17  C   UNL     1      41.628  -7.683  18.869  1.00  0.00     0.122 A 
HETATM   18  N   UNL     1      40.742  -8.280  19.739  1.00  0.00    -0.269 N 
HETATM   19  N   UNL     1      41.285  -8.610  20.927  1.00  0.00    -0.177 NA
HETATM   20  C   UNL     1      39.341  -8.565  19.517  1.00  0.00     0.180 C 
HETATM   21  C   UNL     1      42.569  -8.270  20.811  1.00  0.00     0.053 A 
HETATM   22  C   UNL     1      43.523  -8.528  21.917  1.00  0.00     0.072 C 
HETATM   23  C   UNL     1      42.832  -7.677  19.558  1.00  0.00     0.065 A 
ENDBRANCH  14  17
ENDBRANCH  12  13
ENDBRANCH   1  12
BRANCH   6  24
HETATM   24  C   UNL     1      43.169  -9.665   8.652  1.00  0.00     0.273 C 
BRANCH  24  25
HETATM   25  C   UNL     1      43.147 -10.738   7.597  1.00  0.00    -0.033 A 
HETATM   26  C   UNL     1      42.170 -10.720   6.590  1.00  0.00     0.010 A 
HETATM   27  C   UNL     1      42.112 -11.741   5.639  1.00  0.00     0.021 A 
HETATM   28  C   UNL     1      43.030 -12.790   5.682  1.00  0.00     0.017 A 
HETATM   29  C   UNL     1      44.016 -12.809   6.669  1.00  0.00     0.021 A 
HETATM   30  C   UNL     1      44.077 -11.790   7.623  1.00  0.00     0.010 A 
BRANCH  28  31
HETATM   31  C   UNL     1      42.954 -13.844   4.721  1.00  0.00    -0.064 C 
HETATM   32  C   UNL     1      42.879 -14.728   3.910  1.00  0.00    -0.064 C 
BRANCH  32  33
HETATM   33  C   UNL     1      42.777 -15.813   2.919  1.00  0.00     0.114 C 
HETATM   34  C   UNL     1      43.459 -15.413   1.612  1.00  0.00     0.060 C 
HETATM   35  C   UNL     1      43.382 -17.101   3.471  1.00  0.00     0.060 C 
BRANCH  33  36
HETATM   36  O   UNL     1      41.398 -16.061   2.655  1.00  0.00    -0.378 OA
HETATM   37  H   UNL     1      40.884 -15.569   3.317  1.00  0.00     0.211 HD
ENDBRANCH  33  36
ENDBRANCH  32  33
ENDBRANCH  28  31
ENDBRANCH  24  25
ENDBRANCH   6  24
TORSDOF 8
ENDMDL
MODEL 9
REMARK VINA RESULT:      -7.7      2.205      4.251
REMARK  8 active torsions:
REMARK  status: ('A' for Active; 'I' for Inactive)
REMARK    1  A    between atoms: C_6  and  C_7 
REMARK       I    between atoms: C_7  and  N_8 
REMARK    2  A    between atoms: N_8  and  C_9 
REMARK    3  A    between atoms: C_9  and  C_10 
REMARK    4  A    between atoms: N_15  and  C_17 
REMARK    5  A    between atoms: C_17  and  C_18 
REMARK    6  A    between atoms: C_21  and  C_22 
REMARK    7  A    between atoms: C_23  and  C_24 
REMARK    8  A    between atoms: C_24  and  O_25 
ROOT
HETATM    1  C   UNL     1      42.664 -10.712   6.513  1.00  0.00     0.140 C 
HETATM    2  O   UNL     1      43.133  -9.932   7.639  1.00  0.00    -0.373 OA
HETATM    3  C   UNL     1      42.143  -8.917   7.917  1.00  0.00     0.064 C 
HETATM    4  C   UNL     1      42.884  -7.581   8.026  1.00  0.00     0.066 C 
HETATM    5  C   UNL     1      43.843  -7.575   9.208  1.00  0.00     0.238 C 
HETATM    6  N   UNL     1      43.114  -7.891  10.493  1.00  0.00    -0.067 N 
HETATM    7  H   UNL     1      43.855  -8.000  11.197  1.00  0.00     0.280 HD
HETATM    8  C   UNL     1      42.427  -9.233  10.411  1.00  0.00     0.238 C 
HETATM    9  C   UNL     1      41.454  -9.272   9.240  1.00  0.00     0.066 C 
HETATM   10  C   UNL     1      41.157  -8.932   6.742  1.00  0.00     0.041 C 
HETATM   11  C   UNL     1      41.893  -9.710   5.676  1.00  0.00     0.036 C 
ENDROOT
BRANCH   1  12
HETATM   12  C   UNL     1      43.827 -11.357   5.753  1.00  0.00     0.155 C 
BRANCH  12  13
HETATM   13  N   UNL     1      43.452 -12.529   4.979  1.00  0.00    -0.353 N 
HETATM   14  C   UNL     1      43.203 -13.751   5.569  1.00  0.00     0.270 C 
HETATM   15  O   UNL     1      43.422 -13.939   6.762  1.00  0.00    -0.266 OA
HETATM   16  H   UNL     1      43.182 -12.390   4.019  1.00  0.00     0.162 HD
BRANCH  14  17
HETATM   17  C   UNL     1      42.690 -14.770   4.681  1.00  0.00     0.122 A 
HETATM   18  N   UNL     1      41.400 -14.798   4.196  1.00  0.00    -0.269 N 
HETATM   19  N   UNL     1      41.141 -15.854   3.401  1.00  0.00    -0.177 NA
HETATM   20  C   UNL     1      40.339 -13.850   4.454  1.00  0.00     0.180 C 
HETATM   21  C   UNL     1      42.303 -16.503   3.321  1.00  0.00     0.053 A 
HETATM   22  C   UNL     1      42.435 -17.718   2.480  1.00  0.00     0.072 C 
HETATM   23  C   UNL     1      43.294 -15.880   4.109  1.00  0.00     0.065 A 
ENDBRANCH  14  17
ENDBRANCH  12  13
ENDBRANCH   1  12
BRANCH   6  24
HETATM   24  C   UNL     1      42.225  -6.792  11.040  1.00  0.00     0.273 C 
BRANCH  24  25
HETATM   25  C   UNL     1      41.948  -6.919  12.513  1.00  0.00    -0.033 A 
HETATM   26  C   UNL     1      42.993  -7.195  13.408  1.00  0.00     0.010 A 
HETATM   27  C   UNL     1      42.735  -7.365  14.770  1.00  0.00     0.021 A 
HETATM   28  C   UNL     1      41.431  -7.260  15.253  1.00  0.00     0.017 A 
HETATM   29  C   UNL     1      40.386  -6.969  14.375  1.00  0.00     0.021 A 
HETATM   30  C   UNL     1      40.641  -6.799  13.011  1.00  0.00     0.010 A 
BRANCH  28  31
HETATM   31  C   UNL     1      41.167  -7.457  16.643  1.00  0.00    -0.064 C 
HETATM   32  C   UNL     1      40.941  -7.611  17.813  1.00  0.00    -0.064 C 
BRANCH  32  33
HETATM   33  C   UNL     1      40.671  -7.791  19.250  1.00  0.00     0.114 C 
HETATM   34  C   UNL     1      39.379  -8.579  19.459  1.00  0.00     0.060 C 
HETATM   35  C   UNL     1      41.845  -8.489  19.932  1.00  0.00     0.060 C 
BRANCH  33  36
HETATM   36  O   UNL     1      40.522  -6.506  19.850  1.00  0.00    -0.378 OA
HETATM   37  H   UNL     1      39.586  -6.405  20.088  1.00  0.00     0.211 HD
ENDBRANCH  33  36
ENDBRANCH  32  33
ENDBRANCH  28  31
ENDBRANCH  24  25
ENDBRANCH   6  24
TORSDOF 8
ENDMDL
MODEL 10
REMARK VINA RESULT:      -7.7     19.427     21.624
REMARK  8 active torsions:
REMARK  status: ('A' for Active; 'I' for Inactive)
REMARK    1  A    between atoms: C_6  and  C_7 
REMARK       I    between atoms: C_7  and  N_8 
REMARK    2  A    between atoms: N_8  and  C_9 
REMARK    3  A    between atoms: C_9  and  C_10 
REMARK    4  A    between atoms: N_15  and  C_17 
REMARK    5  A    between atoms: C_17  and  C_18 
REMARK    6  A    between atoms: C_21  and  C_22 
REMARK    7  A    between atoms: C_23  and  C_24 
REMARK    8  A    between atoms: C_24  and  O_25 
ROOT
HETATM    1  C   UNL     1      44.289 -29.638  -3.636  1.00  0.00     0.140 C 
HETATM    2  O   UNL     1      45.153 -30.069  -2.559  1.00  0.00    -0.373 OA
HETATM    3  C   UNL     1      45.787 -28.896  -2.003  1.00  0.00     0.064 C 
HETATM    4  C   UNL     1      47.289 -29.187  -1.922  1.00  0.00     0.066 C 
HETATM    5  C   UNL     1      47.579 -30.325  -0.954  1.00  0.00     0.238 C 
HETATM    6  N   UNL     1      47.016 -30.023   0.415  1.00  0.00    -0.067 N 
HETATM    7  H   UNL     1      47.138 -30.893   0.948  1.00  0.00     0.280 HD
HETATM    8  C   UNL     1      45.526 -29.789   0.349  1.00  0.00     0.238 C 
HETATM    9  C   UNL     1      45.199 -28.651  -0.609  1.00  0.00     0.066 C 
HETATM   10  C   UNL     1      45.479 -27.737  -2.960  1.00  0.00     0.041 C 
HETATM   11  C   UNL     1      45.005 -28.433  -4.215  1.00  0.00     0.036 C 
ENDROOT
BRANCH   1  12
HETATM   12  C   UNL     1      44.072 -30.754  -4.663  1.00  0.00     0.155 C 
BRANCH  12  13
HETATM   13  N   UNL     1      45.227 -31.020  -5.504  1.00  0.00    -0.353 N 
HETATM   14  C   UNL     1      45.605 -32.300  -5.852  1.00  0.00     0.270 C 
HETATM   15  O   UNL     1      45.062 -33.282  -5.354  1.00  0.00    -0.266 OA
HETATM   16  H   UNL     1      45.638 -30.242  -5.997  1.00  0.00     0.162 HD
BRANCH  14  17
HETATM   17  C   UNL     1      46.677 -32.384  -6.819  1.00  0.00     0.122 A 
HETATM   18  N   UNL     1      46.489 -32.413  -8.184  1.00  0.00    -0.269 N 
HETATM   19  N   UNL     1      47.633 -32.515  -8.888  1.00  0.00    -0.177 NA
HETATM   20  C   UNL     1      45.237 -32.357  -8.905  1.00  0.00     0.180 C 
HETATM   21  C   UNL     1      48.595 -32.499  -7.964  1.00  0.00     0.053 A 
HETATM   22  C   UNL     1      50.024 -32.546  -8.358  1.00  0.00     0.072 C 
HETATM   23  C   UNL     1      48.054 -32.433  -6.662  1.00  0.00     0.065 A 
ENDBRANCH  14  17
ENDBRANCH  12  13
ENDBRANCH   1  12
BRANCH   6  24
HETATM   24  C   UNL     1      47.755 -28.974   1.220  1.00  0.00     0.273 C 
BRANCH  24  25
HETATM   25  C   UNL     1      48.702 -29.552   2.237  1.00  0.00    -0.033 A 
HETATM   26  C   UNL     1      48.271 -29.784   3.552  1.00  0.00     0.010 A 
HETATM   27  C   UNL     1      49.158 -30.271   4.514  1.00  0.00     0.021 A 
HETATM   28  C   UNL     1      50.485 -30.533   4.174  1.00  0.00     0.017 A 
HETATM   29  C   UNL     1      50.920 -30.321   2.865  1.00  0.00     0.021 A 
HETATM   30  C   UNL     1      50.036 -29.833   1.899  1.00  0.00     0.010 A 
BRANCH  28  31
HETATM   31  C   UNL     1      51.396 -31.009   5.165  1.00  0.00    -0.064 C 
HETATM   32  C   UNL     1      52.160 -31.400   6.006  1.00  0.00    -0.064 C 
BRANCH  32  33
HETATM   33  C   UNL     1      53.102 -31.869   7.037  1.00  0.00     0.114 C 
HETATM   34  C   UNL     1      52.347 -32.445   8.233  1.00  0.00     0.060 C 
HETATM   35  C   UNL     1      54.061 -32.903   6.456  1.00  0.00     0.060 C 
BRANCH  33  36
HETATM   36  O   UNL     1      53.880 -30.759   7.482  1.00  0.00    -0.378 OA
HETATM   37  H   UNL     1      53.610 -29.988   6.957  1.00  0.00     0.211 HD
ENDBRANCH  33  36
ENDBRANCH  32  33
ENDBRANCH  28  31
ENDBRANCH  24  25
ENDBRANCH   6  24
TORSDOF 8
ENDMDL
