MODEL 1
REMARK VINA RESULT:     -10.9      0.000      0.000
REMARK  6 active torsions:
REMARK  status: ('A' for Active; 'I' for Inactive)
REMARK       I    between atoms: N_1  and  C_2 
REMARK    1  A    between atoms: C_2  and  C_4 
REMARK    2  A    between atoms: C_7  and  N_8 
REMARK       I    between atoms: N_8  and  C_9 
REMARK       I    between atoms: C_9  and  N_11 
REMARK    3  A    between atoms: N_11  and  C_12 
REMARK    4  A    between atoms: C_12  and  C_13 
REMARK    5  A    between atoms: C_17  and  C_19 
REMARK       I    between atoms: C_19  and  N_21 
REMARK    6  A    between atoms: N_21  and  C_22 
ROOT
HETATM    1  C   UNL     1      43.432 -11.492   6.241  1.00  0.00    -0.040 A 
HETATM    2  C   UNL     1      44.755 -11.492   5.777  1.00  0.00     0.009 A 
HETATM    3  C   UNL     1      45.799 -11.134   6.628  1.00  0.00     0.002 A 
HETATM    4  C   UNL     1      45.530 -10.791   7.953  1.00  0.00     0.017 A 
HETATM    5  C   UNL     1      44.217 -10.806   8.446  1.00  0.00     0.032 A 
HETATM    6  C   UNL     1      43.170 -11.148   7.579  1.00  0.00     0.026 A 
ENDROOT
BRANCH   1   7
HETATM    7  C   UNL     1      42.304 -11.894   5.324  1.00  0.00     0.162 C 
BRANCH   7   8
HETATM    8  N   UNL     1      42.750 -12.852   4.338  1.00  0.00    -0.339 N 
HETATM    9  C   UNL     1      42.767 -14.204   4.613  1.00  0.00     0.320 C 
HETATM   10  N   UNL     1      43.190 -14.919   3.514  1.00  0.00    -0.309 N 
HETATM   11  O   UNL     1      42.410 -14.659   5.692  1.00  0.00    -0.247 OA
HETATM   12  H   UNL     1      43.340 -14.380   2.675  1.00  0.00     0.170 HD
HETATM   13  H   UNL     1      43.414 -12.516   3.659  1.00  0.00     0.164 HD
BRANCH  10  14
HETATM   14  C   UNL     1      43.296 -16.319   3.382  1.00  0.00     0.036 A 
HETATM   15  C   UNL     1      42.814 -17.038   2.286  1.00  0.00     0.030 A 
HETATM   16  C   UNL     1      42.983 -18.427   2.213  1.00  0.00     0.019 A 
HETATM   17  C   UNL     1      43.642 -19.112   3.239  1.00  0.00     0.032 A 
HETATM   18  C   UNL     1      44.099 -18.399   4.352  1.00  0.00     0.019 A 
HETATM   19  C   UNL     1      43.930 -17.012   4.420  1.00  0.00     0.030 A 
BRANCH  17  20
HETATM   20  C   UNL     1      43.862 -20.582   3.202  1.00  0.00     0.249 C 
HETATM   21  N   UNL     1      43.922 -21.244   4.396  1.00  0.00    -0.366 N 
HETATM   22  H   UNL     1      43.964 -22.254   4.346  1.00  0.00     0.159 HD
HETATM   23  H   UNL     1      43.623 -20.831   5.267  1.00  0.00     0.159 HD
HETATM   24  O   UNL     1      43.947 -21.191   2.143  1.00  0.00    -0.268 OA
ENDBRANCH  17  20
ENDBRANCH  10  14
ENDBRANCH   7   8
ENDBRANCH   1   7
BRANCH   5  25
HETATM   25  C   UNL     1      44.011 -10.431   9.880  1.00  0.00     0.256 C 
HETATM   26  O   UNL     1      44.948 -10.607  10.651  1.00  0.00    -0.267 OA
HETATM   27  N   UNL     1      42.762  -9.933  10.213  1.00  0.00    -0.323 N 
HETATM   28  H   UNL     1      42.073  -9.854   9.478  1.00  0.00     0.169 HD
BRANCH  27  29
HETATM   29  C   UNL     1      42.308  -9.566  11.501  1.00  0.00     0.035 A 
HETATM   30  C   UNL     1      41.227 -10.165  12.147  1.00  0.00     0.030 A 
HETATM   31  C   UNL     1      40.823  -9.731  13.413  1.00  0.00     0.010 A 
HETATM   32  C   UNL     1      41.507  -8.699  14.062  1.00  0.00    -0.048 A 
HETATM   33  C   UNL     1      41.036  -8.204  15.406  1.00  0.00     0.069 C 
HETATM   34  C   UNL     1      42.593  -8.080  13.425  1.00  0.00    -0.022 A 
HETATM   35  C   UNL     1      42.106  -7.378  16.127  1.00  0.00     0.274 C 
HETATM   36  N   UNL     1      42.675  -6.361  15.238  1.00  0.00     0.087 N 
HETATM   37  C   UNL     1      43.388  -7.001  14.125  1.00  0.00     0.308 C 
HETATM   38  H   UNL     1      43.332  -5.785  15.759  1.00  0.00     0.316 HD
HETATM   39  C   UNL     1      42.987  -8.525  12.150  1.00  0.00     0.039 A 
ENDBRANCH  27  29
ENDBRANCH   5  25
TORSDOF 6
ENDMDL
MODEL 2
REMARK VINA RESULT:     -10.5      1.730     12.252
REMARK  6 active torsions:
REMARK  status: ('A' for Active; 'I' for Inactive)
REMARK       I    between atoms: N_1  and  C_2 
REMARK    1  A    between atoms: C_2  and  C_4 
REMARK    2  A    between atoms: C_7  and  N_8 
REMARK       I    between atoms: N_8  and  C_9 
REMARK       I    between atoms: C_9  and  N_11 
REMARK    3  A    between atoms: N_11  and  C_12 
REMARK    4  A    between atoms: C_12  and  C_13 
REMARK    5  A    between atoms: C_17  and  C_19 
REMARK       I    between atoms: C_19  and  N_21 
REMARK    6  A    between atoms: N_21  and  C_22 
ROOT
HETATM    1  C   UNL     1      43.254 -11.133   6.812  1.00  0.00    -0.040 A 
HETATM    2  C   UNL     1      42.432 -10.100   6.339  1.00  0.00     0.009 A 
HETATM    3  C   UNL     1      41.492 -10.350   5.341  1.00  0.00     0.002 A 
HETATM    4  C   UNL     1      41.354 -11.637   4.822  1.00  0.00     0.017 A 
HETATM    5  C   UNL     1      42.149 -12.691   5.296  1.00  0.00     0.032 A 
HETATM    6  C   UNL     1      43.106 -12.429   6.285  1.00  0.00     0.026 A 
ENDROOT
BRANCH   1   7
HETATM    7  C   UNL     1      44.261 -10.866   7.902  1.00  0.00     0.162 C 
BRANCH   7   8
HETATM    8  N   UNL     1      43.678 -11.063   9.210  1.00  0.00    -0.339 N 
HETATM    9  C   UNL     1      43.472 -10.002  10.066  1.00  0.00     0.320 C 
HETATM   10  N   UNL     1      42.872 -10.427  11.232  1.00  0.00    -0.309 N 
HETATM   11  O   UNL     1      43.765  -8.851   9.769  1.00  0.00    -0.247 OA
HETATM   12  H   UNL     1      42.605 -11.399  11.256  1.00  0.00     0.170 HD
HETATM   13  H   UNL     1      43.823 -11.968   9.631  1.00  0.00     0.164 HD
BRANCH  10  14
HETATM   14  C   UNL     1      42.457  -9.642  12.327  1.00  0.00     0.036 A 
HETATM   15  C   UNL     1      41.276  -9.859  13.040  1.00  0.00     0.030 A 
HETATM   16  C   UNL     1      40.945  -9.052  14.137  1.00  0.00     0.019 A 
HETATM   17  C   UNL     1      41.799  -8.017  14.534  1.00  0.00     0.032 A 
HETATM   18  C   UNL     1      42.967  -7.778  13.804  1.00  0.00     0.019 A 
HETATM   19  C   UNL     1      43.294  -8.587  12.710  1.00  0.00     0.030 A 
BRANCH  17  20
HETATM   20  C   UNL     1      41.503  -7.144  15.701  1.00  0.00     0.249 C 
HETATM   21  N   UNL     1      42.504  -6.331  16.154  1.00  0.00    -0.366 N 
HETATM   22  H   UNL     1      42.251  -5.670  16.876  1.00  0.00     0.159 HD
HETATM   23  H   UNL     1      43.342  -6.146  15.622  1.00  0.00     0.159 HD
HETATM   24  O   UNL     1      40.392  -7.117  16.216  1.00  0.00    -0.268 OA
ENDBRANCH  17  20
ENDBRANCH  10  14
ENDBRANCH   7   8
ENDBRANCH   1   7
BRANCH   5  25
HETATM   25  C   UNL     1      41.937 -14.045   4.692  1.00  0.00     0.256 C 
HETATM   26  O   UNL     1      40.797 -14.496   4.701  1.00  0.00    -0.267 OA
HETATM   27  N   UNL     1      43.063 -14.679   4.192  1.00  0.00    -0.323 N 
HETATM   28  H   UNL     1      43.948 -14.198   4.264  1.00  0.00     0.169 HD
BRANCH  27  29
HETATM   29  C   UNL     1      43.130 -15.974   3.630  1.00  0.00     0.035 A 
HETATM   30  C   UNL     1      42.785 -16.272   2.312  1.00  0.00     0.030 A 
HETATM   31  C   UNL     1      42.856 -17.584   1.834  1.00  0.00     0.010 A 
HETATM   32  C   UNL     1      43.292 -18.620   2.665  1.00  0.00    -0.048 A 
HETATM   33  C   UNL     1      43.320 -20.039   2.158  1.00  0.00     0.069 C 
HETATM   34  C   UNL     1      43.638 -18.341   3.997  1.00  0.00    -0.022 A 
HETATM   35  C   UNL     1      44.180 -20.952   3.038  1.00  0.00     0.274 C 
HETATM   36  N   UNL     1      43.842 -20.790   4.455  1.00  0.00     0.087 N 
HETATM   37  C   UNL     1      44.167 -19.429   4.902  1.00  0.00     0.308 C 
HETATM   38  H   UNL     1      44.378 -21.454   5.010  1.00  0.00     0.316 HD
HETATM   39  C   UNL     1      43.559 -17.017   4.465  1.00  0.00     0.039 A 
ENDBRANCH  27  29
ENDBRANCH   5  25
TORSDOF 6
ENDMDL
MODEL 3
REMARK VINA RESULT:     -10.4      1.466      2.021
REMARK  6 active torsions:
REMARK  status: ('A' for Active; 'I' for Inactive)
REMARK       I    between atoms: N_1  and  C_2 
REMARK    1  A    between atoms: C_2  and  C_4 
REMARK    2  A    between atoms: C_7  and  N_8 
REMARK       I    between atoms: N_8  and  C_9 
REMARK       I    between atoms: C_9  and  N_11 
REMARK    3  A    between atoms: N_11  and  C_12 
REMARK    4  A    between atoms: C_12  and  C_13 
REMARK    5  A    between atoms: C_17  and  C_19 
REMARK       I    between atoms: C_19  and  N_21 
REMARK    6  A    between atoms: N_21  and  C_22 
ROOT
HETATM    1  C   UNL     1      43.421 -11.382   6.617  1.00  0.00    -0.040 A 
HETATM    2  C   UNL     1      44.738 -11.801   6.388  1.00  0.00     0.009 A 
HETATM    3  C   UNL     1      45.806 -11.105   6.951  1.00  0.00     0.002 A 
HETATM    4  C   UNL     1      45.563  -9.996   7.762  1.00  0.00     0.017 A 
HETATM    5  C   UNL     1      44.252  -9.572   8.024  1.00  0.00     0.032 A 
HETATM    6  C   UNL     1      43.184 -10.265   7.437  1.00  0.00     0.026 A 
ENDROOT
BRANCH   1   7
HETATM    7  C   UNL     1      42.265 -12.144   6.019  1.00  0.00     0.162 C 
BRANCH   7   8
HETATM    8  N   UNL     1      42.708 -13.006   4.946  1.00  0.00    -0.339 N 
HETATM    9  C   UNL     1      42.831 -14.367   5.128  1.00  0.00     0.320 C 
HETATM   10  N   UNL     1      43.228 -14.981   3.960  1.00  0.00    -0.309 N 
HETATM   11  O   UNL     1      42.575 -14.913   6.194  1.00  0.00    -0.247 OA
HETATM   12  H   UNL     1      43.288 -14.381   3.151  1.00  0.00     0.170 HD
HETATM   13  H   UNL     1      43.304 -12.582   4.252  1.00  0.00     0.164 HD
BRANCH  10  14
HETATM   14  C   UNL     1      43.417 -16.359   3.728  1.00  0.00     0.036 A 
HETATM   15  C   UNL     1      44.023 -17.228   4.637  1.00  0.00     0.030 A 
HETATM   16  C   UNL     1      44.149 -18.592   4.346  1.00  0.00     0.019 A 
HETATM   17  C   UNL     1      43.665 -19.103   3.137  1.00  0.00     0.032 A 
HETATM   18  C   UNL     1      43.084 -18.230   2.211  1.00  0.00     0.019 A 
HETATM   19  C   UNL     1      42.959 -16.869   2.507  1.00  0.00     0.030 A 
BRANCH  17  20
HETATM   20  C   UNL     1      43.758 -20.545   2.787  1.00  0.00     0.249 C 
HETATM   21  N   UNL     1      44.053 -21.423   3.792  1.00  0.00    -0.366 N 
HETATM   22  H   UNL     1      44.006 -22.406   3.555  1.00  0.00     0.159 HD
HETATM   23  H   UNL     1      44.006 -21.174   4.769  1.00  0.00     0.159 HD
HETATM   24  O   UNL     1      43.537 -20.945   1.651  1.00  0.00    -0.268 OA
ENDBRANCH  17  20
ENDBRANCH  10  14
ENDBRANCH   7   8
ENDBRANCH   1   7
BRANCH   5  25
HETATM   25  C   UNL     1      44.074  -8.377   8.908  1.00  0.00     0.256 C 
HETATM   26  O   UNL     1      44.829  -7.427   8.733  1.00  0.00    -0.267 OA
HETATM   27  N   UNL     1      43.076  -8.463   9.865  1.00  0.00    -0.323 N 
HETATM   28  H   UNL     1      42.536  -9.315   9.910  1.00  0.00     0.169 HD
BRANCH  27  29
HETATM   29  C   UNL     1      42.755  -7.497  10.847  1.00  0.00     0.035 A 
HETATM   30  C   UNL     1      42.403  -6.179  10.558  1.00  0.00     0.030 A 
HETATM   31  C   UNL     1      42.121  -5.275  11.587  1.00  0.00     0.010 A 
HETATM   32  C   UNL     1      42.167  -5.681  12.923  1.00  0.00    -0.048 A 
HETATM   33  C   UNL     1      41.908  -4.689  14.028  1.00  0.00     0.069 C 
HETATM   34  C   UNL     1      42.524  -7.003  13.233  1.00  0.00    -0.022 A 
HETATM   35  C   UNL     1      41.609  -5.375  15.365  1.00  0.00     0.274 C 
HETATM   36  N   UNL     1      42.604  -6.410  15.660  1.00  0.00     0.087 N 
HETATM   37  C   UNL     1      42.527  -7.487  14.665  1.00  0.00     0.308 C 
HETATM   38  H   UNL     1      42.422  -6.802  16.582  1.00  0.00     0.316 HD
HETATM   39  C   UNL     1      42.809  -7.901  12.189  1.00  0.00     0.039 A 
ENDBRANCH  27  29
ENDBRANCH   5  25
TORSDOF 6
ENDMDL
MODEL 4
REMARK VINA RESULT:      -9.5      1.921      2.368
REMARK  6 active torsions:
REMARK  status: ('A' for Active; 'I' for Inactive)
REMARK       I    between atoms: N_1  and  C_2 
REMARK    1  A    between atoms: C_2  and  C_4 
REMARK    2  A    between atoms: C_7  and  N_8 
REMARK       I    between atoms: N_8  and  C_9 
REMARK       I    between atoms: C_9  and  N_11 
REMARK    3  A    between atoms: N_11  and  C_12 
REMARK    4  A    between atoms: C_12  and  C_13 
REMARK    5  A    between atoms: C_17  and  C_19 
REMARK       I    between atoms: C_19  and  N_21 
REMARK    6  A    between atoms: N_21  and  C_22 
ROOT
HETATM    1  C   UNL     1      44.057 -11.013   7.356  1.00  0.00    -0.040 A 
HETATM    2  C   UNL     1      45.440 -10.936   7.145  1.00  0.00     0.009 A 
HETATM    3  C   UNL     1      46.205  -9.990   7.826  1.00  0.00     0.002 A 
HETATM    4  C   UNL     1      45.595  -9.127   8.735  1.00  0.00     0.017 A 
HETATM    5  C   UNL     1      44.215  -9.200   8.980  1.00  0.00     0.032 A 
HETATM    6  C   UNL     1      43.449 -10.140   8.277  1.00  0.00     0.026 A 
ENDROOT
BRANCH   1   7
HETATM    7  C   UNL     1      43.232 -12.046   6.631  1.00  0.00     0.162 C 
BRANCH   7   8
HETATM    8  N   UNL     1      43.746 -13.378   6.859  1.00  0.00    -0.339 N 
HETATM    9  C   UNL     1      43.408 -14.425   6.029  1.00  0.00     0.320 C 
HETATM   10  N   UNL     1      44.047 -15.582   6.420  1.00  0.00    -0.309 N 
HETATM   11  O   UNL     1      42.665 -14.287   5.066  1.00  0.00    -0.247 OA
HETATM   12  H   UNL     1      44.708 -15.481   7.175  1.00  0.00     0.170 HD
HETATM   13  H   UNL     1      43.979 -13.608   7.813  1.00  0.00     0.164 HD
BRANCH  10  14
HETATM   14  C   UNL     1      43.999 -16.848   5.801  1.00  0.00     0.036 A 
HETATM   15  C   UNL     1      44.308 -17.073   4.458  1.00  0.00     0.030 A 
HETATM   16  C   UNL     1      44.265 -18.367   3.922  1.00  0.00     0.019 A 
HETATM   17  C   UNL     1      43.912 -19.453   4.729  1.00  0.00     0.032 A 
HETATM   18  C   UNL     1      43.572 -19.228   6.067  1.00  0.00     0.019 A 
HETATM   19  C   UNL     1      43.619 -17.935   6.598  1.00  0.00     0.030 A 
BRANCH  17  20
HETATM   20  C   UNL     1      43.867 -20.848   4.214  1.00  0.00     0.249 C 
HETATM   21  N   UNL     1      43.786 -21.859   5.130  1.00  0.00    -0.366 N 
HETATM   22  H   UNL     1      43.649 -22.790   4.757  1.00  0.00     0.159 HD
HETATM   23  H   UNL     1      43.551 -21.703   6.099  1.00  0.00     0.159 HD
HETATM   24  O   UNL     1      43.861 -21.087   3.013  1.00  0.00    -0.268 OA
ENDBRANCH  17  20
ENDBRANCH  10  14
ENDBRANCH   7   8
ENDBRANCH   1   7
BRANCH   5  25
HETATM   25  C   UNL     1      43.636  -8.242   9.973  1.00  0.00     0.256 C 
HETATM   26  O   UNL     1      43.611  -7.055   9.667  1.00  0.00    -0.267 OA
HETATM   27  N   UNL     1      43.196  -8.786  11.169  1.00  0.00    -0.323 N 
HETATM   28  H   UNL     1      43.292  -9.783  11.298  1.00  0.00     0.169 HD
BRANCH  27  29
HETATM   29  C   UNL     1      42.669  -8.087  12.279  1.00  0.00     0.035 A 
HETATM   30  C   UNL     1      43.412  -7.738  13.406  1.00  0.00     0.030 A 
HETATM   31  C   UNL     1      42.813  -7.066  14.476  1.00  0.00     0.010 A 
HETATM   32  C   UNL     1      41.462  -6.713  14.426  1.00  0.00    -0.048 A 
HETATM   33  C   UNL     1      40.811  -6.031  15.603  1.00  0.00     0.069 C 
HETATM   34  C   UNL     1      40.696  -7.061  13.302  1.00  0.00    -0.022 A 
HETATM   35  C   UNL     1      39.477  -5.377  15.229  1.00  0.00     0.274 C 
HETATM   36  N   UNL     1      38.625  -6.307  14.482  1.00  0.00     0.087 N 
HETATM   37  C   UNL     1      39.247  -6.643  13.195  1.00  0.00     0.308 C 
HETATM   38  H   UNL     1      37.722  -5.872  14.305  1.00  0.00     0.316 HD
HETATM   39  C   UNL     1      41.310  -7.740  12.235  1.00  0.00     0.039 A 
ENDBRANCH  27  29
ENDBRANCH   5  25
TORSDOF 6
ENDMDL
MODEL 5
REMARK VINA RESULT:      -9.4      2.078      2.466
REMARK  6 active torsions:
REMARK  status: ('A' for Active; 'I' for Inactive)
REMARK       I    between atoms: N_1  and  C_2 
REMARK    1  A    between atoms: C_2  and  C_4 
REMARK    2  A    between atoms: C_7  and  N_8 
REMARK       I    between atoms: N_8  and  C_9 
REMARK       I    between atoms: C_9  and  N_11 
REMARK    3  A    between atoms: N_11  and  C_12 
REMARK    4  A    between atoms: C_12  and  C_13 
REMARK    5  A    between atoms: C_17  and  C_19 
REMARK       I    between atoms: C_19  and  N_21 
REMARK    6  A    between atoms: N_21  and  C_22 
ROOT
HETATM    1  C   UNL     1      40.991 -10.948   5.498  1.00  0.00    -0.040 A 
HETATM    2  C   UNL     1      40.943 -10.149   4.348  1.00  0.00     0.009 A 
HETATM    3  C   UNL     1      41.302  -8.803   4.410  1.00  0.00     0.002 A 
HETATM    4  C   UNL     1      41.727  -8.252   5.618  1.00  0.00     0.017 A 
HETATM    5  C   UNL     1      41.805  -9.038   6.778  1.00  0.00     0.032 A 
HETATM    6  C   UNL     1      41.424 -10.385   6.712  1.00  0.00     0.026 A 
ENDROOT
BRANCH   1   7
HETATM    7  C   UNL     1      40.617 -12.407   5.427  1.00  0.00     0.162 C 
BRANCH   7   8
HETATM    8  N   UNL     1      41.693 -13.194   4.868  1.00  0.00    -0.339 N 
HETATM    9  C   UNL     1      41.565 -14.556   4.695  1.00  0.00     0.320 C 
HETATM   10  N   UNL     1      42.698 -15.082   4.112  1.00  0.00    -0.309 N 
HETATM   11  O   UNL     1      40.547 -15.165   5.000  1.00  0.00    -0.247 OA
HETATM   12  H   UNL     1      43.395 -14.409   3.832  1.00  0.00     0.170 HD
HETATM   13  H   UNL     1      42.625 -12.837   5.008  1.00  0.00     0.164 HD
BRANCH  10  14
HETATM   14  C   UNL     1      42.934 -16.418   3.731  1.00  0.00     0.036 A 
HETATM   15  C   UNL     1      42.547 -16.961   2.504  1.00  0.00     0.030 A 
HETATM   16  C   UNL     1      42.843 -18.292   2.186  1.00  0.00     0.019 A 
HETATM   17  C   UNL     1      43.536 -19.097   3.096  1.00  0.00     0.032 A 
HETATM   18  C   UNL     1      43.899 -18.567   4.338  1.00  0.00     0.019 A 
HETATM   19  C   UNL     1      43.602 -17.236   4.651  1.00  0.00     0.030 A 
BRANCH  17  20
HETATM   20  C   UNL     1      43.890 -20.511   2.801  1.00  0.00     0.249 C 
HETATM   21  N   UNL     1      44.147 -21.335   3.861  1.00  0.00    -0.366 N 
HETATM   22  H   UNL     1      44.280 -22.314   3.644  1.00  0.00     0.159 HD
HETATM   23  H   UNL     1      43.910 -21.093   4.812  1.00  0.00     0.159 HD
HETATM   24  O   UNL     1      43.912 -20.940   1.654  1.00  0.00    -0.268 OA
ENDBRANCH  17  20
ENDBRANCH  10  14
ENDBRANCH   7   8
ENDBRANCH   1   7
BRANCH   5  25
HETATM   25  C   UNL     1      42.276  -8.375   8.034  1.00  0.00     0.256 C 
HETATM   26  O   UNL     1      43.095  -7.468   7.923  1.00  0.00    -0.267 OA
HETATM   27  N   UNL     1      41.755  -8.864   9.221  1.00  0.00    -0.323 N 
HETATM   28  H   UNL     1      41.098  -9.629   9.170  1.00  0.00     0.169 HD
BRANCH  27  29
HETATM   29  C   UNL     1      42.086  -8.446  10.531  1.00  0.00     0.035 A 
HETATM   30  C   UNL     1      43.335  -8.639  11.119  1.00  0.00     0.030 A 
HETATM   31  C   UNL     1      43.579  -8.217  12.430  1.00  0.00     0.010 A 
HETATM   32  C   UNL     1      42.580  -7.578  13.168  1.00  0.00    -0.048 A 
HETATM   33  C   UNL     1      42.835  -7.169  14.597  1.00  0.00     0.069 C 
HETATM   34  C   UNL     1      41.314  -7.381  12.595  1.00  0.00    -0.022 A 
HETATM   35  C   UNL     1      41.805  -6.154  15.102  1.00  0.00     0.274 C 
HETATM   36  N   UNL     1      40.440  -6.593  14.800  1.00  0.00     0.087 N 
HETATM   37  C   UNL     1      40.231  -6.641  13.348  1.00  0.00     0.308 C 
HETATM   38  H   UNL     1      39.775  -5.936  15.205  1.00  0.00     0.316 HD
HETATM   39  C   UNL     1      41.081  -7.812  11.277  1.00  0.00     0.039 A 
ENDBRANCH  27  29
ENDBRANCH   5  25
TORSDOF 6
ENDMDL
MODEL 6
REMARK VINA RESULT:      -9.4      4.998      9.148
REMARK  6 active torsions:
REMARK  status: ('A' for Active; 'I' for Inactive)
REMARK       I    between atoms: N_1  and  C_2 
REMARK    1  A    between atoms: C_2  and  C_4 
REMARK    2  A    between atoms: C_7  and  N_8 
REMARK       I    between atoms: N_8  and  C_9 
REMARK       I    between atoms: C_9  and  N_11 
REMARK    3  A    between atoms: N_11  and  C_12 
REMARK    4  A    between atoms: C_12  and  C_13 
REMARK    5  A    between atoms: C_17  and  C_19 
REMARK       I    between atoms: C_19  and  N_21 
REMARK    6  A    between atoms: N_21  and  C_22 
ROOT
HETATM    1  C   UNL     1      41.545  -9.326   4.447  1.00  0.00    -0.040 A 
HETATM    2  C   UNL     1      41.450  -8.514   5.585  1.00  0.00     0.009 A 
HETATM    3  C   UNL     1      41.895  -8.980   6.821  1.00  0.00     0.002 A 
HETATM    4  C   UNL     1      42.452 -10.254   6.925  1.00  0.00     0.017 A 
HETATM    5  C   UNL     1      42.578 -11.076   5.795  1.00  0.00     0.032 A 
HETATM    6  C   UNL     1      42.111 -10.609   4.559  1.00  0.00     0.026 A 
ENDROOT
BRANCH   1   7
HETATM    7  C   UNL     1      41.077  -8.817   3.107  1.00  0.00     0.162 C 
BRANCH   7   8
HETATM    8  N   UNL     1      41.461  -9.718   2.044  1.00  0.00    -0.339 N 
HETATM    9  C   UNL     1      40.562 -10.618   1.512  1.00  0.00     0.320 C 
HETATM   10  N   UNL     1      41.142 -11.340   0.490  1.00  0.00    -0.309 N 
HETATM   11  O   UNL     1      39.406 -10.702   1.904  1.00  0.00    -0.247 OA
HETATM   12  H   UNL     1      42.076 -11.058   0.234  1.00  0.00     0.170 HD
HETATM   13  H   UNL     1      42.437  -9.970   2.004  1.00  0.00     0.164 HD
BRANCH  10  14
HETATM   14  C   UNL     1      40.539 -12.315  -0.330  1.00  0.00     0.036 A 
HETATM   15  C   UNL     1      40.390 -13.656   0.032  1.00  0.00     0.030 A 
HETATM   16  C   UNL     1      39.753 -14.561  -0.827  1.00  0.00     0.019 A 
HETATM   17  C   UNL     1      39.255 -14.131  -2.061  1.00  0.00     0.032 A 
HETATM   18  C   UNL     1      39.429 -12.796  -2.440  1.00  0.00     0.019 A 
HETATM   19  C   UNL     1      40.065 -11.895  -1.579  1.00  0.00     0.030 A 
BRANCH  17  20
HETATM   20  C   UNL     1      38.556 -15.047  -3.001  1.00  0.00     0.249 C 
HETATM   21  N   UNL     1      38.273 -16.310  -2.562  1.00  0.00    -0.366 N 
HETATM   22  H   UNL     1      37.704 -16.879  -3.176  1.00  0.00     0.159 HD
HETATM   23  H   UNL     1      38.325 -16.576  -1.590  1.00  0.00     0.159 HD
HETATM   24  O   UNL     1      38.206 -14.677  -4.115  1.00  0.00    -0.268 OA
ENDBRANCH  17  20
ENDBRANCH  10  14
ENDBRANCH   7   8
ENDBRANCH   1   7
BRANCH   5  25
HETATM   25  C   UNL     1      43.192 -12.428   5.987  1.00  0.00     0.256 C 
HETATM   26  O   UNL     1      44.111 -12.523   6.793  1.00  0.00    -0.267 OA
HETATM   27  N   UNL     1      42.675 -13.454   5.214  1.00  0.00    -0.323 N 
HETATM   28  H   UNL     1      41.925 -13.233   4.575  1.00  0.00     0.169 HD
BRANCH  27  29
HETATM   29  C   UNL     1      43.121 -14.796   5.172  1.00  0.00     0.035 A 
HETATM   30  C   UNL     1      43.780 -15.431   6.224  1.00  0.00     0.030 A 
HETATM   31  C   UNL     1      44.212 -16.755   6.099  1.00  0.00     0.010 A 
HETATM   32  C   UNL     1      43.974 -17.472   4.923  1.00  0.00    -0.048 A 
HETATM   33  C   UNL     1      44.485 -18.883   4.778  1.00  0.00     0.069 C 
HETATM   34  C   UNL     1      43.317 -16.847   3.852  1.00  0.00    -0.022 A 
HETATM   35  C   UNL     1      43.804 -19.630   3.626  1.00  0.00     0.274 C 
HETATM   36  N   UNL     1      43.805 -18.824   2.402  1.00  0.00     0.087 N 
HETATM   37  C   UNL     1      42.994 -17.614   2.590  1.00  0.00     0.308 C 
HETATM   38  H   UNL     1      43.409 -19.368   1.637  1.00  0.00     0.316 HD
HETATM   39  C   UNL     1      42.890 -15.514   3.990  1.00  0.00     0.039 A 
ENDBRANCH  27  29
ENDBRANCH   5  25
TORSDOF 6
ENDMDL
MODEL 7
REMARK VINA RESULT:      -9.3      3.463     12.009
REMARK  6 active torsions:
REMARK  status: ('A' for Active; 'I' for Inactive)
REMARK       I    between atoms: N_1  and  C_2 
REMARK    1  A    between atoms: C_2  and  C_4 
REMARK    2  A    between atoms: C_7  and  N_8 
REMARK       I    between atoms: N_8  and  C_9 
REMARK       I    between atoms: C_9  and  N_11 
REMARK    3  A    between atoms: N_11  and  C_12 
REMARK    4  A    between atoms: C_12  and  C_13 
REMARK    5  A    between atoms: C_17  and  C_19 
REMARK       I    between atoms: C_19  and  N_21 
REMARK    6  A    between atoms: N_21  and  C_22 
ROOT
HETATM    1  C   UNL     1      44.286 -10.420  10.240  1.00  0.00    -0.040 A 
HETATM    2  C   UNL     1      45.157  -9.329  10.127  1.00  0.00     0.009 A 
HETATM    3  C   UNL     1      45.846  -9.098   8.937  1.00  0.00     0.002 A 
HETATM    4  C   UNL     1      45.654  -9.946   7.847  1.00  0.00     0.017 A 
HETATM    5  C   UNL     1      44.770 -11.032   7.929  1.00  0.00     0.032 A 
HETATM    6  C   UNL     1      44.096 -11.270   9.135  1.00  0.00     0.026 A 
ENDROOT
BRANCH   1   7
HETATM    7  C   UNL     1      43.530 -10.662  11.522  1.00  0.00     0.162 C 
BRANCH   7   8
HETATM    8  N   UNL     1      42.141 -10.286  11.387  1.00  0.00    -0.339 N 
HETATM    9  C   UNL     1      41.678  -9.078  11.865  1.00  0.00     0.320 C 
HETATM   10  N   UNL     1      40.337  -8.925  11.587  1.00  0.00    -0.309 N 
HETATM   11  O   UNL     1      42.409  -8.268  12.421  1.00  0.00    -0.247 OA
HETATM   12  H   UNL     1      39.923  -9.653  11.024  1.00  0.00     0.170 HD
HETATM   13  H   UNL     1      41.477 -11.043  11.342  1.00  0.00     0.164 HD
BRANCH  10  14
HETATM   14  C   UNL     1      39.517  -7.813  11.868  1.00  0.00     0.036 A 
HETATM   15  C   UNL     1      39.307  -6.755  10.982  1.00  0.00     0.030 A 
HETATM   16  C   UNL     1      38.453  -5.697  11.322  1.00  0.00     0.019 A 
HETATM   17  C   UNL     1      37.796  -5.691  12.556  1.00  0.00     0.032 A 
HETATM   18  C   UNL     1      38.027  -6.734  13.458  1.00  0.00     0.019 A 
HETATM   19  C   UNL     1      38.879  -7.789  13.114  1.00  0.00     0.030 A 
BRANCH  17  20
HETATM   20  C   UNL     1      36.866  -4.602  12.958  1.00  0.00     0.249 C 
HETATM   21  N   UNL     1      36.091  -4.038  11.984  1.00  0.00    -0.366 N 
HETATM   22  H   UNL     1      35.392  -3.376  12.295  1.00  0.00     0.159 HD
HETATM   23  H   UNL     1      35.970  -4.453  11.072  1.00  0.00     0.159 HD
HETATM   24  O   UNL     1      36.763  -4.246  14.126  1.00  0.00    -0.268 OA
ENDBRANCH  17  20
ENDBRANCH  10  14
ENDBRANCH   7   8
ENDBRANCH   1   7
BRANCH   5  25
HETATM   25  C   UNL     1      44.615 -11.893   6.715  1.00  0.00     0.256 C 
HETATM   26  O   UNL     1      45.175 -11.528   5.687  1.00  0.00    -0.267 OA
HETATM   27  N   UNL     1      43.828 -13.024   6.858  1.00  0.00    -0.323 N 
HETATM   28  H   UNL     1      43.411 -13.199   7.761  1.00  0.00     0.169 HD
BRANCH  27  29
HETATM   29  C   UNL     1      43.487 -13.956   5.851  1.00  0.00     0.035 A 
HETATM   30  C   UNL     1      42.637 -13.673   4.782  1.00  0.00     0.030 A 
HETATM   31  C   UNL     1      42.328 -14.655   3.836  1.00  0.00     0.010 A 
HETATM   32  C   UNL     1      42.879 -15.936   3.936  1.00  0.00    -0.048 A 
HETATM   33  C   UNL     1      42.504 -17.004   2.940  1.00  0.00     0.069 C 
HETATM   34  C   UNL     1      43.731 -16.241   5.009  1.00  0.00    -0.022 A 
HETATM   35  C   UNL     1      43.481 -18.184   2.961  1.00  0.00     0.274 C 
HETATM   36  N   UNL     1      43.719 -18.647   4.330  1.00  0.00     0.087 N 
HETATM   37  C   UNL     1      44.388 -17.599   5.111  1.00  0.00     0.308 C 
HETATM   38  H   UNL     1      44.316 -19.472   4.310  1.00  0.00     0.316 HD
HETATM   39  C   UNL     1      44.032 -15.244   5.955  1.00  0.00     0.039 A 
ENDBRANCH  27  29
ENDBRANCH   5  25
TORSDOF 6
ENDMDL
MODEL 8
REMARK VINA RESULT:      -9.1      4.945      8.077
REMARK  6 active torsions:
REMARK  status: ('A' for Active; 'I' for Inactive)
REMARK       I    between atoms: N_1  and  C_2 
REMARK    1  A    between atoms: C_2  and  C_4 
REMARK    2  A    between atoms: C_7  and  N_8 
REMARK       I    between atoms: N_8  and  C_9 
REMARK       I    between atoms: C_9  and  N_11 
REMARK    3  A    between atoms: N_11  and  C_12 
REMARK    4  A    between atoms: C_12  and  C_13 
REMARK    5  A    between atoms: C_17  and  C_19 
REMARK       I    between atoms: C_19  and  N_21 
REMARK    6  A    between atoms: N_21  and  C_22 
ROOT
HETATM    1  C   UNL     1      41.181 -15.918   2.892  1.00  0.00    -0.040 A 
HETATM    2  C   UNL     1      41.980 -17.052   2.692  1.00  0.00     0.009 A 
HETATM    3  C   UNL     1      43.109 -17.266   3.479  1.00  0.00     0.002 A 
HETATM    4  C   UNL     1      43.439 -16.356   4.484  1.00  0.00     0.017 A 
HETATM    5  C   UNL     1      42.641 -15.225   4.718  1.00  0.00     0.032 A 
HETATM    6  C   UNL     1      41.518 -15.007   3.909  1.00  0.00     0.026 A 
ENDROOT
BRANCH   1   7
HETATM    7  C   UNL     1      39.950 -15.695   2.049  1.00  0.00     0.162 C 
BRANCH   7   8
HETATM    8  N   UNL     1      40.296 -15.155   0.754  1.00  0.00    -0.339 N 
HETATM    9  C   UNL     1      40.229 -13.801   0.504  1.00  0.00     0.320 C 
HETATM   10  N   UNL     1      40.642 -13.521  -0.781  1.00  0.00    -0.309 N 
HETATM   11  O   UNL     1      39.878 -12.993   1.354  1.00  0.00    -0.247 OA
HETATM   12  H   UNL     1      40.998 -14.306  -1.304  1.00  0.00     0.170 HD
HETATM   13  H   UNL     1      40.170 -15.772  -0.034  1.00  0.00     0.164 HD
BRANCH  10  14
HETATM   14  C   UNL     1      40.762 -12.258  -1.395  1.00  0.00     0.036 A 
HETATM   15  C   UNL     1      41.413 -11.167  -0.815  1.00  0.00     0.030 A 
HETATM   16  C   UNL     1      41.516  -9.949  -1.501  1.00  0.00     0.019 A 
HETATM   17  C   UNL     1      40.969  -9.813  -2.782  1.00  0.00     0.032 A 
HETATM   18  C   UNL     1      40.291 -10.894  -3.353  1.00  0.00     0.019 A 
HETATM   19  C   UNL     1      40.192 -12.108  -2.665  1.00  0.00     0.030 A 
BRANCH  17  20
HETATM   20  C   UNL     1      41.067  -8.549  -3.559  1.00  0.00     0.249 C 
HETATM   21  N   UNL     1      41.202  -8.649  -4.916  1.00  0.00    -0.366 N 
HETATM   22  H   UNL     1      41.158  -7.781  -5.434  1.00  0.00     0.159 HD
HETATM   23  H   UNL     1      41.033  -9.506  -5.422  1.00  0.00     0.159 HD
HETATM   24  O   UNL     1      40.987  -7.455  -3.016  1.00  0.00    -0.268 OA
ENDBRANCH  17  20
ENDBRANCH  10  14
ENDBRANCH   7   8
ENDBRANCH   1   7
BRANCH   5  25
HETATM   25  C   UNL     1      43.058 -14.299   5.817  1.00  0.00     0.256 C 
HETATM   26  O   UNL     1      42.931 -14.697   6.971  1.00  0.00    -0.267 OA
HETATM   27  N   UNL     1      43.534 -13.058   5.429  1.00  0.00    -0.323 N 
HETATM   28  H   UNL     1      43.571 -12.853   4.441  1.00  0.00     0.169 HD
BRANCH  27  29
HETATM   29  C   UNL     1      43.931 -11.997   6.275  1.00  0.00     0.035 A 
HETATM   30  C   UNL     1      45.228 -11.832   6.763  1.00  0.00     0.030 A 
HETATM   31  C   UNL     1      45.539 -10.768   7.615  1.00  0.00     0.010 A 
HETATM   32  C   UNL     1      44.560  -9.839   7.980  1.00  0.00    -0.048 A 
HETATM   33  C   UNL     1      44.892  -8.723   8.937  1.00  0.00     0.069 C 
HETATM   34  C   UNL     1      43.249  -9.993   7.504  1.00  0.00    -0.022 A 
HETATM   35  C   UNL     1      43.846  -7.603   8.906  1.00  0.00     0.274 C 
HETATM   36  N   UNL     1      42.489  -8.147   9.009  1.00  0.00     0.087 N 
HETATM   37  C   UNL     1      42.183  -8.973   7.834  1.00  0.00     0.308 C 
HETATM   38  H   UNL     1      41.819  -7.381   9.054  1.00  0.00     0.316 HD
HETATM   39  C   UNL     1      42.948 -11.069   6.649  1.00  0.00     0.039 A 
ENDBRANCH  27  29
ENDBRANCH   5  25
TORSDOF 6
ENDMDL
MODEL 9
REMARK VINA RESULT:      -9.1      3.972     12.425
REMARK  6 active torsions:
REMARK  status: ('A' for Active; 'I' for Inactive)
REMARK       I    between atoms: N_1  and  C_2 
REMARK    1  A    between atoms: C_2  and  C_4 
REMARK    2  A    between atoms: C_7  and  N_8 
REMARK       I    between atoms: N_8  and  C_9 
REMARK       I    between atoms: C_9  and  N_11 
REMARK    3  A    between atoms: N_11  and  C_12 
REMARK    4  A    between atoms: C_12  and  C_13 
REMARK    5  A    between atoms: C_17  and  C_19 
REMARK       I    between atoms: C_19  and  N_21 
REMARK    6  A    between atoms: N_21  and  C_22 
ROOT
HETATM    1  C   UNL     1      43.440 -11.875   6.530  1.00  0.00    -0.040 A 
HETATM    2  C   UNL     1      43.633 -13.177   7.012  1.00  0.00     0.009 A 
HETATM    3  C   UNL     1      43.309 -14.276   6.219  1.00  0.00     0.002 A 
HETATM    4  C   UNL     1      42.807 -14.083   4.933  1.00  0.00     0.017 A 
HETATM    5  C   UNL     1      42.626 -12.789   4.421  1.00  0.00     0.032 A 
HETATM    6  C   UNL     1      42.935 -11.688   5.231  1.00  0.00     0.026 A 
ENDROOT
BRANCH   1   7
HETATM    7  C   UNL     1      43.804 -10.685   7.382  1.00  0.00     0.162 C 
BRANCH   7   8
HETATM    8  N   UNL     1      43.554 -10.951   8.781  1.00  0.00    -0.339 N 
HETATM    9  C   UNL     1      43.088  -9.962   9.623  1.00  0.00     0.320 C 
HETATM   10  N   UNL     1      42.889 -10.458  10.893  1.00  0.00    -0.309 N 
HETATM   11  O   UNL     1      42.864  -8.823   9.236  1.00  0.00    -0.247 OA
HETATM   12  H   UNL     1      43.027 -11.452  11.000  1.00  0.00     0.170 HD
HETATM   13  H   UNL     1      44.102 -11.686   9.200  1.00  0.00     0.164 HD
BRANCH  10  14
HETATM   14  C   UNL     1      42.378  -9.777  12.017  1.00  0.00     0.036 A 
HETATM   15  C   UNL     1      41.141 -10.054  12.602  1.00  0.00     0.030 A 
HETATM   16  C   UNL     1      40.714  -9.353  13.737  1.00  0.00     0.019 A 
HETATM   17  C   UNL     1      41.527  -8.365  14.302  1.00  0.00     0.032 A 
HETATM   18  C   UNL     1      42.753  -8.064  13.702  1.00  0.00     0.019 A 
HETATM   19  C   UNL     1      43.176  -8.768  12.569  1.00  0.00     0.030 A 
BRANCH  17  20
HETATM   20  C   UNL     1      41.128  -7.604  15.516  1.00  0.00     0.249 C 
HETATM   21  N   UNL     1      41.250  -8.229  16.725  1.00  0.00    -0.366 N 
HETATM   22  H   UNL     1      41.077  -7.660  17.543  1.00  0.00     0.159 HD
HETATM   23  H   UNL     1      41.779  -9.081  16.850  1.00  0.00     0.159 HD
HETATM   24  O   UNL     1      40.743  -6.443  15.447  1.00  0.00    -0.268 OA
ENDBRANCH  17  20
ENDBRANCH  10  14
ENDBRANCH   7   8
ENDBRANCH   1   7
BRANCH   5  25
HETATM   25  C   UNL     1      42.087 -12.664   3.030  1.00  0.00     0.256 C 
HETATM   26  O   UNL     1      42.478 -11.719   2.354  1.00  0.00    -0.267 OA
HETATM   27  N   UNL     1      41.170 -13.625   2.636  1.00  0.00    -0.323 N 
HETATM   28  H   UNL     1      40.922 -14.343   3.302  1.00  0.00     0.169 HD
BRANCH  27  29
HETATM   29  C   UNL     1      40.481 -13.689   1.403  1.00  0.00     0.035 A 
HETATM   30  C   UNL     1      40.444 -14.820   0.588  1.00  0.00     0.030 A 
HETATM   31  C   UNL     1      39.759 -14.799  -0.631  1.00  0.00     0.010 A 
HETATM   32  C   UNL     1      39.084 -13.649  -1.047  1.00  0.00    -0.048 A 
HETATM   33  C   UNL     1      38.388 -13.618  -2.384  1.00  0.00     0.069 C 
HETATM   34  C   UNL     1      39.115 -12.499  -0.242  1.00  0.00    -0.022 A 
HETATM   35  C   UNL     1      37.392 -12.459  -2.492  1.00  0.00     0.274 C 
HETATM   36  N   UNL     1      38.002 -11.197  -2.064  1.00  0.00     0.087 N 
HETATM   37  C   UNL     1      38.346 -11.258  -0.638  1.00  0.00     0.308 C 
HETATM   38  H   UNL     1      37.343 -10.435  -2.209  1.00  0.00     0.316 HD
HETATM   39  C   UNL     1      39.810 -12.532   0.980  1.00  0.00     0.039 A 
ENDBRANCH  27  29
ENDBRANCH   5  25
TORSDOF 6
ENDMDL
MODEL 10
REMARK VINA RESULT:      -9.1      3.685     11.892
REMARK  6 active torsions:
REMARK  status: ('A' for Active; 'I' for Inactive)
REMARK       I    between atoms: N_1  and  C_2 
REMARK    1  A    between atoms: C_2  and  C_4 
REMARK    2  A    between atoms: C_7  and  N_8 
REMARK       I    between atoms: N_8  and  C_9 
REMARK       I    between atoms: C_9  and  N_11 
REMARK    3  A    between atoms: N_11  and  C_12 
REMARK    4  A    between atoms: C_12  and  C_13 
REMARK    5  A    between atoms: C_17  and  C_19 
REMARK       I    between atoms: C_19  and  N_21 
REMARK    6  A    between atoms: N_21  and  C_22 
ROOT
HETATM    1  C   UNL     1      44.115 -10.340  10.246  1.00  0.00    -0.040 A 
HETATM    2  C   UNL     1      45.164  -9.417  10.143  1.00  0.00     0.009 A 
HETATM    3  C   UNL     1      45.878  -9.293   8.953  1.00  0.00     0.002 A 
HETATM    4  C   UNL     1      45.537 -10.079   7.852  1.00  0.00     0.017 A 
HETATM    5  C   UNL     1      44.476 -10.994   7.925  1.00  0.00     0.032 A 
HETATM    6  C   UNL     1      43.775 -11.127   9.131  1.00  0.00     0.026 A 
ENDROOT
BRANCH   1   7
HETATM    7  C   UNL     1      43.332 -10.464  11.529  1.00  0.00     0.162 C 
BRANCH   7   8
HETATM    8  N   UNL     1      41.944 -10.114  11.329  1.00  0.00    -0.339 N 
HETATM    9  C   UNL     1      41.430  -8.928  11.811  1.00  0.00     0.320 C 
HETATM   10  N   UNL     1      40.102  -8.797  11.466  1.00  0.00    -0.309 N 
HETATM   11  O   UNL     1      42.112  -8.118  12.425  1.00  0.00    -0.247 OA
HETATM   12  H   UNL     1      39.735  -9.519  10.864  1.00  0.00     0.170 HD
HETATM   13  H   UNL     1      41.301 -10.884  11.231  1.00  0.00     0.164 HD
BRANCH  10  14
HETATM   14  C   UNL     1      39.244  -7.710  11.729  1.00  0.00     0.036 A 
HETATM   15  C   UNL     1      38.477  -7.584  12.889  1.00  0.00     0.030 A 
HETATM   16  C   UNL     1      37.668  -6.458  13.092  1.00  0.00     0.019 A 
HETATM   17  C   UNL     1      37.620  -5.442  12.132  1.00  0.00     0.032 A 
HETATM   18  C   UNL     1      38.362  -5.580  10.955  1.00  0.00     0.019 A 
HETATM   19  C   UNL     1      39.170  -6.705  10.757  1.00  0.00     0.030 A 
BRANCH  17  20
HETATM   20  C   UNL     1      36.791  -4.220  12.306  1.00  0.00     0.249 C 
HETATM   21  N   UNL     1      37.144  -3.352  13.301  1.00  0.00    -0.366 N 
HETATM   22  H   UNL     1      36.634  -2.478  13.333  1.00  0.00     0.159 HD
HETATM   23  H   UNL     1      38.035  -3.392  13.772  1.00  0.00     0.159 HD
HETATM   24  O   UNL     1      35.850  -3.972  11.562  1.00  0.00    -0.268 OA
ENDBRANCH  17  20
ENDBRANCH  10  14
ENDBRANCH   7   8
ENDBRANCH   1   7
BRANCH   5  25
HETATM   25  C   UNL     1      44.169 -11.797   6.699  1.00  0.00     0.256 C 
HETATM   26  O   UNL     1      44.728 -11.474   5.656  1.00  0.00    -0.267 OA
HETATM   27  N   UNL     1      43.255 -12.827   6.852  1.00  0.00    -0.323 N 
HETATM   28  H   UNL     1      42.856 -12.973   7.767  1.00  0.00     0.169 HD
BRANCH  27  29
HETATM   29  C   UNL     1      42.762 -13.683   5.840  1.00  0.00     0.035 A 
HETATM   30  C   UNL     1      43.300 -14.936   5.548  1.00  0.00     0.030 A 
HETATM   31  C   UNL     1      42.771 -15.716   4.515  1.00  0.00     0.010 A 
HETATM   32  C   UNL     1      41.681 -15.262   3.768  1.00  0.00    -0.048 A 
HETATM   33  C   UNL     1      41.147 -16.087   2.625  1.00  0.00     0.069 C 
HETATM   34  C   UNL     1      41.131 -14.000   4.043  1.00  0.00    -0.022 A 
HETATM   35  C   UNL     1      39.746 -15.642   2.194  1.00  0.00     0.274 C 
HETATM   36  N   UNL     1      39.687 -14.189   2.011  1.00  0.00     0.087 N 
HETATM   37  C   UNL     1      39.916 -13.506   3.290  1.00  0.00     0.308 C 
HETATM   38  H   UNL     1      38.768 -13.928   1.660  1.00  0.00     0.316 HD
HETATM   39  C   UNL     1      41.674 -13.224   5.083  1.00  0.00     0.039 A 
ENDBRANCH  27  29
ENDBRANCH   5  25
TORSDOF 6
ENDMDL
