MODEL 1
REMARK VINA RESULT:      -9.4      0.000      0.000
REMARK  5 active torsions:
REMARK  status: ('A' for Active; 'I' for Inactive)
REMARK    1  A    between atoms: C_7  and  C_8 
REMARK    2  A    between atoms: C_16  and  C_17 
REMARK    3  A    between atoms: C_19  and  O_20 
REMARK    4  A    between atoms: C_24  and  C_25 
REMARK       I    between atoms: C_25  and  N_26 
REMARK    5  A    between atoms: N_26  and  C_27 
ROOT
HETATM    1  C   UNL     1      38.729 -13.513  -1.716  1.00  0.00     0.070 C 
HETATM    2  C   UNL     1      39.730 -13.648  -0.594  1.00  0.00     0.037 C 
HETATM    3  N   UNL     1      39.588 -14.786   0.205  1.00  0.00    -0.192 N 
HETATM    4  C   UNL     1      40.567 -15.202   1.036  1.00  0.00     0.726 A 
HETATM    5  N   UNL     1      41.586 -14.348   1.337  1.00  0.00    -0.083 N 
HETATM    6  N   UNL     1      42.547 -14.948   2.064  1.00  0.00    -0.135 NA
HETATM    7  C   UNL     1      42.024 -16.181   2.218  1.00  0.00     0.199 A 
HETATM    8  N   UNL     1      40.794 -16.358   1.601  1.00  0.00    -0.041 NA
HETATM    9  C   UNL     1      41.673 -12.976   0.838  1.00  0.00     0.202 C 
HETATM   10  C   UNL     1      40.733 -12.764  -0.346  1.00  0.00     0.062 C 
HETATM   11  H   UNL     1      38.927 -15.486  -0.122  1.00  0.00     0.184 HD
ENDROOT
BRANCH  10  12
HETATM   12  C   UNL     1      41.093 -11.708  -1.345  1.00  0.00     0.256 C 
HETATM   13  N   UNL     1      40.969 -10.413  -0.891  1.00  0.00    -0.323 N 
HETATM   14  H   UNL     1      40.552 -10.254   0.016  1.00  0.00     0.169 HD
HETATM   15  O   UNL     1      41.519 -12.049  -2.444  1.00  0.00    -0.267 OA
BRANCH  13  16
HETATM   16  C   UNL     1      41.383  -9.234  -1.550  1.00  0.00     0.035 A 
HETATM   17  C   UNL     1      40.696  -8.645  -2.614  1.00  0.00     0.029 A 
HETATM   18  C   UNL     1      41.190  -7.488  -3.225  1.00  0.00     0.002 A 
HETATM   19  C   UNL     1      42.378  -6.912  -2.782  1.00  0.00     0.000 A 
HETATM   20  C   UNL     1      43.070  -7.489  -1.721  1.00  0.00     0.002 A 
HETATM   21  C   UNL     1      42.571  -8.639  -1.104  1.00  0.00     0.029 A 
ENDBRANCH  13  16
ENDBRANCH  10  12
BRANCH   9  22
HETATM   22  C   UNL     1      41.419 -12.011   1.999  1.00  0.00    -0.025 A 
HETATM   23  C   UNL     1      40.120 -11.738   2.472  1.00  0.00     0.046 A 
HETATM   24  C   UNL     1      39.933 -10.833   3.515  1.00  0.00     0.066 A 
HETATM   25  C   UNL     1      41.015 -10.203   4.115  1.00  0.00     0.036 A 
HETATM   26  C   UNL     1      42.306 -10.484   3.677  1.00  0.00     0.003 A 
HETATM   27  C   UNL     1      42.509 -11.383   2.627  1.00  0.00     0.010 A 
BRANCH  24  28
HETATM   28  O   UNL     1      38.688 -10.534   3.981  1.00  0.00    -0.361 OA
HETATM   29  H   UNL     1      38.621 -10.802   4.912  1.00  0.00     0.217 HD
ENDBRANCH  24  28
ENDBRANCH   9  22
BRANCH   7  30
HETATM   30  C   UNL     1      42.706 -17.263   2.923  1.00  0.00     0.014 A 
HETATM   31  C   UNL     1      43.023 -18.463   2.266  1.00  0.00     0.017 A 
HETATM   32  C   UNL     1      43.655 -19.506   2.950  1.00  0.00     0.025 A 
HETATM   33  C   UNL     1      43.973 -19.355   4.298  1.00  0.00     0.034 A 
HETATM   34 CL   UNL     1      44.742 -20.641   5.144  1.00  0.00    -0.084 Cl
HETATM   35  C   UNL     1      43.668 -18.172   4.966  1.00  0.00     0.025 A 
HETATM   36  C   UNL     1      43.038 -17.128   4.279  1.00  0.00     0.017 A 
ENDBRANCH   7  30
TORSDOF 5
ENDMDL
MODEL 2
REMARK VINA RESULT:      -9.1      1.564      1.964
REMARK  5 active torsions:
REMARK  status: ('A' for Active; 'I' for Inactive)
REMARK    1  A    between atoms: C_7  and  C_8 
REMARK    2  A    between atoms: C_16  and  C_17 
REMARK    3  A    between atoms: C_19  and  O_20 
REMARK    4  A    between atoms: C_24  and  C_25 
REMARK       I    between atoms: C_25  and  N_26 
REMARK    5  A    between atoms: N_26  and  C_27 
ROOT
HETATM    1  C   UNL     1      38.514 -12.003   0.026  1.00  0.00     0.070 C 
HETATM    2  C   UNL     1      39.555 -12.396   1.046  1.00  0.00     0.037 C 
HETATM    3  N   UNL     1      39.443 -13.695   1.548  1.00  0.00    -0.192 N 
HETATM    4  C   UNL     1      40.452 -14.291   2.219  1.00  0.00     0.726 A 
HETATM    5  N   UNL     1      41.480 -13.525   2.683  1.00  0.00    -0.083 N 
HETATM    6  N   UNL     1      42.467 -14.275   3.209  1.00  0.00    -0.135 NA
HETATM    7  C   UNL     1      41.952 -15.513   3.076  1.00  0.00     0.199 A 
HETATM    8  N   UNL     1      40.701 -15.547   2.477  1.00  0.00    -0.041 NA
HETATM    9  C   UNL     1      41.547 -12.073   2.531  1.00  0.00     0.202 C 
HETATM   10  C   UNL     1      40.564 -11.588   1.467  1.00  0.00     0.062 C 
HETATM   11  H   UNL     1      38.772 -14.301   1.083  1.00  0.00     0.184 HD
ENDROOT
BRANCH  10  12
HETATM   12  C   UNL     1      40.887 -10.317   0.743  1.00  0.00     0.256 C 
HETATM   13  N   UNL     1      41.546 -10.483  -0.455  1.00  0.00    -0.323 N 
HETATM   14  H   UNL     1      41.862 -11.409  -0.712  1.00  0.00     0.169 HD
HETATM   15  O   UNL     1      40.504  -9.252   1.215  1.00  0.00    -0.267 OA
BRANCH  13  16
HETATM   16  C   UNL     1      41.835  -9.488  -1.415  1.00  0.00     0.035 A 
HETATM   17  C   UNL     1      42.794  -8.487  -1.247  1.00  0.00     0.029 A 
HETATM   18  C   UNL     1      42.999  -7.526  -2.242  1.00  0.00     0.002 A 
HETATM   19  C   UNL     1      42.244  -7.551  -3.411  1.00  0.00     0.000 A 
HETATM   20  C   UNL     1      41.286  -8.546  -3.591  1.00  0.00     0.002 A 
HETATM   21  C   UNL     1      41.088  -9.512  -2.601  1.00  0.00     0.029 A 
ENDBRANCH  13  16
ENDBRANCH  10  12
BRANCH   9  22
HETATM   22  C   UNL     1      41.333 -11.422   3.900  1.00  0.00    -0.025 A 
HETATM   23  C   UNL     1      40.434 -11.952   4.846  1.00  0.00     0.046 A 
HETATM   24  C   UNL     1      40.252 -11.313   6.071  1.00  0.00     0.066 A 
HETATM   25  C   UNL     1      40.960 -10.161   6.386  1.00  0.00     0.036 A 
HETATM   26  C   UNL     1      41.871  -9.640   5.472  1.00  0.00     0.003 A 
HETATM   27  C   UNL     1      42.060 -10.266   4.237  1.00  0.00     0.010 A 
BRANCH  24  28
HETATM   28  O   UNL     1      39.375 -11.792   6.998  1.00  0.00    -0.361 OA
HETATM   29  H   UNL     1      39.687 -11.552   7.887  1.00  0.00     0.217 HD
ENDBRANCH  24  28
ENDBRANCH   9  22
BRANCH   7  30
HETATM   30  C   UNL     1      42.661 -16.727   3.472  1.00  0.00     0.014 A 
HETATM   31  C   UNL     1      42.941 -17.736   2.536  1.00  0.00     0.017 A 
HETATM   32  C   UNL     1      43.599 -18.907   2.924  1.00  0.00     0.025 A 
HETATM   33  C   UNL     1      43.980 -19.077   4.253  1.00  0.00     0.034 A 
HETATM   34 CL   UNL     1      44.781 -20.522   4.734  1.00  0.00    -0.084 Cl
HETATM   35  C   UNL     1      43.713 -18.087   5.195  1.00  0.00     0.025 A 
HETATM   36  C   UNL     1      43.057 -16.915   4.804  1.00  0.00     0.017 A 
ENDBRANCH   7  30
TORSDOF 5
ENDMDL
MODEL 3
REMARK VINA RESULT:      -9.1      4.570      5.841
REMARK  5 active torsions:
REMARK  status: ('A' for Active; 'I' for Inactive)
REMARK    1  A    between atoms: C_7  and  C_8 
REMARK    2  A    between atoms: C_16  and  C_17 
REMARK    3  A    between atoms: C_19  and  O_20 
REMARK    4  A    between atoms: C_24  and  C_25 
REMARK       I    between atoms: C_25  and  N_26 
REMARK    5  A    between atoms: N_26  and  C_27 
ROOT
HETATM    1  C   UNL     1      38.863 -11.080   6.708  1.00  0.00     0.070 C 
HETATM    2  C   UNL     1      40.143 -11.699   6.201  1.00  0.00     0.037 C 
HETATM    3  N   UNL     1      40.239 -13.086   6.345  1.00  0.00    -0.192 N 
HETATM    4  C   UNL     1      41.161 -13.811   5.679  1.00  0.00     0.726 A 
HETATM    5  N   UNL     1      42.211 -13.168   5.093  1.00  0.00    -0.083 N 
HETATM    6  N   UNL     1      42.967 -14.006   4.359  1.00  0.00    -0.135 NA
HETATM    7  C   UNL     1      42.341 -15.180   4.578  1.00  0.00     0.199 A 
HETATM    8  N   UNL     1      41.229 -15.086   5.401  1.00  0.00    -0.041 NA
HETATM    9  C   UNL     1      42.426 -11.724   5.169  1.00  0.00     0.202 C 
HETATM   10  C   UNL     1      41.156 -11.005   5.617  1.00  0.00     0.062 C 
HETATM   11  H   UNL     1      39.392 -13.567   6.639  1.00  0.00     0.184 HD
ENDROOT
BRANCH  10  12
HETATM   12  C   UNL     1      40.966  -9.584   5.183  1.00  0.00     0.256 C 
HETATM   13  N   UNL     1      41.404  -8.639   6.084  1.00  0.00    -0.323 N 
HETATM   14  H   UNL     1      41.712  -8.944   6.998  1.00  0.00     0.169 HD
HETATM   15  O   UNL     1      40.507  -9.360   4.068  1.00  0.00    -0.267 OA
BRANCH  13  16
HETATM   16  C   UNL     1      41.496  -7.243   5.881  1.00  0.00     0.035 A 
HETATM   17  C   UNL     1      41.756  -6.644   4.647  1.00  0.00     0.029 A 
HETATM   18  C   UNL     1      41.853  -5.253   4.540  1.00  0.00     0.002 A 
HETATM   19  C   UNL     1      41.699  -4.448   5.665  1.00  0.00     0.000 A 
HETATM   20  C   UNL     1      41.438  -5.035   6.900  1.00  0.00     0.002 A 
HETATM   21  C   UNL     1      41.330  -6.424   7.006  1.00  0.00     0.029 A 
ENDBRANCH  13  16
ENDBRANCH  10  12
BRANCH   9  22
HETATM   22  C   UNL     1      43.632 -11.451   6.070  1.00  0.00    -0.025 A 
HETATM   23  C   UNL     1      43.499 -11.264   7.460  1.00  0.00     0.046 A 
HETATM   24  C   UNL     1      44.621 -10.992   8.239  1.00  0.00     0.066 A 
HETATM   25  C   UNL     1      45.885 -10.920   7.669  1.00  0.00     0.036 A 
HETATM   26  C   UNL     1      46.036 -11.130   6.300  1.00  0.00     0.003 A 
HETATM   27  C   UNL     1      44.919 -11.396   5.505  1.00  0.00     0.010 A 
BRANCH  24  28
HETATM   28  O   UNL     1      44.521 -10.788   9.583  1.00  0.00    -0.361 OA
HETATM   29  H   UNL     1      43.883 -11.419   9.956  1.00  0.00     0.217 HD
ENDBRANCH  24  28
ENDBRANCH   9  22
BRANCH   7  30
HETATM   30  C   UNL     1      42.755 -16.439   3.963  1.00  0.00     0.014 A 
HETATM   31  C   UNL     1      42.236 -16.839   2.722  1.00  0.00     0.017 A 
HETATM   32  C   UNL     1      42.615 -18.056   2.148  1.00  0.00     0.025 A 
HETATM   33  C   UNL     1      43.516 -18.883   2.814  1.00  0.00     0.034 A 
HETATM   34 CL   UNL     1      43.976 -20.386   2.115  1.00  0.00    -0.084 Cl
HETATM   35  C   UNL     1      44.043 -18.503   4.046  1.00  0.00     0.025 A 
HETATM   36  C   UNL     1      43.664 -17.283   4.617  1.00  0.00     0.017 A 
ENDBRANCH   7  30
TORSDOF 5
ENDMDL
MODEL 4
REMARK VINA RESULT:      -9.0      5.406      8.948
REMARK  5 active torsions:
REMARK  status: ('A' for Active; 'I' for Inactive)
REMARK    1  A    between atoms: C_7  and  C_8 
REMARK    2  A    between atoms: C_16  and  C_17 
REMARK    3  A    between atoms: C_19  and  O_20 
REMARK    4  A    between atoms: C_24  and  C_25 
REMARK       I    between atoms: C_25  and  N_26 
REMARK    5  A    between atoms: N_26  and  C_27 
ROOT
HETATM    1  C   UNL     1      44.887  -8.857   8.587  1.00  0.00     0.070 C 
HETATM    2  C   UNL     1      43.898  -9.664   7.783  1.00  0.00     0.037 C 
HETATM    3  N   UNL     1      44.444 -10.424   6.745  1.00  0.00    -0.192 N 
HETATM    4  C   UNL     1      43.752 -11.415   6.144  1.00  0.00     0.726 A 
HETATM    5  N   UNL     1      42.404 -11.488   6.332  1.00  0.00    -0.083 N 
HETATM    6  N   UNL     1      41.880 -12.600   5.783  1.00  0.00    -0.135 NA
HETATM    7  C   UNL     1      42.974 -13.153   5.223  1.00  0.00     0.199 A 
HETATM    8  N   UNL     1      44.141 -12.432   5.423  1.00  0.00    -0.041 NA
HETATM    9  C   UNL     1      41.640 -10.528   7.127  1.00  0.00     0.202 C 
HETATM   10  C   UNL     1      42.560  -9.703   8.023  1.00  0.00     0.062 C 
HETATM   11  H   UNL     1      45.459 -10.480   6.714  1.00  0.00     0.184 HD
ENDROOT
BRANCH  10  12
HETATM   12  C   UNL     1      41.988  -9.147   9.290  1.00  0.00     0.256 C 
HETATM   13  N   UNL     1      42.311  -9.849  10.430  1.00  0.00    -0.323 N 
HETATM   14  H   UNL     1      42.803 -10.728  10.336  1.00  0.00     0.169 HD
HETATM   15  O   UNL     1      41.342  -8.105   9.244  1.00  0.00    -0.267 OA
BRANCH  13  16
HETATM   16  C   UNL     1      42.048  -9.476  11.767  1.00  0.00     0.035 A 
HETATM   17  C   UNL     1      40.908  -9.854  12.480  1.00  0.00     0.029 A 
HETATM   18  C   UNL     1      40.716  -9.419  13.795  1.00  0.00     0.002 A 
HETATM   19  C   UNL     1      41.657  -8.597  14.408  1.00  0.00     0.000 A 
HETATM   20  C   UNL     1      42.798  -8.215  13.708  1.00  0.00     0.002 A 
HETATM   21  C   UNL     1      42.995  -8.657  12.397  1.00  0.00     0.029 A 
ENDBRANCH  13  16
ENDBRANCH  10  12
BRANCH   9  22
HETATM   22  C   UNL     1      40.784  -9.677   6.184  1.00  0.00    -0.025 A 
HETATM   23  C   UNL     1      39.377  -9.748   6.184  1.00  0.00     0.046 A 
HETATM   24  C   UNL     1      38.639  -8.975   5.291  1.00  0.00     0.066 A 
HETATM   25  C   UNL     1      39.269  -8.113   4.404  1.00  0.00     0.036 A 
HETATM   26  C   UNL     1      40.658  -8.012   4.410  1.00  0.00     0.003 A 
HETATM   27  C   UNL     1      41.412  -8.786   5.295  1.00  0.00     0.010 A 
BRANCH  24  28
HETATM   28  O   UNL     1      37.277  -9.036   5.256  1.00  0.00    -0.361 OA
HETATM   29  H   UNL     1      36.933  -9.043   6.164  1.00  0.00     0.217 HD
ENDBRANCH  24  28
ENDBRANCH   9  22
BRANCH   7  30
HETATM   30  C   UNL     1      42.956 -14.429   4.512  1.00  0.00     0.014 A 
HETATM   31  C   UNL     1      42.946 -15.645   5.214  1.00  0.00     0.017 A 
HETATM   32  C   UNL     1      42.953 -16.865   4.530  1.00  0.00     0.025 A 
HETATM   33  C   UNL     1      42.972 -16.876   3.137  1.00  0.00     0.034 A 
HETATM   34 CL   UNL     1      42.991 -18.375   2.295  1.00  0.00    -0.084 Cl
HETATM   35  C   UNL     1      42.979 -15.680   2.423  1.00  0.00     0.025 A 
HETATM   36  C   UNL     1      42.969 -14.461   3.110  1.00  0.00     0.017 A 
ENDBRANCH   7  30
TORSDOF 5
ENDMDL
MODEL 5
REMARK VINA RESULT:      -8.8      3.729      8.903
REMARK  5 active torsions:
REMARK  status: ('A' for Active; 'I' for Inactive)
REMARK    1  A    between atoms: C_7  and  C_8 
REMARK    2  A    between atoms: C_16  and  C_17 
REMARK    3  A    between atoms: C_19  and  O_20 
REMARK    4  A    between atoms: C_24  and  C_25 
REMARK       I    between atoms: C_25  and  N_26 
REMARK    5  A    between atoms: N_26  and  C_27 
ROOT
HETATM    1  C   UNL     1      39.578 -13.236   4.255  1.00  0.00     0.070 C 
HETATM    2  C   UNL     1      39.909 -12.675   2.894  1.00  0.00     0.037 C 
HETATM    3  N   UNL     1      39.737 -11.295   2.753  1.00  0.00    -0.192 N 
HETATM    4  C   UNL     1      40.271 -10.611   1.720  1.00  0.00     0.726 A 
HETATM    5  N   UNL     1      40.724 -11.300   0.634  1.00  0.00    -0.083 N 
HETATM    6  N   UNL     1      41.345 -10.494  -0.248  1.00  0.00    -0.135 NA
HETATM    7  C   UNL     1      41.195  -9.294   0.345  1.00  0.00     0.199 A 
HETATM    8  N   UNL     1      40.523  -9.339   1.558  1.00  0.00    -0.041 NA
HETATM    9  C   UNL     1      40.638 -12.753   0.498  1.00  0.00     0.202 C 
HETATM   10  C   UNL     1      40.365 -13.413   1.847  1.00  0.00     0.062 C 
HETATM   11  H   UNL     1      39.549 -10.776   3.608  1.00  0.00     0.184 HD
ENDROOT
BRANCH  10  12
HETATM   12  C   UNL     1      40.836 -14.821   2.045  1.00  0.00     0.256 C 
HETATM   13  N   UNL     1      42.135 -14.941   2.489  1.00  0.00    -0.323 N 
HETATM   14  H   UNL     1      42.708 -14.110   2.546  1.00  0.00     0.169 HD
HETATM   15  O   UNL     1      40.048 -15.743   1.864  1.00  0.00    -0.267 OA
BRANCH  13  16
HETATM   16  C   UNL     1      42.789 -16.122   2.908  1.00  0.00     0.035 A 
HETATM   17  C   UNL     1      42.970 -17.249   2.102  1.00  0.00     0.029 A 
HETATM   18  C   UNL     1      43.609 -18.385   2.606  1.00  0.00     0.002 A 
HETATM   19  C   UNL     1      44.068 -18.411   3.920  1.00  0.00     0.000 A 
HETATM   20  C   UNL     1      43.895 -17.293   4.731  1.00  0.00     0.002 A 
HETATM   21  C   UNL     1      43.265 -16.152   4.225  1.00  0.00     0.029 A 
ENDBRANCH  13  16
ENDBRANCH  10  12
BRANCH   9  22
HETATM   22  C   UNL     1      39.592 -13.088  -0.568  1.00  0.00    -0.025 A 
HETATM   23  C   UNL     1      39.662 -14.265  -1.340  1.00  0.00     0.046 A 
HETATM   24  C   UNL     1      38.702 -14.517  -2.317  1.00  0.00     0.066 A 
HETATM   25  C   UNL     1      37.656 -13.631  -2.535  1.00  0.00     0.036 A 
HETATM   26  C   UNL     1      37.558 -12.478  -1.762  1.00  0.00     0.003 A 
HETATM   27  C   UNL     1      38.517 -12.207  -0.783  1.00  0.00     0.010 A 
BRANCH  24  28
HETATM   28  O   UNL     1      38.755 -15.638  -3.092  1.00  0.00    -0.361 OA
HETATM   29  H   UNL     1      39.677 -15.806  -3.350  1.00  0.00     0.217 HD
ENDBRANCH  24  28
ENDBRANCH   9  22
BRANCH   7  30
HETATM   30  C   UNL     1      41.736  -8.052  -0.202  1.00  0.00     0.014 A 
HETATM   31  C   UNL     1      42.771  -8.074  -1.150  1.00  0.00     0.017 A 
HETATM   32  C   UNL     1      43.303  -6.884  -1.654  1.00  0.00     0.025 A 
HETATM   33  C   UNL     1      42.804  -5.661  -1.210  1.00  0.00     0.034 A 
HETATM   34 CL   UNL     1      43.465  -4.195  -1.822  1.00  0.00    -0.084 Cl
HETATM   35  C   UNL     1      41.776  -5.619  -0.271  1.00  0.00     0.025 A 
HETATM   36  C   UNL     1      41.243  -6.812   0.230  1.00  0.00     0.017 A 
ENDBRANCH   7  30
TORSDOF 5
ENDMDL
MODEL 6
REMARK VINA RESULT:      -8.4     16.989     19.657
REMARK  5 active torsions:
REMARK  status: ('A' for Active; 'I' for Inactive)
REMARK    1  A    between atoms: C_7  and  C_8 
REMARK    2  A    between atoms: C_16  and  C_17 
REMARK    3  A    between atoms: C_19  and  O_20 
REMARK    4  A    between atoms: C_24  and  C_25 
REMARK       I    between atoms: C_25  and  N_26 
REMARK    5  A    between atoms: N_26  and  C_27 
ROOT
HETATM    1  C   UNL     1      47.626 -28.351   2.289  1.00  0.00     0.070 C 
HETATM    2  C   UNL     1      47.691 -29.140   1.005  1.00  0.00     0.037 C 
HETATM    3  N   UNL     1      48.839 -28.940   0.233  1.00  0.00    -0.192 N 
HETATM    4  C   UNL     1      49.185 -29.781  -0.764  1.00  0.00     0.726 A 
HETATM    5  N   UNL     1      48.260 -30.665  -1.234  1.00  0.00    -0.083 N 
HETATM    6  N   UNL     1      48.792 -31.520  -2.128  1.00  0.00    -0.135 NA
HETATM    7  C   UNL     1      50.060 -31.068  -2.198  1.00  0.00     0.199 A 
HETATM    8  N   UNL     1      50.323 -29.985  -1.372  1.00  0.00    -0.041 NA
HETATM    9  C   UNL     1      46.885 -30.741  -0.745  1.00  0.00     0.202 C 
HETATM   10  C   UNL     1      46.738 -30.016   0.590  1.00  0.00     0.062 C 
HETATM   11  H   UNL     1      49.584 -28.400   0.667  1.00  0.00     0.184 HD
ENDROOT
BRANCH  10  12
HETATM   12  C   UNL     1      45.655 -30.473   1.519  1.00  0.00     0.256 C 
HETATM   13  N   UNL     1      44.391 -30.026   1.201  1.00  0.00    -0.323 N 
HETATM   14  H   UNL     1      44.287 -29.351   0.455  1.00  0.00     0.169 HD
HETATM   15  O   UNL     1      45.941 -31.238   2.434  1.00  0.00    -0.267 OA
BRANCH  13  16
HETATM   16  C   UNL     1      43.172 -30.419   1.797  1.00  0.00     0.035 A 
HETATM   17  C   UNL     1      42.712 -29.951   3.030  1.00  0.00     0.029 A 
HETATM   18  C   UNL     1      41.502 -30.411   3.558  1.00  0.00     0.002 A 
HETATM   19  C   UNL     1      40.742 -31.348   2.862  1.00  0.00     0.000 A 
HETATM   20  C   UNL     1      41.189 -31.820   1.631  1.00  0.00     0.002 A 
HETATM   21  C   UNL     1      42.394 -31.352   1.099  1.00  0.00     0.029 A 
ENDBRANCH  13  16
ENDBRANCH  10  12
BRANCH   9  22
HETATM   22  C   UNL     1      45.944 -30.214  -1.832  1.00  0.00    -0.025 A 
HETATM   23  C   UNL     1      46.153 -28.971  -2.462  1.00  0.00     0.046 A 
HETATM   24  C   UNL     1      45.258 -28.519  -3.428  1.00  0.00     0.066 A 
HETATM   25  C   UNL     1      44.162 -29.286  -3.800  1.00  0.00     0.036 A 
HETATM   26  C   UNL     1      43.957 -30.528  -3.206  1.00  0.00     0.003 A 
HETATM   27  C   UNL     1      44.843 -30.992  -2.230  1.00  0.00     0.010 A 
BRANCH  24  28
HETATM   28  O   UNL     1      45.424 -27.312  -4.041  1.00  0.00    -0.361 OA
HETATM   29  H   UNL     1      45.127 -27.378  -4.964  1.00  0.00     0.217 HD
ENDBRANCH  24  28
ENDBRANCH   9  22
BRANCH   7  30
HETATM   30  C   UNL     1      51.091 -31.689  -3.025  1.00  0.00     0.014 A 
HETATM   31  C   UNL     1      50.747 -32.518  -4.104  1.00  0.00     0.017 A 
HETATM   32  C   UNL     1      51.736 -33.130  -4.879  1.00  0.00     0.025 A 
HETATM   33  C   UNL     1      53.080 -32.919  -4.577  1.00  0.00     0.034 A 
HETATM   34 CL   UNL     1      54.298 -33.680  -5.523  1.00  0.00    -0.084 Cl
HETATM   35  C   UNL     1      53.441 -32.099  -3.511  1.00  0.00     0.025 A 
HETATM   36  C   UNL     1      52.449 -31.485  -2.738  1.00  0.00     0.017 A 
ENDBRANCH   7  30
TORSDOF 5
ENDMDL
MODEL 7
REMARK VINA RESULT:      -8.2      6.194      9.756
REMARK  5 active torsions:
REMARK  status: ('A' for Active; 'I' for Inactive)
REMARK    1  A    between atoms: C_7  and  C_8 
REMARK    2  A    between atoms: C_16  and  C_17 
REMARK    3  A    between atoms: C_19  and  O_20 
REMARK    4  A    between atoms: C_24  and  C_25 
REMARK       I    between atoms: C_25  and  N_26 
REMARK    5  A    between atoms: N_26  and  C_27 
ROOT
HETATM    1  C   UNL     1      46.122 -10.249   8.703  1.00  0.00     0.070 C 
HETATM    2  C   UNL     1      44.785 -10.382   8.017  1.00  0.00     0.037 C 
HETATM    3  N   UNL     1      44.836 -10.688   6.654  1.00  0.00    -0.192 N 
HETATM    4  C   UNL     1      43.754 -11.134   5.982  1.00  0.00     0.726 A 
HETATM    5  N   UNL     1      42.521 -11.002   6.549  1.00  0.00    -0.083 N 
HETATM    6  N   UNL     1      41.566 -11.611   5.822  1.00  0.00    -0.135 NA
HETATM    7  C   UNL     1      42.286 -12.067   4.778  1.00  0.00     0.199 A 
HETATM    8  N   UNL     1      43.639 -11.774   4.848  1.00  0.00    -0.041 NA
HETATM    9  C   UNL     1      42.286 -10.366   7.844  1.00  0.00     0.202 C 
HETATM   10  C   UNL     1      43.583 -10.245   8.639  1.00  0.00     0.062 C 
HETATM   11  H   UNL     1      45.750 -10.934   6.283  1.00  0.00     0.184 HD
ENDROOT
BRANCH  10  12
HETATM   12  C   UNL     1      43.488 -10.213  10.133  1.00  0.00     0.256 C 
HETATM   13  N   UNL     1      42.955  -9.056  10.656  1.00  0.00    -0.323 N 
HETATM   14  H   UNL     1      42.770  -8.281  10.033  1.00  0.00     0.169 HD
HETATM   15  O   UNL     1      43.822 -11.206  10.771  1.00  0.00    -0.267 OA
BRANCH  13  16
HETATM   16  C   UNL     1      42.603  -8.810  12.003  1.00  0.00     0.035 A 
HETATM   17  C   UNL     1      41.548  -9.438  12.668  1.00  0.00     0.029 A 
HETATM   18  C   UNL     1      41.256  -9.117  13.997  1.00  0.00     0.002 A 
HETATM   19  C   UNL     1      42.009  -8.161  14.672  1.00  0.00     0.000 A 
HETATM   20  C   UNL     1      43.065  -7.530  14.020  1.00  0.00     0.002 A 
HETATM   21  C   UNL     1      43.364  -7.857  12.694  1.00  0.00     0.029 A 
ENDBRANCH  13  16
ENDBRANCH  10  12
BRANCH   9  22
HETATM   22  C   UNL     1      41.583  -9.026   7.616  1.00  0.00    -0.025 A 
HETATM   23  C   UNL     1      42.236  -7.934   7.010  1.00  0.00     0.046 A 
HETATM   24  C   UNL     1      41.565  -6.724   6.844  1.00  0.00     0.066 A 
HETATM   25  C   UNL     1      40.247  -6.577   7.253  1.00  0.00     0.036 A 
HETATM   26  C   UNL     1      39.580  -7.656   7.828  1.00  0.00     0.003 A 
HETATM   27  C   UNL     1      40.241  -8.873   8.008  1.00  0.00     0.010 A 
BRANCH  24  28
HETATM   28  O   UNL     1      42.177  -5.645   6.279  1.00  0.00    -0.361 OA
HETATM   29  H   UNL     1      42.909  -5.950   5.716  1.00  0.00     0.217 HD
ENDBRANCH  24  28
ENDBRANCH   9  22
BRANCH   7  30
HETATM   30  C   UNL     1      41.712 -12.851   3.686  1.00  0.00     0.014 A 
HETATM   31  C   UNL     1      42.527 -13.370   2.667  1.00  0.00     0.017 A 
HETATM   32  C   UNL     1      41.972 -14.100   1.611  1.00  0.00     0.025 A 
HETATM   33  C   UNL     1      40.596 -14.314   1.568  1.00  0.00     0.034 A 
HETATM   34 CL   UNL     1      39.911 -15.202   0.264  1.00  0.00    -0.084 Cl
HETATM   35  C   UNL     1      39.772 -13.809   2.570  1.00  0.00     0.025 A 
HETATM   36  C   UNL     1      40.330 -13.081   3.627  1.00  0.00     0.017 A 
ENDBRANCH   7  30
TORSDOF 5
ENDMDL
MODEL 8
REMARK VINA RESULT:      -8.1      3.910      9.169
REMARK  5 active torsions:
REMARK  status: ('A' for Active; 'I' for Inactive)
REMARK    1  A    between atoms: C_7  and  C_8 
REMARK    2  A    between atoms: C_16  and  C_17 
REMARK    3  A    between atoms: C_19  and  O_20 
REMARK    4  A    between atoms: C_24  and  C_25 
REMARK       I    between atoms: C_25  and  N_26 
REMARK    5  A    between atoms: N_26  and  C_27 
ROOT
HETATM    1  C   UNL     1      39.320 -11.818   2.770  1.00  0.00     0.070 C 
HETATM    2  C   UNL     1      39.639 -11.752   1.297  1.00  0.00     0.037 C 
HETATM    3  N   UNL     1      39.471 -10.500   0.700  1.00  0.00    -0.192 N 
HETATM    4  C   UNL     1      39.997 -10.208  -0.509  1.00  0.00     0.726 A 
HETATM    5  N   UNL     1      40.438 -11.225  -1.301  1.00  0.00    -0.083 N 
HETATM    6  N   UNL     1      41.053 -10.769  -2.408  1.00  0.00    -0.135 NA
HETATM    7  C   UNL     1      40.912  -9.438  -2.254  1.00  0.00     0.199 A 
HETATM    8  N   UNL     1      40.251  -9.067  -1.093  1.00  0.00    -0.041 NA
HETATM    9  C   UNL     1      40.346 -12.639  -0.938  1.00  0.00     0.202 C 
HETATM   10  C   UNL     1      40.083 -12.803   0.557  1.00  0.00     0.062 C 
HETATM   11  H   UNL     1      39.292  -9.722   1.330  1.00  0.00     0.184 HD
ENDROOT
BRANCH  10  12
HETATM   12  C   UNL     1      40.552 -14.064   1.215  1.00  0.00     0.256 C 
HETATM   13  N   UNL     1      41.837 -14.017   1.710  1.00  0.00    -0.323 N 
HETATM   14  H   UNL     1      42.406 -13.205   1.510  1.00  0.00     0.169 HD
HETATM   15  O   UNL     1      39.772 -15.005   1.322  1.00  0.00    -0.267 OA
BRANCH  13  16
HETATM   16  C   UNL     1      42.481 -14.989   2.508  1.00  0.00     0.035 A 
HETATM   17  C   UNL     1      42.928 -16.225   2.035  1.00  0.00     0.029 A 
HETATM   18  C   UNL     1      43.536 -17.139   2.901  1.00  0.00     0.002 A 
HETATM   19  C   UNL     1      43.697 -16.831   4.249  1.00  0.00     0.000 A 
HETATM   20  C   UNL     1      43.257 -15.602   4.732  1.00  0.00     0.002 A 
HETATM   21  C   UNL     1      42.658 -14.684   3.864  1.00  0.00     0.029 A 
ENDBRANCH  13  16
ENDBRANCH  10  12
BRANCH   9  22
HETATM   22  C   UNL     1      39.289 -13.308  -1.820  1.00  0.00    -0.025 A 
HETATM   23  C   UNL     1      38.133 -12.625  -2.249  1.00  0.00     0.046 A 
HETATM   24  C   UNL     1      37.185 -13.281  -3.030  1.00  0.00     0.066 A 
HETATM   25  C   UNL     1      37.367 -14.603  -3.413  1.00  0.00     0.036 A 
HETATM   26  C   UNL     1      38.517 -15.282  -3.020  1.00  0.00     0.003 A 
HETATM   27  C   UNL     1      39.474 -14.640  -2.231  1.00  0.00     0.010 A 
BRANCH  24  28
HETATM   28  O   UNL     1      36.048 -12.653  -3.444  1.00  0.00    -0.361 OA
HETATM   29  H   UNL     1      35.983 -11.788  -3.006  1.00  0.00     0.217 HD
ENDBRANCH  24  28
ENDBRANCH   9  22
BRANCH   7  30
HETATM   30  C   UNL     1      41.452  -8.457  -3.193  1.00  0.00     0.014 A 
HETATM   31  C   UNL     1      42.534  -7.638  -2.835  1.00  0.00     0.017 A 
HETATM   32  C   UNL     1      43.033  -6.684  -3.727  1.00  0.00     0.025 A 
HETATM   33  C   UNL     1      42.450  -6.542  -4.984  1.00  0.00     0.034 A 
HETATM   34 CL   UNL     1      43.056  -5.361  -6.079  1.00  0.00    -0.084 Cl
HETATM   35  C   UNL     1      41.377  -7.347  -5.358  1.00  0.00     0.025 A 
HETATM   36  C   UNL     1      40.881  -8.303  -4.464  1.00  0.00     0.017 A 
ENDBRANCH   7  30
TORSDOF 5
ENDMDL
MODEL 9
REMARK VINA RESULT:      -7.8      1.913      2.343
REMARK  5 active torsions:
REMARK  status: ('A' for Active; 'I' for Inactive)
REMARK    1  A    between atoms: C_7  and  C_8 
REMARK    2  A    between atoms: C_16  and  C_17 
REMARK    3  A    between atoms: C_19  and  O_20 
REMARK    4  A    between atoms: C_24  and  C_25 
REMARK       I    between atoms: C_25  and  N_26 
REMARK    5  A    between atoms: N_26  and  C_27 
ROOT
HETATM    1  C   UNL     1      39.456 -11.095  -1.411  1.00  0.00     0.070 C 
HETATM    2  C   UNL     1      40.199 -11.477  -0.155  1.00  0.00     0.037 C 
HETATM    3  N   UNL     1      40.007 -12.791   0.282  1.00  0.00    -0.192 N 
HETATM    4  C   UNL     1      40.821 -13.369   1.190  1.00  0.00     0.726 A 
HETATM    5  N   UNL     1      41.658 -12.581   1.924  1.00  0.00    -0.083 N 
HETATM    6  N   UNL     1      42.495 -13.310   2.685  1.00  0.00    -0.135 NA
HETATM    7  C   UNL     1      42.082 -14.561   2.401  1.00  0.00     0.199 A 
HETATM    8  N   UNL     1      41.039 -14.622   1.489  1.00  0.00    -0.041 NA
HETATM    9  C   UNL     1      41.708 -11.124   1.814  1.00  0.00     0.202 C 
HETATM   10  C   UNL     1      41.028 -10.648   0.533  1.00  0.00     0.062 C 
HETATM   11  H   UNL     1      39.508 -13.408  -0.354  1.00  0.00     0.184 HD
ENDROOT
BRANCH  10  12
HETATM   12  C   UNL     1      41.485  -9.350  -0.061  1.00  0.00     0.256 C 
HETATM   13  N   UNL     1      40.698  -8.262   0.249  1.00  0.00    -0.323 N 
HETATM   14  H   UNL     1      39.830  -8.415   0.745  1.00  0.00     0.169 HD
HETATM   15  O   UNL     1      42.525  -9.327  -0.710  1.00  0.00    -0.267 OA
BRANCH  13  16
HETATM   16  C   UNL     1      40.968  -6.905  -0.036  1.00  0.00     0.035 A 
HETATM   17  C   UNL     1      41.308  -5.951   0.926  1.00  0.00     0.029 A 
HETATM   18  C   UNL     1      41.536  -4.622   0.559  1.00  0.00     0.002 A 
HETATM   19  C   UNL     1      41.422  -4.230  -0.773  1.00  0.00     0.000 A 
HETATM   20  C   UNL     1      41.085  -5.172  -1.741  1.00  0.00     0.002 A 
HETATM   21  C   UNL     1      40.866  -6.504  -1.375  1.00  0.00     0.029 A 
ENDBRANCH  13  16
ENDBRANCH  10  12
BRANCH   9  22
HETATM   22  C   UNL     1      41.111 -10.512   3.084  1.00  0.00    -0.025 A 
HETATM   23  C   UNL     1      39.720 -10.445   3.299  1.00  0.00     0.046 A 
HETATM   24  C   UNL     1      39.220  -9.857   4.458  1.00  0.00     0.066 A 
HETATM   25  C   UNL     1      40.075  -9.347   5.425  1.00  0.00     0.036 A 
HETATM   26  C   UNL     1      41.453  -9.430   5.240  1.00  0.00     0.003 A 
HETATM   27  C   UNL     1      41.970 -10.010   4.079  1.00  0.00     0.010 A 
BRANCH  24  28
HETATM   28  O   UNL     1      37.879  -9.761   4.684  1.00  0.00    -0.361 OA
HETATM   29  H   UNL     1      37.420  -9.633   3.838  1.00  0.00     0.217 HD
ENDBRANCH  24  28
ENDBRANCH   9  22
BRANCH   7  30
HETATM   30  C   UNL     1      42.704 -15.760   2.957  1.00  0.00     0.014 A 
HETATM   31  C   UNL     1      42.986 -16.868   2.143  1.00  0.00     0.017 A 
HETATM   32  C   UNL     1      43.560 -18.023   2.682  1.00  0.00     0.025 A 
HETATM   33  C   UNL     1      43.855 -18.077   4.043  1.00  0.00     0.034 A 
HETATM   34 CL   UNL     1      44.551 -19.502   4.710  1.00  0.00    -0.084 Cl
HETATM   35  C   UNL     1      43.584 -16.987   4.866  1.00  0.00     0.025 A 
HETATM   36  C   UNL     1      43.012 -15.831   4.323  1.00  0.00     0.017 A 
ENDBRANCH   7  30
TORSDOF 5
ENDMDL
MODEL 10
REMARK VINA RESULT:      -7.8      4.518      9.088
REMARK  5 active torsions:
REMARK  status: ('A' for Active; 'I' for Inactive)
REMARK    1  A    between atoms: C_7  and  C_8 
REMARK    2  A    between atoms: C_16  and  C_17 
REMARK    3  A    between atoms: C_19  and  O_20 
REMARK    4  A    between atoms: C_24  and  C_25 
REMARK       I    between atoms: C_25  and  N_26 
REMARK    5  A    between atoms: N_26  and  C_27 
ROOT
HETATM    1  C   UNL     1      40.490 -15.290   7.024  1.00  0.00     0.070 C 
HETATM    2  C   UNL     1      40.829 -14.134   6.115  1.00  0.00     0.037 C 
HETATM    3  N   UNL     1      40.206 -12.922   6.426  1.00  0.00    -0.192 N 
HETATM    4  C   UNL     1      40.631 -11.749   5.912  1.00  0.00     0.726 A 
HETATM    5  N   UNL     1      41.479 -11.762   4.844  1.00  0.00    -0.083 N 
HETATM    6  N   UNL     1      41.916 -10.527   4.534  1.00  0.00    -0.135 NA
HETATM    7  C   UNL     1      41.250  -9.782   5.438  1.00  0.00     0.199 A 
HETATM    8  N   UNL     1      40.440 -10.514   6.293  1.00  0.00    -0.041 NA
HETATM    9  C   UNL     1      41.939 -12.984   4.186  1.00  0.00     0.202 C 
HETATM   10  C   UNL     1      41.690 -14.207   5.066  1.00  0.00     0.062 C 
HETATM   11  H   UNL     1      39.702 -12.889   7.308  1.00  0.00     0.184 HD
ENDROOT
BRANCH  10  12
HETATM   12  C   UNL     1      42.589 -15.391   4.887  1.00  0.00     0.256 C 
HETATM   13  N   UNL     1      42.057 -16.415   4.134  1.00  0.00    -0.323 N 
HETATM   14  H   UNL     1      41.088 -16.358   3.851  1.00  0.00     0.169 HD
HETATM   15  O   UNL     1      43.723 -15.353   5.353  1.00  0.00    -0.267 OA
BRANCH  13  16
HETATM   16  C   UNL     1      42.725 -17.573   3.674  1.00  0.00     0.035 A 
HETATM   17  C   UNL     1      42.633 -18.068   2.371  1.00  0.00     0.029 A 
HETATM   18  C   UNL     1      43.311 -19.236   2.007  1.00  0.00     0.002 A 
HETATM   19  C   UNL     1      44.080 -19.924   2.942  1.00  0.00     0.000 A 
HETATM   20  C   UNL     1      44.180 -19.438   4.243  1.00  0.00     0.002 A 
HETATM   21  C   UNL     1      43.511 -18.265   4.604  1.00  0.00     0.029 A 
ENDBRANCH  13  16
ENDBRANCH  10  12
BRANCH   9  22
HETATM   22  C   UNL     1      41.279 -13.080   2.808  1.00  0.00    -0.025 A 
HETATM   23  C   UNL     1      39.990 -12.569   2.559  1.00  0.00     0.046 A 
HETATM   24  C   UNL     1      39.419 -12.701   1.296  1.00  0.00     0.066 A 
HETATM   25  C   UNL     1      40.109 -13.317   0.261  1.00  0.00     0.036 A 
HETATM   26  C   UNL     1      41.395 -13.803   0.484  1.00  0.00     0.003 A 
HETATM   27  C   UNL     1      41.979 -13.685   1.747  1.00  0.00     0.010 A 
BRANCH  24  28
HETATM   28  O   UNL     1      38.166 -12.233   1.031  1.00  0.00    -0.361 OA
HETATM   29  H   UNL     1      37.553 -12.555   1.713  1.00  0.00     0.217 HD
ENDBRANCH  24  28
ENDBRANCH   9  22
BRANCH   7  30
HETATM   30  C   UNL     1      41.401  -8.333   5.554  1.00  0.00     0.014 A 
HETATM   31  C   UNL     1      41.647  -7.732   6.798  1.00  0.00     0.017 A 
HETATM   32  C   UNL     1      41.767  -6.344   6.910  1.00  0.00     0.025 A 
HETATM   33  C   UNL     1      41.639  -5.546   5.775  1.00  0.00     0.034 A 
HETATM   34 CL   UNL     1      41.776  -3.837   5.912  1.00  0.00    -0.084 Cl
HETATM   35  C   UNL     1      41.396  -6.124   4.532  1.00  0.00     0.025 A 
HETATM   36  C   UNL     1      41.279  -7.514   4.422  1.00  0.00     0.017 A 
ENDBRANCH   7  30
TORSDOF 5
ENDMDL
