MODEL 1
REMARK VINA RESULT:      -9.8      0.000      0.000
REMARK  4 active torsions:
REMARK  status: ('A' for Active; 'I' for Inactive)
REMARK    1  A    between atoms: C_4  and  C_5 
REMARK    2  A    between atoms: C_5  and  C_6 
REMARK    3  A    between atoms: C_7  and  N_8 
REMARK       I    between atoms: N_8  and  C_9 
REMARK    4  A    between atoms: C_9  and  C_10 
ROOT
HETATM    1  N   UNL     1      40.729 -16.409   4.981  1.00  0.00    -0.321 N 
HETATM    2  C   UNL     1      40.515 -15.606   6.083  1.00  0.00     0.277 C 
HETATM    3  O   UNL     1      40.139 -16.075   7.153  1.00  0.00    -0.266 OA
HETATM    4  H   UNL     1      40.207 -17.275   5.040  1.00  0.00     0.169 HD
ENDROOT
BRANCH   1   5
HETATM    5  C   UNL     1      41.095 -15.969   3.702  1.00  0.00     0.041 A 
HETATM    6  C   UNL     1      42.429 -16.033   3.260  1.00  0.00    -0.027 A 
HETATM    7  C   UNL     1      42.717 -15.608   1.950  1.00  0.00     0.010 A 
HETATM    8  C   UNL     1      41.703 -15.169   1.096  1.00  0.00     0.001 A 
HETATM    9  C   UNL     1      40.381 -15.169   1.531  1.00  0.00     0.002 A 
HETATM   10  C   UNL     1      40.075 -15.584   2.827  1.00  0.00     0.030 A 
BRANCH   6  11
HETATM   11  C   UNL     1      43.545 -16.654   4.081  1.00  0.00     0.079 C 
BRANCH  11  12
HETATM   12  C   UNL     1      43.665 -18.155   3.927  1.00  0.00    -0.054 A 
HETATM   13  C   UNL     1      43.484 -18.769   2.679  1.00  0.00     0.007 A 
HETATM   14  C   UNL     1      43.608 -20.153   2.545  1.00  0.00     0.001 A 
HETATM   15  C   UNL     1      43.913 -20.939   3.655  1.00  0.00     0.000 A 
HETATM   16  C   UNL     1      44.091 -20.342   4.901  1.00  0.00     0.001 A 
HETATM   17  C   UNL     1      43.969 -18.959   5.037  1.00  0.00     0.007 A 
ENDBRANCH  11  12
ENDBRANCH   6  11
ENDBRANCH   1   5
BRANCH   2  18
HETATM   18  C   UNL     1      40.598 -14.092   5.946  1.00  0.00     0.156 A 
HETATM   19  N   UNL     1      39.519 -13.446   5.609  1.00  0.00    -0.166 NA
HETATM   20  N   UNL     1      39.593 -12.092   5.475  1.00  0.00    -0.242 N 
HETATM   21  C   UNL     1      40.722 -11.324   5.633  1.00  0.00     0.272 A 
HETATM   22  H   UNL     1      38.733 -11.611   5.231  1.00  0.00     0.192 HD
HETATM   23  O   UNL     1      40.712 -10.107   5.493  1.00  0.00    -0.266 OA
HETATM   24  C   UNL     1      41.956 -12.050   5.976  1.00  0.00     0.046 A 
HETATM   25  C   UNL     1      41.906 -13.432   6.152  1.00  0.00     0.016 A 
HETATM   26  C   UNL     1      43.165 -11.358   6.110  1.00  0.00     0.018 A 
HETATM   27  C   UNL     1      43.078 -14.127   6.474  1.00  0.00     0.015 A 
HETATM   28  C   UNL     1      44.287 -13.436   6.606  1.00  0.00     0.001 A 
HETATM   29  C   UNL     1      44.331 -12.054   6.422  1.00  0.00     0.001 A 
ENDBRANCH   2  18
TORSDOF 4
ENDMDL
MODEL 2
REMARK VINA RESULT:      -9.3      1.451      2.392
REMARK  4 active torsions:
REMARK  status: ('A' for Active; 'I' for Inactive)
REMARK    1  A    between atoms: C_4  and  C_5 
REMARK    2  A    between atoms: C_5  and  C_6 
REMARK    3  A    between atoms: C_7  and  N_8 
REMARK       I    between atoms: N_8  and  C_9 
REMARK    4  A    between atoms: C_9  and  C_10 
ROOT
HETATM    1  N   UNL     1      41.035 -16.330   4.962  1.00  0.00    -0.321 N 
HETATM    2  C   UNL     1      41.234 -15.669   6.157  1.00  0.00     0.277 C 
HETATM    3  O   UNL     1      40.721 -16.063   7.200  1.00  0.00    -0.266 OA
HETATM    4  H   UNL     1      40.184 -16.880   4.975  1.00  0.00     0.169 HD
ENDROOT
BRANCH   1   5
HETATM    5  C   UNL     1      41.520 -15.930   3.711  1.00  0.00     0.041 A 
HETATM    6  C   UNL     1      42.860 -16.147   3.341  1.00  0.00    -0.027 A 
HETATM    7  C   UNL     1      43.268 -15.752   2.054  1.00  0.00     0.010 A 
HETATM    8  C   UNL     1      42.361 -15.195   1.151  1.00  0.00     0.001 A 
HETATM    9  C   UNL     1      41.026 -15.043   1.512  1.00  0.00     0.002 A 
HETATM   10  C   UNL     1      40.602 -15.425   2.785  1.00  0.00     0.030 A 
BRANCH   6  11
HETATM   11  C   UNL     1      43.849 -16.897   4.215  1.00  0.00     0.079 C 
BRANCH  11  12
HETATM   12  C   UNL     1      43.853 -18.396   4.000  1.00  0.00    -0.054 A 
HETATM   13  C   UNL     1      44.110 -19.276   5.060  1.00  0.00     0.007 A 
HETATM   14  C   UNL     1      44.100 -20.657   4.853  1.00  0.00     0.001 A 
HETATM   15  C   UNL     1      43.836 -21.173   3.586  1.00  0.00     0.000 A 
HETATM   16  C   UNL     1      43.583 -20.309   2.523  1.00  0.00     0.001 A 
HETATM   17  C   UNL     1      43.590 -18.929   2.728  1.00  0.00     0.007 A 
ENDBRANCH  11  12
ENDBRANCH   6  11
ENDBRANCH   1   5
BRANCH   2  18
HETATM   18  C   UNL     1      41.978 -14.341   6.174  1.00  0.00     0.156 A 
HETATM   19  N   UNL     1      43.243 -14.348   6.481  1.00  0.00    -0.166 NA
HETATM   20  N   UNL     1      43.907 -13.159   6.508  1.00  0.00    -0.242 N 
HETATM   21  C   UNL     1      43.361 -11.921   6.268  1.00  0.00     0.272 A 
HETATM   22  H   UNL     1      44.897 -13.195   6.732  1.00  0.00     0.192 HD
HETATM   23  O   UNL     1      44.023 -10.891   6.312  1.00  0.00    -0.266 OA
HETATM   24  C   UNL     1      41.922 -11.898   5.957  1.00  0.00     0.046 A 
HETATM   25  C   UNL     1      41.221 -13.101   5.890  1.00  0.00     0.016 A 
HETATM   26  C   UNL     1      41.268 -10.679   5.744  1.00  0.00     0.018 A 
HETATM   27  C   UNL     1      39.851 -13.084   5.598  1.00  0.00     0.015 A 
HETATM   28  C   UNL     1      39.196 -11.866   5.388  1.00  0.00     0.001 A 
HETATM   29  C   UNL     1      39.903 -10.666   5.463  1.00  0.00     0.001 A 
ENDBRANCH   2  18
TORSDOF 4
ENDMDL
MODEL 3
REMARK VINA RESULT:      -8.9      2.821      4.560
REMARK  4 active torsions:
REMARK  status: ('A' for Active; 'I' for Inactive)
REMARK    1  A    between atoms: C_4  and  C_5 
REMARK    2  A    between atoms: C_5  and  C_6 
REMARK    3  A    between atoms: C_7  and  N_8 
REMARK       I    between atoms: N_8  and  C_9 
REMARK    4  A    between atoms: C_9  and  C_10 
ROOT
HETATM    1  N   UNL     1      43.049 -13.236   4.874  1.00  0.00    -0.321 N 
HETATM    2  C   UNL     1      43.166 -12.751   3.588  1.00  0.00     0.277 C 
HETATM    3  O   UNL     1      43.959 -11.856   3.310  1.00  0.00    -0.266 OA
HETATM    4  H   UNL     1      43.368 -12.562   5.560  1.00  0.00     0.169 HD
ENDROOT
BRANCH   1   5
HETATM    5  C   UNL     1      42.136 -14.205   5.308  1.00  0.00     0.041 A 
HETATM    6  C   UNL     1      42.431 -15.578   5.225  1.00  0.00    -0.027 A 
HETATM    7  C   UNL     1      41.482 -16.494   5.713  1.00  0.00     0.010 A 
HETATM    8  C   UNL     1      40.293 -16.055   6.300  1.00  0.00     0.001 A 
HETATM    9  C   UNL     1      40.045 -14.692   6.427  1.00  0.00     0.002 A 
HETATM   10  C   UNL     1      40.972 -13.767   5.947  1.00  0.00     0.030 A 
BRANCH   6  11
HETATM   11  C   UNL     1      43.773 -16.110   4.752  1.00  0.00     0.079 C 
BRANCH  11  12
HETATM   12  C   UNL     1      43.700 -17.465   4.080  1.00  0.00    -0.054 A 
HETATM   13  C   UNL     1      43.173 -17.601   2.788  1.00  0.00     0.007 A 
HETATM   14  C   UNL     1      43.120 -18.853   2.173  1.00  0.00     0.001 A 
HETATM   15  C   UNL     1      43.591 -19.982   2.842  1.00  0.00     0.000 A 
HETATM   16  C   UNL     1      44.113 -19.861   4.128  1.00  0.00     0.001 A 
HETATM   17  C   UNL     1      44.168 -18.610   4.744  1.00  0.00     0.007 A 
ENDBRANCH  11  12
ENDBRANCH   6  11
ENDBRANCH   1   5
BRANCH   2  18
HETATM   18  C   UNL     1      42.197 -13.218   2.510  1.00  0.00     0.156 A 
HETATM   19  N   UNL     1      42.561 -14.203   1.741  1.00  0.00    -0.166 NA
HETATM   20  N   UNL     1      41.700 -14.615   0.769  1.00  0.00    -0.242 N 
HETATM   21  C   UNL     1      40.471 -14.066   0.491  1.00  0.00     0.272 A 
HETATM   22  H   UNL     1      42.000 -15.398   0.196  1.00  0.00     0.192 HD
HETATM   23  O   UNL     1      39.749 -14.490  -0.404  1.00  0.00    -0.266 OA
HETATM   24  C   UNL     1      40.067 -12.926   1.330  1.00  0.00     0.046 A 
HETATM   25  C   UNL     1      40.912 -12.501   2.354  1.00  0.00     0.016 A 
HETATM   26  C   UNL     1      38.853 -12.271   1.090  1.00  0.00     0.018 A 
HETATM   27  C   UNL     1      40.533 -11.415   3.153  1.00  0.00     0.015 A 
HETATM   28  C   UNL     1      39.321 -10.758   2.912  1.00  0.00     0.001 A 
HETATM   29  C   UNL     1      38.484 -11.184   1.881  1.00  0.00     0.001 A 
ENDBRANCH   2  18
TORSDOF 4
ENDMDL
MODEL 4
REMARK VINA RESULT:      -8.6      2.408      4.252
REMARK  4 active torsions:
REMARK  status: ('A' for Active; 'I' for Inactive)
REMARK    1  A    between atoms: C_4  and  C_5 
REMARK    2  A    between atoms: C_5  and  C_6 
REMARK    3  A    between atoms: C_7  and  N_8 
REMARK       I    between atoms: N_8  and  C_9 
REMARK    4  A    between atoms: C_9  and  C_10 
ROOT
HETATM    1  N   UNL     1      43.349 -13.440   4.345  1.00  0.00    -0.321 N 
HETATM    2  C   UNL     1      43.183 -12.250   3.667  1.00  0.00     0.277 C 
HETATM    3  O   UNL     1      44.142 -11.542   3.373  1.00  0.00    -0.266 OA
HETATM    4  H   UNL     1      44.216 -13.457   4.868  1.00  0.00     0.169 HD
ENDROOT
BRANCH   1   5
HETATM    5  C   UNL     1      42.322 -14.286   4.782  1.00  0.00     0.041 A 
HETATM    6  C   UNL     1      42.050 -15.504   4.132  1.00  0.00    -0.027 A 
HETATM    7  C   UNL     1      41.027 -16.321   4.648  1.00  0.00     0.010 A 
HETATM    8  C   UNL     1      40.324 -15.954   5.797  1.00  0.00     0.001 A 
HETATM    9  C   UNL     1      40.647 -14.776   6.461  1.00  0.00     0.002 A 
HETATM   10  C   UNL     1      41.656 -13.950   5.964  1.00  0.00     0.030 A 
BRANCH   6  11
HETATM   11  C   UNL     1      42.888 -16.034   2.981  1.00  0.00     0.079 C 
BRANCH  11  12
HETATM   12  C   UNL     1      43.259 -17.496   3.108  1.00  0.00    -0.054 A 
HETATM   13  C   UNL     1      43.959 -17.968   4.227  1.00  0.00     0.007 A 
HETATM   14  C   UNL     1      44.287 -19.320   4.339  1.00  0.00     0.001 A 
HETATM   15  C   UNL     1      43.922 -20.215   3.335  1.00  0.00     0.000 A 
HETATM   16  C   UNL     1      43.230 -19.758   2.215  1.00  0.00     0.001 A 
HETATM   17  C   UNL     1      42.900 -18.407   2.102  1.00  0.00     0.007 A 
ENDBRANCH  11  12
ENDBRANCH   6  11
ENDBRANCH   1   5
BRANCH   2  18
HETATM   18  C   UNL     1      41.782 -11.715   3.402  1.00  0.00     0.156 A 
HETATM   19  N   UNL     1      41.258 -10.905   4.275  1.00  0.00    -0.166 NA
HETATM   20  N   UNL     1      40.001 -10.434   4.046  1.00  0.00    -0.242 N 
HETATM   21  C   UNL     1      39.198 -10.758   2.979  1.00  0.00     0.272 A 
HETATM   22  H   UNL     1      39.623  -9.789   4.733  1.00  0.00     0.192 HD
HETATM   23  O   UNL     1      38.072 -10.295   2.840  1.00  0.00    -0.266 OA
HETATM   24  C   UNL     1      39.766 -11.705   2.005  1.00  0.00     0.046 A 
HETATM   25  C   UNL     1      41.063 -12.179   2.194  1.00  0.00     0.016 A 
HETATM   26  C   UNL     1      39.005 -12.130   0.910  1.00  0.00     0.018 A 
HETATM   27  C   UNL     1      41.607 -13.082   1.273  1.00  0.00     0.015 A 
HETATM   28  C   UNL     1      40.846 -13.510   0.179  1.00  0.00     0.001 A 
HETATM   29  C   UNL     1      39.546 -13.036  -0.000  1.00  0.00     0.001 A 
ENDBRANCH   2  18
TORSDOF 4
ENDMDL
MODEL 5
REMARK VINA RESULT:      -8.5      2.177      3.470
REMARK  4 active torsions:
REMARK  status: ('A' for Active; 'I' for Inactive)
REMARK    1  A    between atoms: C_4  and  C_5 
REMARK    2  A    between atoms: C_5  and  C_6 
REMARK    3  A    between atoms: C_7  and  N_8 
REMARK       I    between atoms: N_8  and  C_9 
REMARK    4  A    between atoms: C_9  and  C_10 
ROOT
HETATM    1  N   UNL     1      43.297 -13.218   2.545  1.00  0.00    -0.321 N 
HETATM    2  C   UNL     1      43.271 -12.212   3.490  1.00  0.00     0.277 C 
HETATM    3  O   UNL     1      44.257 -11.513   3.708  1.00  0.00    -0.266 OA
HETATM    4  H   UNL     1      44.241 -13.539   2.364  1.00  0.00     0.169 HD
ENDROOT
BRANCH   1   5
HETATM    5  C   UNL     1      42.254 -14.110   2.265  1.00  0.00     0.041 A 
HETATM    6  C   UNL     1      42.164 -15.358   2.909  1.00  0.00    -0.027 A 
HETATM    7  C   UNL     1      41.069 -16.186   2.605  1.00  0.00     0.010 A 
HETATM    8  C   UNL     1      40.075 -15.769   1.717  1.00  0.00     0.001 A 
HETATM    9  C   UNL     1      40.149 -14.507   1.136  1.00  0.00     0.002 A 
HETATM   10  C   UNL     1      41.229 -13.671   1.422  1.00  0.00     0.030 A 
BRANCH   6  11
HETATM   11  C   UNL     1      43.121 -15.795   4.003  1.00  0.00     0.079 C 
BRANCH  11  12
HETATM   12  C   UNL     1      43.459 -17.271   3.976  1.00  0.00    -0.054 A 
HETATM   13  C   UNL     1      43.579 -17.961   2.762  1.00  0.00     0.007 A 
HETATM   14  C   UNL     1      43.902 -19.319   2.747  1.00  0.00     0.001 A 
HETATM   15  C   UNL     1      44.107 -20.003   3.944  1.00  0.00     0.000 A 
HETATM   16  C   UNL     1      43.986 -19.330   5.158  1.00  0.00     0.001 A 
HETATM   17  C   UNL     1      43.665 -17.972   5.175  1.00  0.00     0.007 A 
ENDBRANCH  11  12
ENDBRANCH   6  11
ENDBRANCH   1   5
BRANCH   2  18
HETATM   18  C   UNL     1      42.056 -12.051   4.393  1.00  0.00     0.156 A 
HETATM   19  N   UNL     1      42.003 -12.758   5.484  1.00  0.00    -0.166 NA
HETATM   20  N   UNL     1      40.911 -12.623   6.288  1.00  0.00    -0.242 N 
HETATM   21  C   UNL     1      39.821 -11.822   6.044  1.00  0.00     0.272 A 
HETATM   22  H   UNL     1      40.904 -13.171   7.142  1.00  0.00     0.192 HD
HETATM   23  O   UNL     1      38.871 -11.753   6.815  1.00  0.00    -0.266 OA
HETATM   24  C   UNL     1      39.854 -11.047   4.793  1.00  0.00     0.046 A 
HETATM   25  C   UNL     1      40.972 -11.138   3.965  1.00  0.00     0.016 A 
HETATM   26  C   UNL     1      38.768 -10.239   4.437  1.00  0.00     0.018 A 
HETATM   27  C   UNL     1      41.006 -10.406   2.772  1.00  0.00     0.015 A 
HETATM   28  C   UNL     1      39.920  -9.601   2.414  1.00  0.00     0.001 A 
HETATM   29  C   UNL     1      38.802  -9.519   3.244  1.00  0.00     0.001 A 
ENDBRANCH   2  18
TORSDOF 4
ENDMDL
MODEL 6
REMARK VINA RESULT:      -8.5      2.477      3.815
REMARK  4 active torsions:
REMARK  status: ('A' for Active; 'I' for Inactive)
REMARK    1  A    between atoms: C_4  and  C_5 
REMARK    2  A    between atoms: C_5  and  C_6 
REMARK    3  A    between atoms: C_7  and  N_8 
REMARK       I    between atoms: N_8  and  C_9 
REMARK    4  A    between atoms: C_9  and  C_10 
ROOT
HETATM    1  N   UNL     1      42.054 -13.084   3.520  1.00  0.00    -0.321 N 
HETATM    2  C   UNL     1      42.843 -11.981   3.775  1.00  0.00     0.277 C 
HETATM    3  O   UNL     1      43.265 -11.271   2.866  1.00  0.00    -0.266 OA
HETATM    4  H   UNL     1      42.187 -13.431   2.578  1.00  0.00     0.169 HD
ENDROOT
BRANCH   1   5
HETATM    5  C   UNL     1      41.576 -13.990   4.475  1.00  0.00     0.041 A 
HETATM    6  C   UNL     1      42.195 -15.238   4.675  1.00  0.00    -0.027 A 
HETATM    7  C   UNL     1      41.682 -16.082   5.677  1.00  0.00     0.010 A 
HETATM    8  C   UNL     1      40.613 -15.680   6.479  1.00  0.00     0.001 A 
HETATM    9  C   UNL     1      40.052 -14.419   6.307  1.00  0.00     0.002 A 
HETATM   10  C   UNL     1      40.543 -13.568   5.317  1.00  0.00     0.030 A 
BRANCH   6  11
HETATM   11  C   UNL     1      43.461 -15.660   3.950  1.00  0.00     0.079 C 
BRANCH  11  12
HETATM   12  C   UNL     1      43.526 -17.138   3.628  1.00  0.00    -0.054 A 
HETATM   13  C   UNL     1      42.921 -17.652   2.473  1.00  0.00     0.007 A 
HETATM   14  C   UNL     1      42.996 -19.014   2.180  1.00  0.00     0.001 A 
HETATM   15  C   UNL     1      43.674 -19.879   3.038  1.00  0.00     0.000 A 
HETATM   16  C   UNL     1      44.276 -19.382   4.192  1.00  0.00     0.001 A 
HETATM   17  C   UNL     1      44.203 -18.019   4.486  1.00  0.00     0.007 A 
ENDBRANCH  11  12
ENDBRANCH   6  11
ENDBRANCH   1   5
BRANCH   2  18
HETATM   18  C   UNL     1      43.334 -11.709   5.191  1.00  0.00     0.156 A 
HETATM   19  N   UNL     1      44.317 -12.429   5.649  1.00  0.00    -0.166 NA
HETATM   20  N   UNL     1      44.750 -12.195   6.919  1.00  0.00    -0.242 N 
HETATM   21  C   UNL     1      44.225 -11.278   7.798  1.00  0.00     0.272 A 
HETATM   22  H   UNL     1      45.531 -12.757   7.245  1.00  0.00     0.192 HD
HETATM   23  O   UNL     1      44.667 -11.125   8.930  1.00  0.00    -0.266 OA
HETATM   24  C   UNL     1      43.087 -10.486   7.302  1.00  0.00     0.046 A 
HETATM   25  C   UNL     1      42.641 -10.679   5.996  1.00  0.00     0.016 A 
HETATM   26  C   UNL     1      42.456  -9.560   8.141  1.00  0.00     0.018 A 
HETATM   27  C   UNL     1      41.557  -9.930   5.521  1.00  0.00     0.015 A 
HETATM   28  C   UNL     1      40.924  -9.006   6.360  1.00  0.00     0.001 A 
HETATM   29  C   UNL     1      41.372  -8.823   7.668  1.00  0.00     0.001 A 
ENDBRANCH   2  18
TORSDOF 4
ENDMDL
MODEL 7
REMARK VINA RESULT:      -8.4      2.120      6.155
REMARK  4 active torsions:
REMARK  status: ('A' for Active; 'I' for Inactive)
REMARK    1  A    between atoms: C_4  and  C_5 
REMARK    2  A    between atoms: C_5  and  C_6 
REMARK    3  A    between atoms: C_7  and  N_8 
REMARK       I    between atoms: N_8  and  C_9 
REMARK    4  A    between atoms: C_9  and  C_10 
ROOT
HETATM    1  N   UNL     1      40.999 -14.072   6.692  1.00  0.00    -0.321 N 
HETATM    2  C   UNL     1      40.827 -15.434   6.548  1.00  0.00     0.277 C 
HETATM    3  O   UNL     1      39.846 -16.008   7.014  1.00  0.00    -0.266 OA
HETATM    4  H   UNL     1      40.485 -13.710   7.487  1.00  0.00     0.169 HD
ENDROOT
BRANCH   1   5
HETATM    5  C   UNL     1      42.106 -13.333   6.257  1.00  0.00     0.041 A 
HETATM    6  C   UNL     1      41.993 -12.384   5.224  1.00  0.00    -0.027 A 
HETATM    7  C   UNL     1      43.139 -11.653   4.864  1.00  0.00     0.010 A 
HETATM    8  C   UNL     1      44.349 -11.833   5.536  1.00  0.00     0.001 A 
HETATM    9  C   UNL     1      44.428 -12.733   6.594  1.00  0.00     0.002 A 
HETATM   10  C   UNL     1      43.303 -13.470   6.966  1.00  0.00     0.030 A 
BRANCH   6  11
HETATM   11  C   UNL     1      40.670 -12.025   4.571  1.00  0.00     0.079 C 
BRANCH  11  12
HETATM   12  C   UNL     1      40.597 -12.360   3.096  1.00  0.00    -0.054 A 
HETATM   13  C   UNL     1      41.762 -12.491   2.328  1.00  0.00     0.007 A 
HETATM   14  C   UNL     1      41.685 -12.812   0.972  1.00  0.00     0.001 A 
HETATM   15  C   UNL     1      40.443 -13.003   0.367  1.00  0.00     0.000 A 
HETATM   16  C   UNL     1      39.277 -12.871   1.118  1.00  0.00     0.001 A 
HETATM   17  C   UNL     1      39.353 -12.553   2.475  1.00  0.00     0.007 A 
ENDBRANCH  11  12
ENDBRANCH   6  11
ENDBRANCH   1   5
BRANCH   2  18
HETATM   18  C   UNL     1      41.935 -16.278   5.935  1.00  0.00     0.156 A 
HETATM   19  N   UNL     1      42.854 -16.754   6.725  1.00  0.00    -0.166 NA
HETATM   20  N   UNL     1      43.852 -17.500   6.177  1.00  0.00    -0.242 N 
HETATM   21  C   UNL     1      44.012 -17.784   4.841  1.00  0.00     0.272 A 
HETATM   22  H   UNL     1      44.545 -17.876   6.817  1.00  0.00     0.192 HD
HETATM   23  O   UNL     1      44.940 -18.463   4.419  1.00  0.00    -0.266 OA
HETATM   24  C   UNL     1      42.999 -17.217   3.935  1.00  0.00     0.046 A 
HETATM   25  C   UNL     1      41.946 -16.476   4.468  1.00  0.00     0.016 A 
HETATM   26  C   UNL     1      43.104 -17.412   2.553  1.00  0.00     0.018 A 
HETATM   27  C   UNL     1      40.983 -15.931   3.610  1.00  0.00     0.015 A 
HETATM   28  C   UNL     1      41.089 -16.124   2.228  1.00  0.00     0.001 A 
HETATM   29  C   UNL     1      42.149 -16.861   1.700  1.00  0.00     0.001 A 
ENDBRANCH   2  18
TORSDOF 4
ENDMDL
MODEL 8
REMARK VINA RESULT:      -8.3      2.281      6.372
REMARK  4 active torsions:
REMARK  status: ('A' for Active; 'I' for Inactive)
REMARK    1  A    between atoms: C_4  and  C_5 
REMARK    2  A    between atoms: C_5  and  C_6 
REMARK    3  A    between atoms: C_7  and  N_8 
REMARK       I    between atoms: N_8  and  C_9 
REMARK    4  A    between atoms: C_9  and  C_10 
ROOT
HETATM    1  N   UNL     1      40.841 -13.108   6.176  1.00  0.00    -0.321 N 
HETATM    2  C   UNL     1      40.499 -14.444   6.130  1.00  0.00     0.277 C 
HETATM    3  O   UNL     1      39.841 -14.968   7.024  1.00  0.00    -0.266 OA
HETATM    4  H   UNL     1      40.833 -12.751   7.124  1.00  0.00     0.169 HD
ENDROOT
BRANCH   1   5
HETATM    5  C   UNL     1      41.637 -12.431   5.244  1.00  0.00     0.041 A 
HETATM    6  C   UNL     1      42.967 -12.076   5.536  1.00  0.00    -0.027 A 
HETATM    7  C   UNL     1      43.719 -11.430   4.538  1.00  0.00     0.010 A 
HETATM    8  C   UNL     1      43.176 -11.180   3.277  1.00  0.00     0.001 A 
HETATM    9  C   UNL     1      41.880 -11.591   2.985  1.00  0.00     0.002 A 
HETATM   10  C   UNL     1      41.116 -12.231   3.962  1.00  0.00     0.030 A 
BRANCH   6  11
HETATM   11  C   UNL     1      43.664 -12.469   6.827  1.00  0.00     0.079 C 
BRANCH  11  12
HETATM   12  C   UNL     1      44.389 -11.329   7.511  1.00  0.00    -0.054 A 
HETATM   13  C   UNL     1      43.728 -10.500   8.428  1.00  0.00     0.007 A 
HETATM   14  C   UNL     1      44.408  -9.459   9.060  1.00  0.00     0.001 A 
HETATM   15  C   UNL     1      45.755  -9.232   8.784  1.00  0.00     0.000 A 
HETATM   16  C   UNL     1      46.423 -10.046   7.871  1.00  0.00     0.001 A 
HETATM   17  C   UNL     1      45.745 -11.089   7.239  1.00  0.00     0.007 A 
ENDBRANCH  11  12
ENDBRANCH   6  11
ENDBRANCH   1   5
BRANCH   2  18
HETATM   18  C   UNL     1      41.065 -15.335   5.032  1.00  0.00     0.156 A 
HETATM   19  N   UNL     1      40.341 -15.536   3.970  1.00  0.00    -0.166 NA
HETATM   20  N   UNL     1      40.841 -16.342   2.992  1.00  0.00    -0.242 N 
HETATM   21  C   UNL     1      42.045 -17.003   3.025  1.00  0.00     0.272 A 
HETATM   22  H   UNL     1      40.264 -16.467   2.165  1.00  0.00     0.192 HD
HETATM   23  O   UNL     1      42.429 -17.716   2.105  1.00  0.00    -0.266 OA
HETATM   24  C   UNL     1      42.854 -16.813   4.240  1.00  0.00     0.046 A 
HETATM   25  C   UNL     1      42.385 -15.969   5.245  1.00  0.00     0.016 A 
HETATM   26  C   UNL     1      44.075 -17.483   4.385  1.00  0.00     0.018 A 
HETATM   27  C   UNL     1      43.150 -15.787   6.404  1.00  0.00     0.015 A 
HETATM   28  C   UNL     1      44.368 -16.460   6.550  1.00  0.00     0.001 A 
HETATM   29  C   UNL     1      44.828 -17.308   5.544  1.00  0.00     0.001 A 
ENDBRANCH   2  18
TORSDOF 4
ENDMDL
MODEL 9
REMARK VINA RESULT:      -8.2      2.169      7.001
REMARK  4 active torsions:
REMARK  status: ('A' for Active; 'I' for Inactive)
REMARK    1  A    between atoms: C_4  and  C_5 
REMARK    2  A    between atoms: C_5  and  C_6 
REMARK    3  A    between atoms: C_7  and  N_8 
REMARK       I    between atoms: N_8  and  C_9 
REMARK    4  A    between atoms: C_9  and  C_10 
ROOT
HETATM    1  N   UNL     1      40.976 -14.141   6.605  1.00  0.00    -0.321 N 
HETATM    2  C   UNL     1      40.851 -15.513   6.535  1.00  0.00     0.277 C 
HETATM    3  O   UNL     1      39.903 -16.097   7.053  1.00  0.00    -0.266 OA
HETATM    4  H   UNL     1      40.467 -13.756   7.392  1.00  0.00     0.169 HD
ENDROOT
BRANCH   1   5
HETATM    5  C   UNL     1      42.046 -13.387   6.107  1.00  0.00     0.041 A 
HETATM    6  C   UNL     1      41.943 -12.680   4.894  1.00  0.00    -0.027 A 
HETATM    7  C   UNL     1      43.045 -11.915   4.474  1.00  0.00     0.010 A 
HETATM    8  C   UNL     1      44.199 -11.825   5.254  1.00  0.00     0.001 A 
HETATM    9  C   UNL     1      44.262 -12.482   6.479  1.00  0.00     0.002 A 
HETATM   10  C   UNL     1      43.180 -13.249   6.913  1.00  0.00     0.030 A 
BRANCH   6  11
HETATM   11  C   UNL     1      40.659 -12.605   4.087  1.00  0.00     0.079 C 
BRANCH  11  12
HETATM   12  C   UNL     1      39.823 -11.374   4.366  1.00  0.00    -0.054 A 
HETATM   13  C   UNL     1      39.535 -10.981   5.681  1.00  0.00     0.007 A 
HETATM   14  C   UNL     1      38.772  -9.838   5.928  1.00  0.00     0.001 A 
HETATM   15  C   UNL     1      38.289  -9.077   4.865  1.00  0.00     0.000 A 
HETATM   16  C   UNL     1      38.564  -9.458   3.554  1.00  0.00     0.001 A 
HETATM   17  C   UNL     1      39.328 -10.600   3.305  1.00  0.00     0.007 A 
ENDBRANCH  11  12
ENDBRANCH   6  11
ENDBRANCH   1   5
BRANCH   2  18
HETATM   18  C   UNL     1      41.976 -16.349   5.941  1.00  0.00     0.156 A 
HETATM   19  N   UNL     1      42.890 -16.811   6.745  1.00  0.00    -0.166 NA
HETATM   20  N   UNL     1      43.903 -17.549   6.213  1.00  0.00    -0.242 N 
HETATM   21  C   UNL     1      44.083 -17.838   4.881  1.00  0.00     0.272 A 
HETATM   22  H   UNL     1      44.592 -17.914   6.865  1.00  0.00     0.192 HD
HETATM   23  O   UNL     1      45.024 -18.509   4.476  1.00  0.00    -0.266 OA
HETATM   24  C   UNL     1      43.076 -17.287   3.959  1.00  0.00     0.046 A 
HETATM   25  C   UNL     1      42.008 -16.554   4.476  1.00  0.00     0.016 A 
HETATM   26  C   UNL     1      43.200 -17.489   2.580  1.00  0.00     0.018 A 
HETATM   27  C   UNL     1      41.050 -16.025   3.602  1.00  0.00     0.015 A 
HETATM   28  C   UNL     1      41.175 -16.224   2.223  1.00  0.00     0.001 A 
HETATM   29  C   UNL     1      42.250 -16.953   1.713  1.00  0.00     0.001 A 
ENDBRANCH   2  18
TORSDOF 4
ENDMDL
MODEL 10
REMARK VINA RESULT:      -8.1      7.977     11.056
REMARK  4 active torsions:
REMARK  status: ('A' for Active; 'I' for Inactive)
REMARK    1  A    between atoms: C_4  and  C_5 
REMARK    2  A    between atoms: C_5  and  C_6 
REMARK    3  A    between atoms: C_7  and  N_8 
REMARK       I    between atoms: N_8  and  C_9 
REMARK    4  A    between atoms: C_9  and  C_10 
ROOT
HETATM    1  N   UNL     1      41.224  -9.626   9.459  1.00  0.00    -0.321 N 
HETATM    2  C   UNL     1      40.352  -8.580   9.682  1.00  0.00     0.277 C 
HETATM    3  O   UNL     1      39.148  -8.694   9.471  1.00  0.00    -0.266 OA
HETATM    4  H   UNL     1      40.851 -10.290   8.792  1.00  0.00     0.169 HD
ENDROOT
BRANCH   1   5
HETATM    5  C   UNL     1      42.616  -9.581   9.607  1.00  0.00     0.041 A 
HETATM    6  C   UNL     1      43.226  -9.774  10.860  1.00  0.00    -0.027 A 
HETATM    7  C   UNL     1      44.631  -9.752  10.927  1.00  0.00     0.010 A 
HETATM    8  C   UNL     1      45.404  -9.582   9.777  1.00  0.00     0.001 A 
HETATM    9  C   UNL     1      44.785  -9.453   8.538  1.00  0.00     0.002 A 
HETATM   10  C   UNL     1      43.393  -9.469   8.450  1.00  0.00     0.030 A 
BRANCH   6  11
HETATM   11  C   UNL     1      42.447 -10.128  12.115  1.00  0.00     0.079 C 
BRANCH  11  12
HETATM   12  C   UNL     1      42.465  -9.052  13.179  1.00  0.00    -0.054 A 
HETATM   13  C   UNL     1      43.301  -7.933  13.059  1.00  0.00     0.007 A 
HETATM   14  C   UNL     1      43.302  -6.940  14.040  1.00  0.00     0.001 A 
HETATM   15  C   UNL     1      42.471  -7.055  15.153  1.00  0.00     0.000 A 
HETATM   16  C   UNL     1      41.639  -8.164  15.287  1.00  0.00     0.001 A 
HETATM   17  C   UNL     1      41.635  -9.156  14.306  1.00  0.00     0.007 A 
ENDBRANCH  11  12
ENDBRANCH   6  11
ENDBRANCH   1   5
BRANCH   2  18
HETATM   18  C   UNL     1      40.894  -7.206  10.053  1.00  0.00     0.156 A 
HETATM   19  N   UNL     1      41.797  -6.673   9.282  1.00  0.00    -0.166 NA
HETATM   20  N   UNL     1      42.291  -5.449   9.617  1.00  0.00    -0.242 N 
HETATM   21  C   UNL     1      41.950  -4.715  10.728  1.00  0.00     0.272 A 
HETATM   22  H   UNL     1      42.980  -5.047   8.989  1.00  0.00     0.192 HD
HETATM   23  O   UNL     1      42.440  -3.618  10.967  1.00  0.00    -0.266 OA
HETATM   24  C   UNL     1      40.957  -5.327  11.628  1.00  0.00     0.046 A 
HETATM   25  C   UNL     1      40.408  -6.564  11.295  1.00  0.00     0.016 A 
HETATM   26  C   UNL     1      40.582  -4.676  12.808  1.00  0.00     0.018 A 
HETATM   27  C   UNL     1      39.467  -7.152  12.149  1.00  0.00     0.015 A 
HETATM   28  C   UNL     1      39.094  -6.503  13.331  1.00  0.00     0.001 A 
HETATM   29  C   UNL     1      39.652  -5.268  13.661  1.00  0.00     0.001 A 
ENDBRANCH   2  18
TORSDOF 4
ENDMDL
