MODEL 1
REMARK VINA RESULT:      -9.5      0.000      0.000
REMARK  5 active torsions:
REMARK  status: ('A' for Active; 'I' for Inactive)
REMARK    1  A    between atoms: C_4  and  O_5 
REMARK    2  A    between atoms: O_5  and  C_6 
REMARK    3  A    between atoms: C_6  and  C_7 
REMARK       I    between atoms: C_7  and  N_8 
REMARK    4  A    between atoms: N_8  and  C_9 
REMARK    5  A    between atoms: C_11  and  C_12 
ROOT
HETATM    1  C   UNL     1      42.842 -13.350   6.363  1.00  0.00     0.035 A 
HETATM    2  C   UNL     1      43.277 -14.625   5.988  1.00  0.00     0.045 A 
HETATM    3  C   UNL     1      42.458 -15.478   5.227  1.00  0.00     0.019 A 
HETATM    4  C   UNL     1      41.175 -15.041   4.873  1.00  0.00     0.016 A 
HETATM    5  C   UNL     1      40.728 -13.773   5.246  1.00  0.00     0.003 A 
HETATM    6  C   UNL     1      41.565 -12.928   5.976  1.00  0.00     0.029 A 
ENDROOT
BRANCH   1   7
HETATM    7  N   UNL     1      43.630 -12.438   7.092  1.00  0.00    -0.325 N 
HETATM    8  C   UNL     1      44.408 -11.407   6.594  1.00  0.00     0.251 C 
HETATM    9  O   UNL     1      44.612 -11.159   5.408  1.00  0.00    -0.270 OA
HETATM   10  H   UNL     1      43.614 -12.529   8.103  1.00  0.00     0.169 HD
BRANCH   8  11
HETATM   11  C   UNL     1      45.080 -10.566   7.692  1.00  0.00     0.217 C 
HETATM   12  C   UNL     1      46.597 -10.646   7.545  1.00  0.00     0.050 C 
BRANCH  11  13
HETATM   13  O   UNL     1      44.754 -11.051   9.000  1.00  0.00    -0.337 OA
BRANCH  13  14
HETATM   14  C   UNL     1      44.118 -10.125   9.786  1.00  0.00     0.070 A 
HETATM   15  C   UNL     1      43.621 -10.408  11.060  1.00  0.00     0.043 A 
HETATM   16  C   UNL     1      42.990  -9.406  11.809  1.00  0.00    -0.059 A 
HETATM   17  C   UNL     1      42.457  -9.694  13.182  1.00  0.00     0.048 C 
HETATM   18  C   UNL     1      42.881  -8.116  11.272  1.00  0.00     0.013 A 
HETATM   19  C   UNL     1      43.394  -7.821  10.001  1.00  0.00    -0.059 A 
HETATM   20  C   UNL     1      44.030  -8.831   9.272  1.00  0.00     0.043 A 
HETATM   21  C   UNL     1      43.287  -6.427   9.456  1.00  0.00     0.048 C 
ENDBRANCH  13  14
ENDBRANCH  11  13
ENDBRANCH   8  11
ENDBRANCH   1   7
BRANCH   3  22
HETATM   22  C   UNL     1      42.923 -16.788   4.772  1.00  0.00     0.181 A 
HETATM   23  O   UNL     1      42.731 -17.081   3.445  1.00  0.00    -0.289 OA
HETATM   24  C   UNL     1      43.194 -18.356   3.316  1.00  0.00     0.106 A 
HETATM   25  C   UNL     1      43.646 -18.770   4.557  1.00  0.00     0.093 A 
HETATM   26  C   UNL     1      43.215 -19.132   2.163  1.00  0.00     0.040 A 
HETATM   27  N   UNL     1      43.472 -17.765   5.476  1.00  0.00    -0.221 NA
HETATM   28  C   UNL     1      44.171 -20.062   4.689  1.00  0.00     0.034 A 
HETATM   29  C   UNL     1      44.209 -20.880   3.548  1.00  0.00     0.002 A 
HETATM   30  C   UNL     1      43.740 -20.421   2.311  1.00  0.00     0.003 A 
ENDBRANCH   3  22
TORSDOF 5
ENDMDL
MODEL 2
REMARK VINA RESULT:      -9.5      2.060     10.409
REMARK  5 active torsions:
REMARK  status: ('A' for Active; 'I' for Inactive)
REMARK    1  A    between atoms: C_4  and  O_5 
REMARK    2  A    between atoms: O_5  and  C_6 
REMARK    3  A    between atoms: C_6  and  C_7 
REMARK       I    between atoms: C_7  and  N_8 
REMARK    4  A    between atoms: N_8  and  C_9 
REMARK    5  A    between atoms: C_11  and  C_12 
ROOT
HETATM    1  C   UNL     1      44.332 -11.593   7.696  1.00  0.00     0.035 A 
HETATM    2  C   UNL     1      43.807 -10.870   8.772  1.00  0.00     0.045 A 
HETATM    3  C   UNL     1      44.472  -9.743   9.285  1.00  0.00     0.019 A 
HETATM    4  C   UNL     1      45.699  -9.370   8.719  1.00  0.00     0.016 A 
HETATM    5  C   UNL     1      46.235 -10.086   7.648  1.00  0.00     0.003 A 
HETATM    6  C   UNL     1      45.547 -11.185   7.133  1.00  0.00     0.029 A 
ENDROOT
BRANCH   1   7
HETATM    7  N   UNL     1      43.694 -12.706   7.115  1.00  0.00    -0.325 N 
HETATM    8  C   UNL     1      42.647 -12.703   6.208  1.00  0.00     0.251 C 
HETATM    9  O   UNL     1      42.034 -11.715   5.812  1.00  0.00    -0.270 OA
HETATM   10  H   UNL     1      44.052 -13.621   7.371  1.00  0.00     0.169 HD
BRANCH   8  11
HETATM   11  C   UNL     1      42.248 -14.110   5.733  1.00  0.00     0.217 C 
HETATM   12  C   UNL     1      40.939 -14.525   6.399  1.00  0.00     0.050 C 
BRANCH  11  13
HETATM   13  O   UNL     1      43.235 -15.085   6.091  1.00  0.00    -0.337 OA
BRANCH  13  14
HETATM   14  C   UNL     1      43.404 -16.066   5.149  1.00  0.00     0.070 A 
HETATM   15  C   UNL     1      43.735 -17.386   5.462  1.00  0.00     0.043 A 
HETATM   16  C   UNL     1      43.883 -18.337   4.444  1.00  0.00    -0.059 A 
HETATM   17  C   UNL     1      44.233 -19.760   4.766  1.00  0.00     0.048 C 
HETATM   18  C   UNL     1      43.675 -17.952   3.112  1.00  0.00     0.013 A 
HETATM   19  C   UNL     1      43.324 -16.633   2.792  1.00  0.00    -0.059 A 
HETATM   20  C   UNL     1      43.171 -15.699   3.824  1.00  0.00     0.043 A 
HETATM   21  C   UNL     1      43.083 -16.248   1.363  1.00  0.00     0.048 C 
ENDBRANCH  13  14
ENDBRANCH  11  13
ENDBRANCH   8  11
ENDBRANCH   1   7
BRANCH   3  22
HETATM   22  C   UNL     1      43.904  -8.940  10.366  1.00  0.00     0.181 A 
HETATM   23  O   UNL     1      43.260  -7.783   9.999  1.00  0.00    -0.289 OA
HETATM   24  C   UNL     1      42.890  -7.219  11.183  1.00  0.00     0.106 A 
HETATM   25  C   UNL     1      43.317  -8.054  12.201  1.00  0.00     0.093 A 
HETATM   26  C   UNL     1      42.213  -6.021  11.369  1.00  0.00     0.040 A 
HETATM   27  N   UNL     1      43.959  -9.146  11.672  1.00  0.00    -0.221 NA
HETATM   28  C   UNL     1      43.059  -7.687  13.529  1.00  0.00     0.034 A 
HETATM   29  C   UNL     1      42.379  -6.482  13.762  1.00  0.00     0.002 A 
HETATM   30  C   UNL     1      41.965  -5.666  12.700  1.00  0.00     0.003 A 
ENDBRANCH   3  22
TORSDOF 5
ENDMDL
MODEL 3
REMARK VINA RESULT:      -9.4      0.533      1.680
REMARK  5 active torsions:
REMARK  status: ('A' for Active; 'I' for Inactive)
REMARK    1  A    between atoms: C_4  and  O_5 
REMARK    2  A    between atoms: O_5  and  C_6 
REMARK    3  A    between atoms: C_6  and  C_7 
REMARK       I    between atoms: C_7  and  N_8 
REMARK    4  A    between atoms: N_8  and  C_9 
REMARK    5  A    between atoms: C_11  and  C_12 
ROOT
HETATM    1  C   UNL     1      43.135 -12.958   5.866  1.00  0.00     0.035 A 
HETATM    2  C   UNL     1      43.456 -14.308   5.693  1.00  0.00     0.045 A 
HETATM    3  C   UNL     1      42.756 -15.110   4.775  1.00  0.00     0.019 A 
HETATM    4  C   UNL     1      41.700 -14.540   4.051  1.00  0.00     0.016 A 
HETATM    5  C   UNL     1      41.368 -13.195   4.218  1.00  0.00     0.003 A 
HETATM    6  C   UNL     1      42.091 -12.406   5.113  1.00  0.00     0.029 A 
ENDROOT
BRANCH   1   7
HETATM    7  N   UNL     1      43.823 -12.096   6.742  1.00  0.00    -0.325 N 
HETATM    8  C   UNL     1      44.854 -11.224   6.434  1.00  0.00     0.251 C 
HETATM    9  O   UNL     1      45.407 -11.111   5.343  1.00  0.00    -0.270 OA
HETATM   10  H   UNL     1      43.519 -12.094   7.711  1.00  0.00     0.169 HD
BRANCH   8  11
HETATM   11  C   UNL     1      45.321 -10.384   7.634  1.00  0.00     0.217 C 
HETATM   12  C   UNL     1      46.843 -10.427   7.730  1.00  0.00     0.050 C 
BRANCH  11  13
HETATM   13  O   UNL     1      44.804 -10.898   8.868  1.00  0.00    -0.337 OA
BRANCH  13  14
HETATM   14  C   UNL     1      44.178  -9.951   9.637  1.00  0.00     0.070 A 
HETATM   15  C   UNL     1      43.989  -8.629   9.227  1.00  0.00     0.043 A 
HETATM   16  C   UNL     1      43.332  -7.718  10.065  1.00  0.00    -0.059 A 
HETATM   17  C   UNL     1      43.117  -6.296   9.636  1.00  0.00     0.048 C 
HETATM   18  C   UNL     1      42.852  -8.155  11.307  1.00  0.00     0.013 A 
HETATM   19  C   UNL     1      43.021  -9.484  11.717  1.00  0.00    -0.059 A 
HETATM   20  C   UNL     1      43.671 -10.382  10.862  1.00  0.00     0.043 A 
HETATM   21  C   UNL     1      42.478  -9.936  13.040  1.00  0.00     0.048 C 
ENDBRANCH  13  14
ENDBRANCH  11  13
ENDBRANCH   8  11
ENDBRANCH   1   7
BRANCH   3  22
HETATM   22  C   UNL     1      43.121 -16.506   4.536  1.00  0.00     0.181 A 
HETATM   23  O   UNL     1      42.964 -16.971   3.254  1.00  0.00    -0.289 OA
HETATM   24  C   UNL     1      43.317 -18.285   3.332  1.00  0.00     0.106 A 
HETATM   25  C   UNL     1      43.672 -18.550   4.643  1.00  0.00     0.093 A 
HETATM   26  C   UNL     1      43.321 -19.218   2.303  1.00  0.00     0.040 A 
HETATM   27  N   UNL     1      43.547 -17.412   5.401  1.00  0.00    -0.221 NA
HETATM   28  C   UNL     1      44.073 -19.849   4.985  1.00  0.00     0.034 A 
HETATM   29  C   UNL     1      44.089 -20.824   3.975  1.00  0.00     0.002 A 
HETATM   30  C   UNL     1      43.720 -20.511   2.660  1.00  0.00     0.003 A 
ENDBRANCH   3  22
TORSDOF 5
ENDMDL
MODEL 4
REMARK VINA RESULT:      -9.4      2.223      9.873
REMARK  5 active torsions:
REMARK  status: ('A' for Active; 'I' for Inactive)
REMARK    1  A    between atoms: C_4  and  O_5 
REMARK    2  A    between atoms: O_5  and  C_6 
REMARK    3  A    between atoms: C_6  and  C_7 
REMARK       I    between atoms: C_7  and  N_8 
REMARK    4  A    between atoms: N_8  and  C_9 
REMARK    5  A    between atoms: C_11  and  C_12 
ROOT
HETATM    1  C   UNL     1      44.744 -10.953   7.257  1.00  0.00     0.035 A 
HETATM    2  C   UNL     1      43.984 -10.729   8.409  1.00  0.00     0.045 A 
HETATM    3  C   UNL     1      44.453  -9.896   9.440  1.00  0.00     0.019 A 
HETATM    4  C   UNL     1      45.721  -9.314   9.310  1.00  0.00     0.016 A 
HETATM    5  C   UNL     1      46.491  -9.534   8.167  1.00  0.00     0.003 A 
HETATM    6  C   UNL     1      45.997 -10.340   7.141  1.00  0.00     0.029 A 
ENDROOT
BRANCH   1   7
HETATM    7  N   UNL     1      44.311 -11.746   6.176  1.00  0.00    -0.325 N 
HETATM    8  C   UNL     1      43.374 -11.420   5.210  1.00  0.00     0.251 C 
HETATM    9  O   UNL     1      42.691 -10.400   5.178  1.00  0.00    -0.270 OA
HETATM   10  H   UNL     1      44.749 -12.657   6.076  1.00  0.00     0.169 HD
BRANCH   8  11
HETATM   11  C   UNL     1      43.202 -12.507   4.137  1.00  0.00     0.217 C 
HETATM   12  C   UNL     1      42.768 -11.866   2.822  1.00  0.00     0.050 C 
BRANCH  11  13
HETATM   13  O   UNL     1      42.189 -13.452   4.503  1.00  0.00    -0.337 OA
BRANCH  13  14
HETATM   14  C   UNL     1      42.649 -14.741   4.596  1.00  0.00     0.070 A 
HETATM   15  C   UNL     1      42.748 -15.602   3.501  1.00  0.00     0.043 A 
HETATM   16  C   UNL     1      43.235 -16.904   3.672  1.00  0.00    -0.059 A 
HETATM   17  C   UNL     1      43.353 -17.840   2.504  1.00  0.00     0.048 C 
HETATM   18  C   UNL     1      43.638 -17.323   4.947  1.00  0.00     0.013 A 
HETATM   19  C   UNL     1      43.559 -16.457   6.046  1.00  0.00    -0.059 A 
HETATM   20  C   UNL     1      43.079 -15.156   5.855  1.00  0.00     0.043 A 
HETATM   21  C   UNL     1      44.018 -16.918   7.398  1.00  0.00     0.048 C 
ENDBRANCH  13  14
ENDBRANCH  11  13
ENDBRANCH   8  11
ENDBRANCH   1   7
BRANCH   3  22
HETATM   22  C   UNL     1      43.643  -9.601  10.621  1.00  0.00     0.181 A 
HETATM   23  O   UNL     1      44.070  -8.565  11.415  1.00  0.00    -0.289 OA
HETATM   24  C   UNL     1      43.182  -8.551  12.449  1.00  0.00     0.106 A 
HETATM   25  C   UNL     1      42.265  -9.565  12.232  1.00  0.00     0.093 A 
HETATM   26  C   UNL     1      43.176  -7.693  13.541  1.00  0.00     0.040 A 
HETATM   27  N   UNL     1      42.565 -10.225  11.066  1.00  0.00    -0.221 NA
HETATM   28  C   UNL     1      41.242  -9.762  13.168  1.00  0.00     0.034 A 
HETATM   29  C   UNL     1      41.200  -8.918  14.290  1.00  0.00     0.002 A 
HETATM   30  C   UNL     1      42.149  -7.904  14.470  1.00  0.00     0.003 A 
ENDBRANCH   3  22
TORSDOF 5
ENDMDL
MODEL 5
REMARK VINA RESULT:      -9.4      2.163     10.418
REMARK  5 active torsions:
REMARK  status: ('A' for Active; 'I' for Inactive)
REMARK    1  A    between atoms: C_4  and  O_5 
REMARK    2  A    between atoms: O_5  and  C_6 
REMARK    3  A    between atoms: C_6  and  C_7 
REMARK       I    between atoms: C_7  and  N_8 
REMARK    4  A    between atoms: N_8  and  C_9 
REMARK    5  A    between atoms: C_11  and  C_12 
ROOT
HETATM    1  C   UNL     1      44.385 -10.831   7.664  1.00  0.00     0.035 A 
HETATM    2  C   UNL     1      43.672 -10.547   8.833  1.00  0.00     0.045 A 
HETATM    3  C   UNL     1      44.239  -9.772   9.860  1.00  0.00     0.019 A 
HETATM    4  C   UNL     1      45.553  -9.311   9.709  1.00  0.00     0.016 A 
HETATM    5  C   UNL     1      46.276  -9.591   8.549  1.00  0.00     0.003 A 
HETATM    6  C   UNL     1      45.688 -10.338   7.527  1.00  0.00     0.029 A 
ENDROOT
BRANCH   1   7
HETATM    7  N   UNL     1      43.858 -11.569   6.586  1.00  0.00    -0.325 N 
HETATM    8  C   UNL     1      43.519 -12.911   6.567  1.00  0.00     0.251 C 
HETATM    9  O   UNL     1      43.698 -13.718   7.475  1.00  0.00    -0.270 OA
HETATM   10  H   UNL     1      43.685 -11.058   5.726  1.00  0.00     0.169 HD
BRANCH   8  11
HETATM   11  C   UNL     1      42.904 -13.365   5.233  1.00  0.00     0.217 C 
HETATM   12  C   UNL     1      42.098 -12.221   4.623  1.00  0.00     0.050 C 
BRANCH  11  13
HETATM   13  O   UNL     1      42.006 -14.467   5.415  1.00  0.00    -0.337 OA
BRANCH  13  14
HETATM   14  C   UNL     1      42.032 -15.371   4.385  1.00  0.00     0.070 A 
HETATM   15  C   UNL     1      42.959 -16.412   4.297  1.00  0.00     0.043 A 
HETATM   16  C   UNL     1      42.918 -17.303   3.218  1.00  0.00    -0.059 A 
HETATM   17  C   UNL     1      43.903 -18.430   3.113  1.00  0.00     0.048 C 
HETATM   18  C   UNL     1      41.925 -17.149   2.240  1.00  0.00     0.013 A 
HETATM   19  C   UNL     1      40.980 -16.118   2.331  1.00  0.00    -0.059 A 
HETATM   20  C   UNL     1      41.031 -15.243   3.423  1.00  0.00     0.043 A 
HETATM   21  C   UNL     1      39.912 -15.986   1.287  1.00  0.00     0.048 C 
ENDBRANCH  13  14
ENDBRANCH  11  13
ENDBRANCH   8  11
ENDBRANCH   1   7
BRANCH   3  22
HETATM   22  C   UNL     1      43.484  -9.413  11.060  1.00  0.00     0.181 A 
HETATM   23  O   UNL     1      43.967  -8.360  11.798  1.00  0.00    -0.289 OA
HETATM   24  C   UNL     1      43.122  -8.286  12.864  1.00  0.00     0.106 A 
HETATM   25  C   UNL     1      42.172  -9.282  12.721  1.00  0.00     0.093 A 
HETATM   26  C   UNL     1      43.180  -7.389  13.923  1.00  0.00     0.040 A 
HETATM   27  N   UNL     1      42.409  -9.993  11.570  1.00  0.00    -0.221 NA
HETATM   28  C   UNL     1      41.182  -9.419  13.703  1.00  0.00     0.034 A 
HETATM   29  C   UNL     1      41.206  -8.534  14.793  1.00  0.00     0.002 A 
HETATM   30  C   UNL     1      42.186  -7.539  14.898  1.00  0.00     0.003 A 
ENDBRANCH   3  22
TORSDOF 5
ENDMDL
MODEL 6
REMARK VINA RESULT:      -9.4      2.113     10.617
REMARK  5 active torsions:
REMARK  status: ('A' for Active; 'I' for Inactive)
REMARK    1  A    between atoms: C_4  and  O_5 
REMARK    2  A    between atoms: O_5  and  C_6 
REMARK    3  A    between atoms: C_6  and  C_7 
REMARK       I    between atoms: C_7  and  N_8 
REMARK    4  A    between atoms: N_8  and  C_9 
REMARK    5  A    between atoms: C_11  and  C_12 
ROOT
HETATM    1  C   UNL     1      44.422 -11.506   7.725  1.00  0.00     0.035 A 
HETATM    2  C   UNL     1      43.850 -10.703   8.716  1.00  0.00     0.045 A 
HETATM    3  C   UNL     1      44.487  -9.531   9.159  1.00  0.00     0.019 A 
HETATM    4  C   UNL     1      45.732  -9.193   8.612  1.00  0.00     0.016 A 
HETATM    5  C   UNL     1      46.315  -9.990   7.626  1.00  0.00     0.003 A 
HETATM    6  C   UNL     1      45.655 -11.134   7.177  1.00  0.00     0.029 A 
ENDROOT
BRANCH   1   7
HETATM    7  N   UNL     1      43.814 -12.670   7.214  1.00  0.00    -0.325 N 
HETATM    8  C   UNL     1      42.778 -12.751   6.299  1.00  0.00     0.251 C 
HETATM    9  O   UNL     1      42.148 -11.806   5.831  1.00  0.00    -0.270 OA
HETATM   10  H   UNL     1      44.189 -13.558   7.535  1.00  0.00     0.169 HD
BRANCH   8  11
HETATM   11  C   UNL     1      42.414 -14.195   5.916  1.00  0.00     0.217 C 
HETATM   12  C   UNL     1      42.340 -15.056   7.173  1.00  0.00     0.050 C 
BRANCH  11  13
HETATM   13  O   UNL     1      43.405 -14.777   5.059  1.00  0.00    -0.337 OA
BRANCH  13  14
HETATM   14  C   UNL     1      42.884 -15.615   4.108  1.00  0.00     0.070 A 
HETATM   15  C   UNL     1      41.777 -15.291   3.320  1.00  0.00     0.043 A 
HETATM   16  C   UNL     1      41.306 -16.196   2.360  1.00  0.00    -0.059 A 
HETATM   17  C   UNL     1      40.122 -15.859   1.502  1.00  0.00     0.048 C 
HETATM   18  C   UNL     1      41.968 -17.419   2.190  1.00  0.00     0.013 A 
HETATM   19  C   UNL     1      43.090 -17.744   2.965  1.00  0.00    -0.059 A 
HETATM   20  C   UNL     1      43.553 -16.822   3.911  1.00  0.00     0.043 A 
HETATM   21  C   UNL     1      43.798 -19.048   2.749  1.00  0.00     0.048 C 
ENDBRANCH  13  14
ENDBRANCH  11  13
ENDBRANCH   8  11
ENDBRANCH   1   7
BRANCH   3  22
HETATM   22  C   UNL     1      43.871  -8.646  10.148  1.00  0.00     0.181 A 
HETATM   23  O   UNL     1      43.916  -9.062  11.456  1.00  0.00    -0.289 OA
HETATM   24  C   UNL     1      43.234  -8.097  12.134  1.00  0.00     0.106 A 
HETATM   25  C   UNL     1      42.817  -7.149  11.217  1.00  0.00     0.093 A 
HETATM   26  C   UNL     1      42.978  -8.049  13.499  1.00  0.00     0.040 A 
HETATM   27  N   UNL     1      43.230  -7.505   9.956  1.00  0.00    -0.221 NA
HETATM   28  C   UNL     1      42.082  -6.046  11.671  1.00  0.00     0.034 A 
HETATM   29  C   UNL     1      41.800  -5.959  13.043  1.00  0.00     0.002 A 
HETATM   30  C   UNL     1      42.241  -6.943  13.937  1.00  0.00     0.003 A 
ENDBRANCH   3  22
TORSDOF 5
ENDMDL
MODEL 7
REMARK VINA RESULT:      -8.9      4.274      7.216
REMARK  5 active torsions:
REMARK  status: ('A' for Active; 'I' for Inactive)
REMARK    1  A    between atoms: C_4  and  O_5 
REMARK    2  A    between atoms: O_5  and  C_6 
REMARK    3  A    between atoms: C_6  and  C_7 
REMARK       I    between atoms: C_7  and  N_8 
REMARK    4  A    between atoms: N_8  and  C_9 
REMARK    5  A    between atoms: C_11  and  C_12 
ROOT
HETATM    1  C   UNL     1      42.623 -13.265   4.851  1.00  0.00     0.035 A 
HETATM    2  C   UNL     1      42.864 -14.579   4.437  1.00  0.00     0.045 A 
HETATM    3  C   UNL     1      43.413 -15.529   5.317  1.00  0.00     0.019 A 
HETATM    4  C   UNL     1      43.749 -15.127   6.617  1.00  0.00     0.016 A 
HETATM    5  C   UNL     1      43.517 -13.818   7.039  1.00  0.00     0.003 A 
HETATM    6  C   UNL     1      42.945 -12.896   6.162  1.00  0.00     0.029 A 
ENDROOT
BRANCH   1   7
HETATM    7  N   UNL     1      42.041 -12.281   4.028  1.00  0.00    -0.325 N 
HETATM    8  C   UNL     1      42.690 -11.308   3.286  1.00  0.00     0.251 C 
HETATM    9  O   UNL     1      43.897 -11.082   3.284  1.00  0.00    -0.270 OA
HETATM   10  H   UNL     1      41.029 -12.294   3.948  1.00  0.00     0.169 HD
BRANCH   8  11
HETATM   11  C   UNL     1      41.735 -10.444   2.446  1.00  0.00     0.217 C 
HETATM   12  C   UNL     1      40.997  -9.464   3.354  1.00  0.00     0.050 C 
BRANCH  11  13
HETATM   13  O   UNL     1      40.744 -11.243   1.789  1.00  0.00    -0.337 OA
BRANCH  13  14
HETATM   14  C   UNL     1      40.865 -11.252   0.423  1.00  0.00     0.070 A 
HETATM   15  C   UNL     1      40.603 -12.375  -0.365  1.00  0.00     0.043 A 
HETATM   16  C   UNL     1      40.741 -12.307  -1.757  1.00  0.00    -0.059 A 
HETATM   17  C   UNL     1      40.457 -13.503  -2.618  1.00  0.00     0.048 C 
HETATM   18  C   UNL     1      41.126 -11.095  -2.349  1.00  0.00     0.013 A 
HETATM   19  C   UNL     1      41.372  -9.960  -1.565  1.00  0.00    -0.059 A 
HETATM   20  C   UNL     1      41.220 -10.044  -0.176  1.00  0.00     0.043 A 
HETATM   21  C   UNL     1      41.760  -8.667  -2.220  1.00  0.00     0.048 C 
ENDBRANCH  13  14
ENDBRANCH  11  13
ENDBRANCH   8  11
ENDBRANCH   1   7
BRANCH   3  22
HETATM   22  C   UNL     1      43.612 -16.922   4.920  1.00  0.00     0.181 A 
HETATM   23  O   UNL     1      43.441 -17.211   3.588  1.00  0.00    -0.289 OA
HETATM   24  C   UNL     1      43.626 -18.559   3.515  1.00  0.00     0.106 A 
HETATM   25  C   UNL     1      43.904 -19.018   4.790  1.00  0.00     0.093 A 
HETATM   26  C   UNL     1      43.549 -19.359   2.382  1.00  0.00     0.040 A 
HETATM   27  N   UNL     1      43.895 -17.970   5.677  1.00  0.00    -0.221 NA
HETATM   28  C   UNL     1      44.130 -20.388   4.982  1.00  0.00     0.034 A 
HETATM   29  C   UNL     1      44.060 -21.232   3.863  1.00  0.00     0.002 A 
HETATM   30  C   UNL     1      43.775 -20.725   2.588  1.00  0.00     0.003 A 
ENDBRANCH   3  22
TORSDOF 5
ENDMDL
MODEL 8
REMARK VINA RESULT:      -8.7      1.724      2.530
REMARK  5 active torsions:
REMARK  status: ('A' for Active; 'I' for Inactive)
REMARK    1  A    between atoms: C_4  and  O_5 
REMARK    2  A    between atoms: O_5  and  C_6 
REMARK    3  A    between atoms: C_6  and  C_7 
REMARK       I    between atoms: C_7  and  N_8 
REMARK    4  A    between atoms: N_8  and  C_9 
REMARK    5  A    between atoms: C_11  and  C_12 
ROOT
HETATM    1  C   UNL     1      42.382 -11.259   6.388  1.00  0.00     0.035 A 
HETATM    2  C   UNL     1      42.695 -12.576   6.039  1.00  0.00     0.045 A 
HETATM    3  C   UNL     1      42.291 -13.118   4.807  1.00  0.00     0.019 A 
HETATM    4  C   UNL     1      41.534 -12.321   3.937  1.00  0.00     0.016 A 
HETATM    5  C   UNL     1      41.212 -11.007   4.276  1.00  0.00     0.003 A 
HETATM    6  C   UNL     1      41.645 -10.476   5.491  1.00  0.00     0.029 A 
ENDROOT
BRANCH   1   7
HETATM    7  N   UNL     1      42.790 -10.650   7.591  1.00  0.00    -0.325 N 
HETATM    8  C   UNL     1      43.998 -10.806   8.250  1.00  0.00     0.251 C 
HETATM    9  O   UNL     1      44.901 -11.577   7.937  1.00  0.00    -0.270 OA
HETATM   10  H   UNL     1      42.135 -10.003   8.019  1.00  0.00     0.169 HD
BRANCH   8  11
HETATM   11  C   UNL     1      44.125  -9.928   9.506  1.00  0.00     0.217 C 
HETATM   12  C   UNL     1      45.521 -10.082  10.101  1.00  0.00     0.050 C 
BRANCH  11  13
HETATM   13  O   UNL     1      43.186 -10.317  10.517  1.00  0.00    -0.337 OA
BRANCH  13  14
HETATM   14  C   UNL     1      42.817  -9.290  11.347  1.00  0.00     0.070 A 
HETATM   15  C   UNL     1      42.543  -9.460  12.705  1.00  0.00     0.043 A 
HETATM   16  C   UNL     1      42.179  -8.361  13.493  1.00  0.00    -0.059 A 
HETATM   17  C   UNL     1      41.887  -8.526  14.956  1.00  0.00     0.048 C 
HETATM   18  C   UNL     1      42.111  -7.090  12.906  1.00  0.00     0.013 A 
HETATM   19  C   UNL     1      42.403  -6.909  11.547  1.00  0.00    -0.059 A 
HETATM   20  C   UNL     1      42.775  -8.018  10.778  1.00  0.00     0.043 A 
HETATM   21  C   UNL     1      42.348  -5.537  10.945  1.00  0.00     0.048 C 
ENDBRANCH  13  14
ENDBRANCH  11  13
ENDBRANCH   8  11
ENDBRANCH   1   7
BRANCH   3  22
HETATM   22  C   UNL     1      42.666 -14.472   4.400  1.00  0.00     0.181 A 
HETATM   23  O   UNL     1      43.289 -15.247   5.348  1.00  0.00    -0.289 OA
HETATM   24  C   UNL     1      43.570 -16.409   4.694  1.00  0.00     0.106 A 
HETATM   25  C   UNL     1      43.104 -16.288   3.396  1.00  0.00     0.093 A 
HETATM   26  C   UNL     1      44.214 -17.528   5.206  1.00  0.00     0.040 A 
HETATM   27  N   UNL     1      42.528 -15.053   3.220  1.00  0.00    -0.221 NA
HETATM   28  C   UNL     1      43.279 -17.360   2.512  1.00  0.00     0.034 A 
HETATM   29  C   UNL     1      43.928 -18.510   2.988  1.00  0.00     0.002 A 
HETATM   30  C   UNL     1      44.384 -18.591   4.310  1.00  0.00     0.003 A 
ENDBRANCH   3  22
TORSDOF 5
ENDMDL
MODEL 9
REMARK VINA RESULT:      -8.7      3.835      6.945
REMARK  5 active torsions:
REMARK  status: ('A' for Active; 'I' for Inactive)
REMARK    1  A    between atoms: C_4  and  O_5 
REMARK    2  A    between atoms: O_5  and  C_6 
REMARK    3  A    between atoms: C_6  and  C_7 
REMARK       I    between atoms: C_7  and  N_8 
REMARK    4  A    between atoms: N_8  and  C_9 
REMARK    5  A    between atoms: C_11  and  C_12 
ROOT
HETATM    1  C   UNL     1      42.210 -13.165   5.197  1.00  0.00     0.035 A 
HETATM    2  C   UNL     1      42.449 -14.449   4.697  1.00  0.00     0.045 A 
HETATM    3  C   UNL     1      43.300 -15.344   5.368  1.00  0.00     0.019 A 
HETATM    4  C   UNL     1      43.937 -14.916   6.541  1.00  0.00     0.016 A 
HETATM    5  C   UNL     1      43.710 -13.637   7.047  1.00  0.00     0.003 A 
HETATM    6  C   UNL     1      42.840 -12.771   6.383  1.00  0.00     0.029 A 
ENDROOT
BRANCH   1   7
HETATM    7  N   UNL     1      41.339 -12.239   4.590  1.00  0.00    -0.325 N 
HETATM    8  C   UNL     1      40.017 -11.984   4.912  1.00  0.00     0.251 C 
HETATM    9  O   UNL     1      39.343 -12.590   5.741  1.00  0.00    -0.270 OA
HETATM   10  H   UNL     1      41.727 -11.673   3.842  1.00  0.00     0.169 HD
BRANCH   8  11
HETATM   11  C   UNL     1      39.394 -10.851   4.080  1.00  0.00     0.217 C 
HETATM   12  C   UNL     1      38.568  -9.943   4.987  1.00  0.00     0.050 C 
BRANCH  11  13
HETATM   13  O   UNL     1      38.512 -11.362   3.073  1.00  0.00    -0.337 OA
BRANCH  13  14
HETATM   14  C   UNL     1      39.152 -12.078   2.095  1.00  0.00     0.070 A 
HETATM   15  C   UNL     1      39.709 -11.495   0.955  1.00  0.00     0.043 A 
HETATM   16  C   UNL     1      40.356 -12.291   0.001  1.00  0.00    -0.059 A 
HETATM   17  C   UNL     1      40.965 -11.678  -1.227  1.00  0.00     0.048 C 
HETATM   18  C   UNL     1      40.453 -13.673   0.214  1.00  0.00     0.013 A 
HETATM   19  C   UNL     1      39.912 -14.262   1.366  1.00  0.00    -0.059 A 
HETATM   20  C   UNL     1      39.279 -13.449   2.313  1.00  0.00     0.043 A 
HETATM   21  C   UNL     1      40.049 -15.739   1.586  1.00  0.00     0.048 C 
ENDBRANCH  13  14
ENDBRANCH  11  13
ENDBRANCH   8  11
ENDBRANCH   1   7
BRANCH   3  22
HETATM   22  C   UNL     1      43.509 -16.711   4.892  1.00  0.00     0.181 A 
HETATM   23  O   UNL     1      43.212 -16.955   3.574  1.00  0.00    -0.289 OA
HETATM   24  C   UNL     1      43.440 -18.290   3.423  1.00  0.00     0.106 A 
HETATM   25  C   UNL     1      43.867 -18.786   4.643  1.00  0.00     0.093 A 
HETATM   26  C   UNL     1      43.277 -19.047   2.270  1.00  0.00     0.040 A 
HETATM   27  N   UNL     1      43.910 -17.775   5.570  1.00  0.00    -0.221 NA
HETATM   28  C   UNL     1      44.164 -20.151   4.750  1.00  0.00     0.034 A 
HETATM   29  C   UNL     1      44.010 -20.953   3.608  1.00  0.00     0.002 A 
HETATM   30  C   UNL     1      43.575 -20.409   2.393  1.00  0.00     0.003 A 
ENDBRANCH   3  22
TORSDOF 5
ENDMDL
MODEL 10
REMARK VINA RESULT:      -8.7      6.091      8.778
REMARK  5 active torsions:
REMARK  status: ('A' for Active; 'I' for Inactive)
REMARK    1  A    between atoms: C_4  and  O_5 
REMARK    2  A    between atoms: O_5  and  C_6 
REMARK    3  A    between atoms: C_6  and  C_7 
REMARK       I    between atoms: C_7  and  N_8 
REMARK    4  A    between atoms: N_8  and  C_9 
REMARK    5  A    between atoms: C_11  and  C_12 
ROOT
HETATM    1  C   UNL     1      41.975 -13.579   1.465  1.00  0.00     0.035 A 
HETATM    2  C   UNL     1      42.370 -14.884   1.777  1.00  0.00     0.045 A 
HETATM    3  C   UNL     1      42.867 -15.209   3.051  1.00  0.00     0.019 A 
HETATM    4  C   UNL     1      42.993 -14.190   4.004  1.00  0.00     0.016 A 
HETATM    5  C   UNL     1      42.607 -12.883   3.704  1.00  0.00     0.003 A 
HETATM    6  C   UNL     1      42.089 -12.584   2.443  1.00  0.00     0.029 A 
ENDROOT
BRANCH   1   7
HETATM    7  N   UNL     1      41.436 -13.201   0.220  1.00  0.00    -0.325 N 
HETATM    8  C   UNL     1      40.140 -12.795  -0.052  1.00  0.00     0.251 C 
HETATM    9  O   UNL     1      39.205 -12.773   0.743  1.00  0.00    -0.270 OA
HETATM   10  H   UNL     1      42.072 -13.204  -0.571  1.00  0.00     0.169 HD
BRANCH   8  11
HETATM   11  C   UNL     1      39.924 -12.390  -1.519  1.00  0.00     0.217 C 
HETATM   12  C   UNL     1      39.344 -13.567  -2.297  1.00  0.00     0.050 C 
BRANCH  11  13
HETATM   13  O   UNL     1      41.158 -12.029  -2.153  1.00  0.00    -0.337 OA
BRANCH  13  14
HETATM   14  C   UNL     1      41.226 -10.707  -2.510  1.00  0.00     0.070 A 
HETATM   15  C   UNL     1      40.609 -10.185  -3.649  1.00  0.00     0.043 A 
HETATM   16  C   UNL     1      40.715  -8.820  -3.945  1.00  0.00    -0.059 A 
HETATM   17  C   UNL     1      40.053  -8.244  -5.162  1.00  0.00     0.048 C 
HETATM   18  C   UNL     1      41.430  -7.985  -3.075  1.00  0.00     0.013 A 
HETATM   19  C   UNL     1      42.035  -8.499  -1.920  1.00  0.00    -0.059 A 
HETATM   20  C   UNL     1      41.910  -9.863  -1.636  1.00  0.00     0.043 A 
HETATM   21  C   UNL     1      42.775  -7.582  -0.992  1.00  0.00     0.048 C 
ENDBRANCH  13  14
ENDBRANCH  11  13
ENDBRANCH   8  11
ENDBRANCH   1   7
BRANCH   3  22
HETATM   22  C   UNL     1      43.223 -16.581   3.412  1.00  0.00     0.181 A 
HETATM   23  O   UNL     1      43.171 -17.513   2.405  1.00  0.00    -0.289 OA
HETATM   24  C   UNL     1      43.488 -18.686   3.023  1.00  0.00     0.106 A 
HETATM   25  C   UNL     1      43.719 -18.411   4.360  1.00  0.00     0.093 A 
HETATM   26  C   UNL     1      43.565 -19.947   2.446  1.00  0.00     0.040 A 
HETATM   27  N   UNL     1      43.551 -17.069   4.597  1.00  0.00    -0.221 NA
HETATM   28  C   UNL     1      44.060 -19.465   5.217  1.00  0.00     0.034 A 
HETATM   29  C   UNL     1      44.147 -20.757   4.675  1.00  0.00     0.002 A 
HETATM   30  C   UNL     1      43.904 -20.991   3.316  1.00  0.00     0.003 A 
ENDBRANCH   3  22
TORSDOF 5
ENDMDL
