MODEL 1
REMARK VINA RESULT:     -10.4      0.000      0.000
REMARK  7 active torsions:
REMARK  status: ('A' for Active; 'I' for Inactive)
REMARK    1  A    between atoms: C_3  and  S_4 
REMARK    2  A    between atoms: S_4  and  N_5 
REMARK    3  A    between atoms: N_5  and  C_6 
REMARK    4  A    between atoms: C_6  and  C_7 
REMARK    5  A    between atoms: C_20  and  C_21 
REMARK    6  A    between atoms: C_25  and  N_26 
REMARK    7  A    between atoms: N_26  and  C_27 
ROOT
HETATM    1  C   UNL     1      44.561 -19.838   4.718  1.00  0.00     0.050 C 
HETATM    2  C   UNL     1      43.805 -18.706   4.082  1.00  0.00    -0.039 A 
HETATM    3  C   UNL     1      43.318 -17.590   4.787  1.00  0.00     0.081 A 
HETATM    4  C   UNL     1      42.585 -16.594   4.117  1.00  0.00     0.039 A 
HETATM    5  C   UNL     1      42.369 -16.648   2.731  1.00  0.00    -0.003 A 
HETATM    6  C   UNL     1      42.845 -17.766   2.037  1.00  0.00     0.014 A 
HETATM    7  C   UNL     1      43.543 -18.779   2.703  1.00  0.00     0.009 A 
ENDROOT
BRANCH   5   8
HETATM    8  C   UNL     1      41.640 -15.573   2.041  1.00  0.00     0.098 A 
HETATM    9  N   UNL     1      40.582 -16.013   1.333  1.00  0.00    -0.172 NA
HETATM   10  N   UNL     1      39.798 -15.131   0.746  1.00  0.00    -0.262 N 
HETATM   11  H   UNL     1      39.001 -15.486   0.228  1.00  0.00     0.191 HD
HETATM   12  C   UNL     1      39.979 -13.800   0.790  1.00  0.00     0.129 A 
HETATM   13  C   UNL     1      41.085 -13.298   1.529  1.00  0.00     0.022 A 
HETATM   14  C   UNL     1      41.959 -14.211   2.152  1.00  0.00     0.009 A 
HETATM   15  C   UNL     1      41.344 -11.912   1.686  1.00  0.00     0.016 A 
HETATM   16  C   UNL     1      43.090 -13.713   2.850  1.00  0.00     0.015 A 
HETATM   17  C   UNL     1      43.327 -12.347   2.974  1.00  0.00     0.001 A 
HETATM   18  C   UNL     1      42.447 -11.444   2.400  1.00  0.00     0.001 A 
BRANCH  12  19
HETATM   19  N   UNL     1      39.073 -12.934   0.178  1.00  0.00    -0.370 N 
HETATM   20  H   UNL     1      38.547 -12.398   0.872  1.00  0.00     0.161 HD
BRANCH  19  21
HETATM   21  C   UNL     1      39.329 -12.172  -1.050  1.00  0.00     0.083 C 
HETATM   22  C   UNL     1      40.325 -12.912  -1.957  1.00  0.00     0.025 C 
HETATM   23  C   UNL     1      39.750 -14.203  -2.539  1.00  0.00     0.002 C 
HETATM   24  C   UNL     1      38.437 -13.953  -3.272  1.00  0.00     0.000 C 
HETATM   25  C   UNL     1      37.425 -13.234  -2.386  1.00  0.00     0.002 C 
HETATM   26  C   UNL     1      38.002 -11.946  -1.796  1.00  0.00     0.025 C 
ENDBRANCH  19  21
ENDBRANCH  12  19
ENDBRANCH   5   8
BRANCH   3  27
HETATM   27  S   UNL     1      43.577 -17.352   6.547  1.00  0.00     0.242 S 
HETATM   28  O   UNL     1      43.286 -18.609   7.203  1.00  0.00    -0.206 OA
HETATM   29  O   UNL     1      44.831 -16.668   6.745  1.00  0.00    -0.206 OA
BRANCH  27  30
HETATM   30  N   UNL     1      42.334 -16.262   6.920  1.00  0.00    -0.208 NA
HETATM   31  H   UNL     1      41.672 -16.681   7.579  1.00  0.00     0.140 HD
BRANCH  30  32
HETATM   32  C   UNL     1      42.793 -14.935   7.362  1.00  0.00     0.182 C 
BRANCH  32  33
HETATM   33  C   UNL     1      41.996 -13.897   6.654  1.00  0.00     0.119 A 
HETATM   34  N   UNL     1      40.927 -14.100   5.906  1.00  0.00    -0.232 NA
HETATM   35  C   UNL     1      40.519 -12.847   5.508  1.00  0.00     0.085 A 
HETATM   36  C   UNL     1      41.376 -11.866   5.996  1.00  0.00     0.062 A 
HETATM   37  C   UNL     1      39.419 -12.465   4.725  1.00  0.00     0.034 A 
HETATM   38  N   UNL     1      42.314 -12.561   6.713  1.00  0.00    -0.342 N 
HETATM   39  C   UNL     1      41.207 -10.504   5.744  1.00  0.00     0.032 A 
HETATM   40  H   UNL     1      43.104 -12.164   7.203  1.00  0.00     0.167 HD
HETATM   41  C   UNL     1      40.103 -10.141   4.964  1.00  0.00     0.002 A 
HETATM   42  C   UNL     1      39.221 -11.103   4.464  1.00  0.00     0.002 A 
ENDBRANCH  32  33
ENDBRANCH  30  32
ENDBRANCH  27  30
ENDBRANCH   3  27
TORSDOF 7
ENDMDL
MODEL 2
REMARK VINA RESULT:      -9.7      3.235      7.318
REMARK  7 active torsions:
REMARK  status: ('A' for Active; 'I' for Inactive)
REMARK    1  A    between atoms: C_3  and  S_4 
REMARK    2  A    between atoms: S_4  and  N_5 
REMARK    3  A    between atoms: N_5  and  C_6 
REMARK    4  A    between atoms: C_6  and  C_7 
REMARK    5  A    between atoms: C_20  and  C_21 
REMARK    6  A    between atoms: C_25  and  N_26 
REMARK    7  A    between atoms: N_26  and  C_27 
ROOT
HETATM    1  C   UNL     1      42.308  -8.347   7.827  1.00  0.00     0.050 C 
HETATM    2  C   UNL     1      42.439  -9.746   7.292  1.00  0.00    -0.039 A 
HETATM    3  C   UNL     1      41.410 -10.433   6.625  1.00  0.00     0.081 A 
HETATM    4  C   UNL     1      41.608 -11.757   6.191  1.00  0.00     0.039 A 
HETATM    5  C   UNL     1      42.841 -12.406   6.354  1.00  0.00    -0.003 A 
HETATM    6  C   UNL     1      43.858 -11.722   7.029  1.00  0.00     0.014 A 
HETATM    7  C   UNL     1      43.657 -10.418   7.496  1.00  0.00     0.009 A 
ENDROOT
BRANCH   5   8
HETATM    8  C   UNL     1      43.043 -13.774   5.852  1.00  0.00     0.098 A 
HETATM    9  N   UNL     1      43.064 -14.703   6.826  1.00  0.00    -0.172 NA
HETATM   10  N   UNL     1      43.146 -15.976   6.490  1.00  0.00    -0.262 N 
HETATM   11  H   UNL     1      43.149 -16.658   7.242  1.00  0.00     0.191 HD
HETATM   12  C   UNL     1      43.223 -16.428   5.227  1.00  0.00     0.129 A 
HETATM   13  C   UNL     1      43.202 -15.476   4.171  1.00  0.00     0.022 A 
HETATM   14  C   UNL     1      43.137 -14.106   4.491  1.00  0.00     0.009 A 
HETATM   15  C   UNL     1      43.226 -15.842   2.802  1.00  0.00     0.016 A 
HETATM   16  C   UNL     1      43.165 -13.152   3.440  1.00  0.00     0.015 A 
HETATM   17  C   UNL     1      43.204 -13.541   2.104  1.00  0.00     0.001 A 
HETATM   18  C   UNL     1      43.225 -14.888   1.783  1.00  0.00     0.001 A 
BRANCH  12  19
HETATM   19  N   UNL     1      43.261 -17.796   4.959  1.00  0.00    -0.370 N 
HETATM   20  H   UNL     1      42.491 -18.075   4.346  1.00  0.00     0.161 HD
BRANCH  19  21
HETATM   21  C   UNL     1      44.481 -18.579   4.727  1.00  0.00     0.083 C 
HETATM   22  C   UNL     1      44.348 -19.990   5.323  1.00  0.00     0.025 C 
HETATM   23  C   UNL     1      43.317 -20.847   4.589  1.00  0.00     0.002 C 
HETATM   24  C   UNL     1      43.606 -20.918   3.094  1.00  0.00     0.000 C 
HETATM   25  C   UNL     1      43.726 -19.529   2.477  1.00  0.00     0.002 C 
HETATM   26  C   UNL     1      44.751 -18.666   3.215  1.00  0.00     0.025 C 
ENDBRANCH  19  21
ENDBRANCH  12  19
ENDBRANCH   5   8
BRANCH   3  27
HETATM   27  S   UNL     1      39.804  -9.706   6.285  1.00  0.00     0.242 S 
HETATM   28  O   UNL     1      39.082  -9.645   7.537  1.00  0.00    -0.206 OA
HETATM   29  O   UNL     1      39.988  -8.538   5.460  1.00  0.00    -0.206 OA
BRANCH  27  30
HETATM   30  N   UNL     1      39.094 -10.907   5.323  1.00  0.00    -0.208 NA
HETATM   31  H   UNL     1      38.237 -11.258   5.758  1.00  0.00     0.140 HD
BRANCH  30  32
HETATM   32  C   UNL     1      38.886 -10.524   3.916  1.00  0.00     0.182 C 
BRANCH  32  33
HETATM   33  C   UNL     1      39.138 -11.713   3.058  1.00  0.00     0.119 A 
HETATM   34  N   UNL     1      39.347 -11.712   1.755  1.00  0.00    -0.232 NA
HETATM   35  C   UNL     1      39.573 -13.029   1.422  1.00  0.00     0.085 A 
HETATM   36  C   UNL     1      39.466 -13.849   2.540  1.00  0.00     0.062 A 
HETATM   37  C   UNL     1      39.878 -13.604   0.179  1.00  0.00     0.034 A 
HETATM   38  N   UNL     1      39.178 -12.989   3.567  1.00  0.00    -0.342 N 
HETATM   39  C   UNL     1      39.641 -15.233   2.497  1.00  0.00     0.032 A 
HETATM   40  H   UNL     1      39.022 -13.245   4.532  1.00  0.00     0.167 HD
HETATM   41  C   UNL     1      39.947 -15.789   1.249  1.00  0.00     0.002 A 
HETATM   42  C   UNL     1      40.066 -14.990   0.109  1.00  0.00     0.002 A 
ENDBRANCH  32  33
ENDBRANCH  30  32
ENDBRANCH  27  30
ENDBRANCH   3  27
TORSDOF 7
ENDMDL
MODEL 3
REMARK VINA RESULT:      -9.4      2.299      3.064
REMARK  7 active torsions:
REMARK  status: ('A' for Active; 'I' for Inactive)
REMARK    1  A    between atoms: C_3  and  S_4 
REMARK    2  A    between atoms: S_4  and  N_5 
REMARK    3  A    between atoms: N_5  and  C_6 
REMARK    4  A    between atoms: C_6  and  C_7 
REMARK    5  A    between atoms: C_20  and  C_21 
REMARK    6  A    between atoms: C_25  and  N_26 
REMARK    7  A    between atoms: N_26  and  C_27 
ROOT
HETATM    1  C   UNL     1      44.370 -18.700   4.931  1.00  0.00     0.050 C 
HETATM    2  C   UNL     1      43.558 -17.715   4.136  1.00  0.00    -0.039 A 
HETATM    3  C   UNL     1      42.761 -16.709   4.709  1.00  0.00     0.081 A 
HETATM    4  C   UNL     1      42.002 -15.854   3.889  1.00  0.00     0.039 A 
HETATM    5  C   UNL     1      42.062 -15.936   2.489  1.00  0.00    -0.003 A 
HETATM    6  C   UNL     1      42.848 -16.947   1.924  1.00  0.00     0.014 A 
HETATM    7  C   UNL     1      43.576 -17.825   2.735  1.00  0.00     0.009 A 
ENDROOT
BRANCH   5   8
HETATM    8  C   UNL     1      41.297 -15.002   1.648  1.00  0.00     0.098 A 
HETATM    9  N   UNL     1      40.379 -15.611   0.872  1.00  0.00    -0.172 NA
HETATM   10  N   UNL     1      39.569 -14.868   0.143  1.00  0.00    -0.262 N 
HETATM   11  H   UNL     1      38.879 -15.349  -0.424  1.00  0.00     0.191 HD
HETATM   12  C   UNL     1      39.595 -13.524   0.102  1.00  0.00     0.129 A 
HETATM   13  C   UNL     1      40.551 -12.848   0.908  1.00  0.00     0.022 A 
HETATM   14  C   UNL     1      41.447 -13.607   1.685  1.00  0.00     0.009 A 
HETATM   15  C   UNL     1      40.634 -11.434   0.983  1.00  0.00     0.016 A 
HETATM   16  C   UNL     1      42.433 -12.934   2.453  1.00  0.00     0.015 A 
HETATM   17  C   UNL     1      42.501 -11.544   2.495  1.00  0.00     0.001 A 
HETATM   18  C   UNL     1      41.594 -10.792   1.767  1.00  0.00     0.001 A 
BRANCH  12  19
HETATM   19  N   UNL     1      38.671 -12.815  -0.663  1.00  0.00    -0.370 N 
HETATM   20  H   UNL     1      38.622 -11.836  -0.371  1.00  0.00     0.161 HD
BRANCH  19  21
HETATM   21  C   UNL     1      38.457 -12.987  -2.105  1.00  0.00     0.083 C 
HETATM   22  C   UNL     1      37.328 -12.071  -2.605  1.00  0.00     0.025 C 
HETATM   23  C   UNL     1      37.699 -10.590  -2.548  1.00  0.00     0.002 C 
HETATM   24  C   UNL     1      38.996 -10.306  -3.298  1.00  0.00     0.000 C 
HETATM   25  C   UNL     1      40.136 -11.192  -2.808  1.00  0.00     0.002 C 
HETATM   26  C   UNL     1      39.763 -12.675  -2.856  1.00  0.00     0.025 C 
ENDBRANCH  19  21
ENDBRANCH  12  19
ENDBRANCH   5   8
BRANCH   3  27
HETATM   27  S   UNL     1      42.640 -16.440   6.480  1.00  0.00     0.242 S 
HETATM   28  O   UNL     1      41.288 -16.009   6.762  1.00  0.00    -0.206 OA
HETATM   29  O   UNL     1      43.233 -17.564   7.162  1.00  0.00    -0.206 OA
BRANCH  27  30
HETATM   30  N   UNL     1      43.672 -15.112   6.685  1.00  0.00    -0.208 NA
HETATM   31  H   UNL     1      44.629 -15.353   6.412  1.00  0.00     0.140 HD
BRANCH  30  32
HETATM   32  C   UNL     1      43.208 -13.870   6.045  1.00  0.00     0.182 C 
BRANCH  32  33
HETATM   33  C   UNL     1      43.872 -12.716   6.710  1.00  0.00     0.119 A 
HETATM   34  N   UNL     1      45.114 -12.310   6.524  1.00  0.00    -0.232 NA
HETATM   35  C   UNL     1      45.254 -11.193   7.317  1.00  0.00     0.085 A 
HETATM   36  C   UNL     1      44.084 -10.937   8.024  1.00  0.00     0.062 A 
HETATM   37  C   UNL     1      46.355 -10.341   7.486  1.00  0.00     0.034 A 
HETATM   38  N   UNL     1      43.224 -11.927   7.629  1.00  0.00    -0.342 N 
HETATM   39  C   UNL     1      43.942  -9.868   8.911  1.00  0.00     0.032 A 
HETATM   40  H   UNL     1      42.275 -12.056   7.954  1.00  0.00     0.167 HD
HETATM   41  C   UNL     1      45.050  -9.027   9.065  1.00  0.00     0.002 A 
HETATM   42  C   UNL     1      46.237  -9.256   8.364  1.00  0.00     0.002 A 
ENDBRANCH  32  33
ENDBRANCH  30  32
ENDBRANCH  27  30
ENDBRANCH   3  27
TORSDOF 7
ENDMDL
MODEL 4
REMARK VINA RESULT:      -9.3      4.676     10.135
REMARK  7 active torsions:
REMARK  status: ('A' for Active; 'I' for Inactive)
REMARK    1  A    between atoms: C_3  and  S_4 
REMARK    2  A    between atoms: S_4  and  N_5 
REMARK    3  A    between atoms: N_5  and  C_6 
REMARK    4  A    between atoms: C_6  and  C_7 
REMARK    5  A    between atoms: C_20  and  C_21 
REMARK    6  A    between atoms: C_25  and  N_26 
REMARK    7  A    between atoms: N_26  and  C_27 
ROOT
HETATM    1  C   UNL     1      41.419 -11.313   2.201  1.00  0.00     0.050 C 
HETATM    2  C   UNL     1      41.530 -10.984   3.663  1.00  0.00    -0.039 A 
HETATM    3  C   UNL     1      41.502 -11.944   4.690  1.00  0.00     0.081 A 
HETATM    4  C   UNL     1      41.572 -11.543   6.037  1.00  0.00     0.039 A 
HETATM    5  C   UNL     1      41.731 -10.195   6.394  1.00  0.00    -0.003 A 
HETATM    6  C   UNL     1      41.745  -9.243   5.369  1.00  0.00     0.014 A 
HETATM    7  C   UNL     1      41.639  -9.631   4.029  1.00  0.00     0.009 A 
ENDROOT
BRANCH   5   8
HETATM    8  C   UNL     1      41.849  -9.800   7.806  1.00  0.00     0.098 A 
HETATM    9  N   UNL     1      40.661  -9.570   8.398  1.00  0.00    -0.172 NA
HETATM   10  N   UNL     1      40.636  -9.298   9.689  1.00  0.00    -0.262 N 
HETATM   11  H   UNL     1      39.728  -9.140  10.114  1.00  0.00     0.191 HD
HETATM   12  C   UNL     1      41.724  -9.221  10.474  1.00  0.00     0.129 A 
HETATM   13  C   UNL     1      42.995  -9.459   9.884  1.00  0.00     0.022 A 
HETATM   14  C   UNL     1      43.065  -9.730   8.503  1.00  0.00     0.009 A 
HETATM   15  C   UNL     1      44.203  -9.453  10.626  1.00  0.00     0.016 A 
HETATM   16  C   UNL     1      44.337  -9.921   7.904  1.00  0.00     0.015 A 
HETATM   17  C   UNL     1      45.510  -9.895   8.655  1.00  0.00     0.001 A 
HETATM   18  C   UNL     1      45.442  -9.670  10.020  1.00  0.00     0.001 A 
BRANCH  12  19
HETATM   19  N   UNL     1      41.602  -8.974  11.840  1.00  0.00    -0.370 N 
HETATM   20  H   UNL     1      42.394  -9.360  12.359  1.00  0.00     0.161 HD
BRANCH  19  21
HETATM   21  C   UNL     1      41.090  -7.732  12.433  1.00  0.00     0.083 C 
HETATM   22  C   UNL     1      40.379  -8.014  13.767  1.00  0.00     0.025 C 
HETATM   23  C   UNL     1      41.339  -8.476  14.862  1.00  0.00     0.002 C 
HETATM   24  C   UNL     1      42.484  -7.489  15.060  1.00  0.00     0.000 C 
HETATM   25  C   UNL     1      43.216  -7.206  13.752  1.00  0.00     0.002 C 
HETATM   26  C   UNL     1      42.255  -6.752  12.651  1.00  0.00     0.025 C 
ENDBRANCH  19  21
ENDBRANCH  12  19
ENDBRANCH   5   8
BRANCH   3  27
HETATM   27  S   UNL     1      41.373 -13.708   4.382  1.00  0.00     0.242 S 
HETATM   28  O   UNL     1      41.254 -14.365   5.666  1.00  0.00    -0.206 OA
HETATM   29  O   UNL     1      40.413 -13.927   3.329  1.00  0.00    -0.206 OA
BRANCH  27  30
HETATM   30  N   UNL     1      42.910 -14.048   3.756  1.00  0.00    -0.208 NA
HETATM   31  H   UNL     1      43.519 -14.434   4.483  1.00  0.00     0.140 HD
BRANCH  30  32
HETATM   32  C   UNL     1      42.907 -14.876   2.537  1.00  0.00     0.182 C 
BRANCH  32  33
HETATM   33  C   UNL     1      43.209 -16.282   2.918  1.00  0.00     0.119 A 
HETATM   34  N   UNL     1      43.614 -16.708   4.100  1.00  0.00    -0.232 NA
HETATM   35  C   UNL     1      43.717 -18.075   3.979  1.00  0.00     0.085 A 
HETATM   36  C   UNL     1      43.399 -18.484   2.687  1.00  0.00     0.062 A 
HETATM   37  C   UNL     1      44.075 -19.040   4.933  1.00  0.00     0.034 A 
HETATM   38  N   UNL     1      43.091 -17.323   2.029  1.00  0.00    -0.342 N 
HETATM   39  C   UNL     1      43.424 -19.818   2.277  1.00  0.00     0.032 A 
HETATM   40  H   UNL     1      42.822 -17.243   1.058  1.00  0.00     0.167 HD
HETATM   41  C   UNL     1      43.781 -20.767   3.243  1.00  0.00     0.002 A 
HETATM   42  C   UNL     1      44.100 -20.387   4.549  1.00  0.00     0.002 A 
ENDBRANCH  32  33
ENDBRANCH  30  32
ENDBRANCH  27  30
ENDBRANCH   3  27
TORSDOF 7
ENDMDL
MODEL 5
REMARK VINA RESULT:      -8.9      4.452      7.794
REMARK  7 active torsions:
REMARK  status: ('A' for Active; 'I' for Inactive)
REMARK    1  A    between atoms: C_3  and  S_4 
REMARK    2  A    between atoms: S_4  and  N_5 
REMARK    3  A    between atoms: N_5  and  C_6 
REMARK    4  A    between atoms: C_6  and  C_7 
REMARK    5  A    between atoms: C_20  and  C_21 
REMARK    6  A    between atoms: C_25  and  N_26 
REMARK    7  A    between atoms: N_26  and  C_27 
ROOT
HETATM    1  C   UNL     1      41.614  -8.219   6.951  1.00  0.00     0.050 C 
HETATM    2  C   UNL     1      41.757  -9.660   6.548  1.00  0.00    -0.039 A 
HETATM    3  C   UNL     1      40.677 -10.549   6.407  1.00  0.00     0.081 A 
HETATM    4  C   UNL     1      40.907 -11.894   6.063  1.00  0.00     0.039 A 
HETATM    5  C   UNL     1      42.199 -12.373   5.793  1.00  0.00    -0.003 A 
HETATM    6  C   UNL     1      43.271 -11.486   5.946  1.00  0.00     0.014 A 
HETATM    7  C   UNL     1      43.053 -10.157   6.324  1.00  0.00     0.009 A 
ENDROOT
BRANCH   5   8
HETATM    8  C   UNL     1      42.414 -13.770   5.390  1.00  0.00     0.098 A 
HETATM    9  N   UNL     1      43.266 -14.434   6.195  1.00  0.00    -0.172 NA
HETATM   10  N   UNL     1      43.466 -15.721   5.987  1.00  0.00    -0.262 N 
HETATM   11  H   UNL     1      44.103 -16.201   6.613  1.00  0.00     0.191 HD
HETATM   12  C   UNL     1      42.883 -16.436   5.008  1.00  0.00     0.129 A 
HETATM   13  C   UNL     1      41.977 -15.768   4.139  1.00  0.00     0.022 A 
HETATM   14  C   UNL     1      41.754 -14.389   4.316  1.00  0.00     0.009 A 
HETATM   15  C   UNL     1      41.268 -16.433   3.106  1.00  0.00     0.016 A 
HETATM   16  C   UNL     1      40.887 -13.712   3.420  1.00  0.00     0.015 A 
HETATM   17  C   UNL     1      40.215 -14.388   2.404  1.00  0.00     0.001 A 
HETATM   18  C   UNL     1      40.398 -15.752   2.253  1.00  0.00     0.001 A 
BRANCH  12  19
HETATM   19  N   UNL     1      43.116 -17.805   4.888  1.00  0.00    -0.370 N 
HETATM   20  H   UNL     1      42.300 -18.287   4.504  1.00  0.00     0.161 HD
BRANCH  19  21
HETATM   21  C   UNL     1      44.384 -18.414   4.466  1.00  0.00     0.083 C 
HETATM   22  C   UNL     1      44.535 -19.826   5.053  1.00  0.00     0.025 C 
HETATM   23  C   UNL     1      43.534 -20.821   4.467  1.00  0.00     0.002 C 
HETATM   24  C   UNL     1      43.605 -20.859   2.944  1.00  0.00     0.000 C 
HETATM   25  C   UNL     1      43.440 -19.470   2.338  1.00  0.00     0.002 C 
HETATM   26  C   UNL     1      44.436 -18.470   2.929  1.00  0.00     0.025 C 
ENDBRANCH  19  21
ENDBRANCH  12  19
ENDBRANCH   5   8
BRANCH   3  27
HETATM   27  S   UNL     1      38.967 -10.063   6.652  1.00  0.00     0.242 S 
HETATM   28  O   UNL     1      38.638  -9.100   5.624  1.00  0.00    -0.206 OA
HETATM   29  O   UNL     1      38.172 -11.248   6.860  1.00  0.00    -0.206 OA
BRANCH  27  30
HETATM   30  N   UNL     1      39.064  -9.244   8.132  1.00  0.00    -0.208 NA
HETATM   31  H   UNL     1      38.348  -8.515   8.189  1.00  0.00     0.140 HD
BRANCH  30  32
HETATM   32  C   UNL     1      39.063 -10.117   9.318  1.00  0.00     0.182 C 
BRANCH  32  33
HETATM   33  C   UNL     1      39.969  -9.528  10.342  1.00  0.00     0.119 A 
HETATM   34  N   UNL     1      39.607  -8.888  11.437  1.00  0.00    -0.232 NA
HETATM   35  C   UNL     1      40.783  -8.574  12.081  1.00  0.00     0.085 A 
HETATM   36  C   UNL     1      41.882  -9.005  11.344  1.00  0.00     0.062 A 
HETATM   37  C   UNL     1      40.994  -7.921  13.304  1.00  0.00     0.034 A 
HETATM   38  N   UNL     1      41.337  -9.599  10.236  1.00  0.00    -0.342 N 
HETATM   39  C   UNL     1      43.203  -8.816  11.754  1.00  0.00     0.032 A 
HETATM   40  H   UNL     1      41.850 -10.018   9.472  1.00  0.00     0.167 HD
HETATM   41  C   UNL     1      43.394  -8.165  12.979  1.00  0.00     0.002 A 
HETATM   42  C   UNL     1      42.310  -7.726  13.743  1.00  0.00     0.002 A 
ENDBRANCH  32  33
ENDBRANCH  30  32
ENDBRANCH  27  30
ENDBRANCH   3  27
TORSDOF 7
ENDMDL
MODEL 6
REMARK VINA RESULT:      -8.6      4.773     10.150
REMARK  7 active torsions:
REMARK  status: ('A' for Active; 'I' for Inactive)
REMARK    1  A    between atoms: C_3  and  S_4 
REMARK    2  A    between atoms: S_4  and  N_5 
REMARK    3  A    between atoms: N_5  and  C_6 
REMARK    4  A    between atoms: C_6  and  C_7 
REMARK    5  A    between atoms: C_20  and  C_21 
REMARK    6  A    between atoms: C_25  and  N_26 
REMARK    7  A    between atoms: N_26  and  C_27 
ROOT
HETATM    1  C   UNL     1      41.000  -9.218   2.466  1.00  0.00     0.050 C 
HETATM    2  C   UNL     1      41.203  -9.303   3.953  1.00  0.00    -0.039 A 
HETATM    3  C   UNL     1      41.890 -10.348   4.595  1.00  0.00     0.081 A 
HETATM    4  C   UNL     1      41.999 -10.368   5.998  1.00  0.00     0.039 A 
HETATM    5  C   UNL     1      41.487  -9.327   6.789  1.00  0.00    -0.003 A 
HETATM    6  C   UNL     1      40.794  -8.295   6.145  1.00  0.00     0.014 A 
HETATM    7  C   UNL     1      40.649  -8.289   4.754  1.00  0.00     0.009 A 
ENDROOT
BRANCH   5   8
HETATM    8  C   UNL     1      41.652  -9.342   8.250  1.00  0.00     0.098 A 
HETATM    9  N   UNL     1      40.490  -9.479   8.918  1.00  0.00    -0.172 NA
HETATM   10  N   UNL     1      40.522  -9.598  10.231  1.00  0.00    -0.262 N 
HETATM   11  H   UNL     1      39.635  -9.712  10.710  1.00  0.00     0.191 HD
HETATM   12  C   UNL     1      41.643  -9.582  10.972  1.00  0.00     0.129 A 
HETATM   13  C   UNL     1      42.888  -9.440  10.301  1.00  0.00     0.022 A 
HETATM   14  C   UNL     1      42.894  -9.288   8.901  1.00  0.00     0.009 A 
HETATM   15  C   UNL     1      44.135  -9.461  10.976  1.00  0.00     0.016 A 
HETATM   16  C   UNL     1      44.133  -9.098   8.235  1.00  0.00     0.015 A 
HETATM   17  C   UNL     1      45.342  -9.108   8.926  1.00  0.00     0.001 A 
HETATM   18  C   UNL     1      45.344  -9.299  10.298  1.00  0.00     0.001 A 
BRANCH  12  19
HETATM   19  N   UNL     1      41.589  -9.761  12.354  1.00  0.00    -0.370 N 
HETATM   20  H   UNL     1      42.484 -10.095  12.720  1.00  0.00     0.161 HD
BRANCH  19  21
HETATM   21  C   UNL     1      40.886  -8.879  13.294  1.00  0.00     0.083 C 
HETATM   22  C   UNL     1      41.767  -8.567  14.515  1.00  0.00     0.025 C 
HETATM   23  C   UNL     1      42.978  -7.703  14.166  1.00  0.00     0.002 C 
HETATM   24  C   UNL     1      42.565  -6.418  13.456  1.00  0.00     0.000 C 
HETATM   25  C   UNL     1      41.704  -6.702  12.231  1.00  0.00     0.002 C 
HETATM   26  C   UNL     1      40.496  -7.575  12.577  1.00  0.00     0.025 C 
ENDBRANCH  19  21
ENDBRANCH  12  19
ENDBRANCH   5   8
BRANCH   3  27
HETATM   27  S   UNL     1      42.656 -11.709   3.710  1.00  0.00     0.242 S 
HETATM   28  O   UNL     1      41.676 -12.229   2.781  1.00  0.00    -0.206 OA
HETATM   29  O   UNL     1      43.968 -11.301   3.275  1.00  0.00    -0.206 OA
BRANCH  27  30
HETATM   30  N   UNL     1      42.856 -12.842   4.954  1.00  0.00    -0.208 NA
HETATM   31  H   UNL     1      43.049 -12.372   5.843  1.00  0.00     0.140 HD
BRANCH  30  32
HETATM   32  C   UNL     1      41.766 -13.825   5.071  1.00  0.00     0.182 C 
BRANCH  32  33
HETATM   33  C   UNL     1      42.255 -15.138   4.570  1.00  0.00     0.119 A 
HETATM   34  N   UNL     1      41.925 -15.717   3.431  1.00  0.00    -0.232 NA
HETATM   35  C   UNL     1      42.657 -16.883   3.390  1.00  0.00     0.085 A 
HETATM   36  C   UNL     1      43.422 -17.029   4.542  1.00  0.00     0.062 A 
HETATM   37  C   UNL     1      42.723 -17.870   2.395  1.00  0.00     0.034 A 
HETATM   38  N   UNL     1      43.140 -15.912   5.282  1.00  0.00    -0.342 N 
HETATM   39  C   UNL     1      44.259 -18.122   4.774  1.00  0.00     0.032 A 
HETATM   40  H   UNL     1      43.516 -15.690   6.194  1.00  0.00     0.167 HD
HETATM   41  C   UNL     1      44.314 -19.096   3.770  1.00  0.00     0.002 A 
HETATM   42  C   UNL     1      43.562 -18.974   2.599  1.00  0.00     0.002 A 
ENDBRANCH  32  33
ENDBRANCH  30  32
ENDBRANCH  27  30
ENDBRANCH   3  27
TORSDOF 7
ENDMDL
MODEL 7
REMARK VINA RESULT:      -8.5      5.393     10.488
REMARK  7 active torsions:
REMARK  status: ('A' for Active; 'I' for Inactive)
REMARK    1  A    between atoms: C_3  and  S_4 
REMARK    2  A    between atoms: S_4  and  N_5 
REMARK    3  A    between atoms: N_5  and  C_6 
REMARK    4  A    between atoms: C_6  and  C_7 
REMARK    5  A    between atoms: C_20  and  C_21 
REMARK    6  A    between atoms: C_25  and  N_26 
REMARK    7  A    between atoms: N_26  and  C_27 
ROOT
HETATM    1  C   UNL     1      44.421 -11.910   4.061  1.00  0.00     0.050 C 
HETATM    2  C   UNL     1      44.070 -11.316   5.396  1.00  0.00    -0.039 A 
HETATM    3  C   UNL     1      42.774 -10.914   5.763  1.00  0.00     0.081 A 
HETATM    4  C   UNL     1      42.543 -10.330   7.022  1.00  0.00     0.039 A 
HETATM    5  C   UNL     1      43.572 -10.187   7.965  1.00  0.00    -0.003 A 
HETATM    6  C   UNL     1      44.863 -10.578   7.591  1.00  0.00     0.014 A 
HETATM    7  C   UNL     1      45.107 -11.125   6.326  1.00  0.00     0.009 A 
ENDROOT
BRANCH   5   8
HETATM    8  C   UNL     1      43.301  -9.617   9.294  1.00  0.00     0.098 A 
HETATM    9  N   UNL     1      43.482 -10.495  10.299  1.00  0.00    -0.172 NA
HETATM   10  N   UNL     1      43.359 -10.072  11.542  1.00  0.00    -0.262 N 
HETATM   11  H   UNL     1      43.511 -10.749  12.282  1.00  0.00     0.191 HD
HETATM   12  C   UNL     1      43.048  -8.812  11.893  1.00  0.00     0.129 A 
HETATM   13  C   UNL     1      42.850  -7.858  10.858  1.00  0.00     0.022 A 
HETATM   14  C   UNL     1      42.953  -8.276   9.517  1.00  0.00     0.009 A 
HETATM   15  C   UNL     1      42.570  -6.491  11.112  1.00  0.00     0.016 A 
HETATM   16  C   UNL     1      42.708  -7.335   8.483  1.00  0.00     0.015 A 
HETATM   17  C   UNL     1      42.419  -6.002   8.763  1.00  0.00     0.001 A 
HETATM   18  C   UNL     1      42.360  -5.577  10.079  1.00  0.00     0.001 A 
BRANCH  12  19
HETATM   19  N   UNL     1      42.983  -8.440  13.234  1.00  0.00    -0.370 N 
HETATM   20  H   UNL     1      43.142  -7.436  13.349  1.00  0.00     0.161 HD
BRANCH  19  21
HETATM   21  C   UNL     1      42.032  -8.977  14.216  1.00  0.00     0.083 C 
HETATM   22  C   UNL     1      41.890  -8.028  15.417  1.00  0.00     0.025 C 
HETATM   23  C   UNL     1      41.206  -6.711  15.052  1.00  0.00     0.002 C 
HETATM   24  C   UNL     1      39.854  -6.945  14.386  1.00  0.00     0.000 C 
HETATM   25  C   UNL     1      39.973  -7.871  13.180  1.00  0.00     0.002 C 
HETATM   26  C   UNL     1      40.665  -9.187  13.542  1.00  0.00     0.025 C 
ENDBRANCH  19  21
ENDBRANCH  12  19
ENDBRANCH   5   8
BRANCH   3  27
HETATM   27  S   UNL     1      41.348 -11.098   4.688  1.00  0.00     0.242 S 
HETATM   28  O   UNL     1      40.241 -10.405   5.312  1.00  0.00    -0.206 OA
HETATM   29  O   UNL     1      41.749 -10.815   3.331  1.00  0.00    -0.206 OA
BRANCH  27  30
HETATM   30  N   UNL     1      41.060 -12.764   4.801  1.00  0.00    -0.208 NA
HETATM   31  H   UNL     1      40.238 -12.949   5.382  1.00  0.00     0.140 HD
BRANCH  30  32
HETATM   32  C   UNL     1      40.997 -13.465   3.508  1.00  0.00     0.182 C 
BRANCH  32  33
HETATM   33  C   UNL     1      41.824 -14.700   3.597  1.00  0.00     0.119 A 
HETATM   34  N   UNL     1      42.634 -15.034   4.583  1.00  0.00    -0.232 NA
HETATM   35  C   UNL     1      43.137 -16.268   4.238  1.00  0.00     0.085 A 
HETATM   36  C   UNL     1      42.647 -16.676   3.001  1.00  0.00     0.062 A 
HETATM   37  C   UNL     1      44.020 -17.108   4.934  1.00  0.00     0.034 A 
HETATM   38  N   UNL     1      41.823 -15.655   2.609  1.00  0.00    -0.342 N 
HETATM   39  C   UNL     1      42.994 -17.886   2.400  1.00  0.00     0.032 A 
HETATM   40  H   UNL     1      41.301 -15.609   1.744  1.00  0.00     0.167 HD
HETATM   41  C   UNL     1      43.874 -18.712   3.109  1.00  0.00     0.002 A 
HETATM   42  C   UNL     1      44.378 -18.333   4.356  1.00  0.00     0.002 A 
ENDBRANCH  32  33
ENDBRANCH  30  32
ENDBRANCH  27  30
ENDBRANCH   3  27
TORSDOF 7
ENDMDL
MODEL 8
REMARK VINA RESULT:      -8.4     15.427     17.731
REMARK  7 active torsions:
REMARK  status: ('A' for Active; 'I' for Inactive)
REMARK    1  A    between atoms: C_3  and  S_4 
REMARK    2  A    between atoms: S_4  and  N_5 
REMARK    3  A    between atoms: N_5  and  C_6 
REMARK    4  A    between atoms: C_6  and  C_7 
REMARK    5  A    between atoms: C_20  and  C_21 
REMARK    6  A    between atoms: C_25  and  N_26 
REMARK    7  A    between atoms: N_26  and  C_27 
ROOT
HETATM    1  C   UNL     1      39.361 -33.235   5.737  1.00  0.00     0.050 C 
HETATM    2  C   UNL     1      40.230 -32.607   4.684  1.00  0.00    -0.039 A 
HETATM    3  C   UNL     1      41.547 -32.170   4.908  1.00  0.00     0.081 A 
HETATM    4  C   UNL     1      42.276 -31.556   3.872  1.00  0.00     0.039 A 
HETATM    5  C   UNL     1      41.742 -31.416   2.582  1.00  0.00    -0.003 A 
HETATM    6  C   UNL     1      40.426 -31.843   2.367  1.00  0.00     0.014 A 
HETATM    7  C   UNL     1      39.682 -32.420   3.403  1.00  0.00     0.009 A 
ENDROOT
BRANCH   5   8
HETATM    8  C   UNL     1      42.536 -30.814   1.500  1.00  0.00     0.098 A 
HETATM    9  N   UNL     1      42.706 -29.485   1.637  1.00  0.00    -0.172 NA
HETATM   10  N   UNL     1      43.478 -28.850   0.777  1.00  0.00    -0.262 N 
HETATM   11  H   UNL     1      43.599 -27.852   0.908  1.00  0.00     0.191 HD
HETATM   12  C   UNL     1      44.114 -29.434  -0.253  1.00  0.00     0.129 A 
HETATM   13  C   UNL     1      43.960 -30.836  -0.429  1.00  0.00     0.022 A 
HETATM   14  C   UNL     1      43.125 -31.546   0.457  1.00  0.00     0.009 A 
HETATM   15  C   UNL     1      44.623 -31.564  -1.449  1.00  0.00     0.016 A 
HETATM   16  C   UNL     1      42.931 -32.937   0.254  1.00  0.00     0.015 A 
HETATM   17  C   UNL     1      43.585 -33.623  -0.767  1.00  0.00     0.001 A 
HETATM   18  C   UNL     1      44.440 -32.938  -1.614  1.00  0.00     0.001 A 
BRANCH  12  19
HETATM   19  N   UNL     1      44.950 -28.695  -1.088  1.00  0.00    -0.370 N 
HETATM   20  H   UNL     1      44.420 -28.239  -1.835  1.00  0.00     0.161 HD
BRANCH  19  21
HETATM   21  C   UNL     1      46.099 -27.896  -0.643  1.00  0.00     0.083 C 
HETATM   22  C   UNL     1      46.753 -28.522   0.600  1.00  0.00     0.025 C 
HETATM   23  C   UNL     1      47.435 -29.857   0.300  1.00  0.00     0.002 C 
HETATM   24  C   UNL     1      48.445 -29.730  -0.835  1.00  0.00     0.000 C 
HETATM   25  C   UNL     1      47.814 -29.126  -2.085  1.00  0.00     0.002 C 
HETATM   26  C   UNL     1      47.124 -27.794  -1.786  1.00  0.00     0.025 C 
ENDBRANCH  19  21
ENDBRANCH  12  19
ENDBRANCH   5   8
BRANCH   3  27
HETATM   27  S   UNL     1      42.385 -32.345   6.486  1.00  0.00     0.242 S 
HETATM   28  O   UNL     1      41.754 -31.433   7.415  1.00  0.00    -0.206 OA
HETATM   29  O   UNL     1      42.528 -33.749   6.783  1.00  0.00    -0.206 OA
BRANCH  27  30
HETATM   30  N   UNL     1      43.923 -31.739   6.113  1.00  0.00    -0.208 NA
HETATM   31  H   UNL     1      44.179 -30.984   6.756  1.00  0.00     0.140 HD
BRANCH  30  32
HETATM   32  C   UNL     1      44.977 -32.762   6.010  1.00  0.00     0.182 C 
BRANCH  32  33
HETATM   33  C   UNL     1      46.237 -32.103   5.571  1.00  0.00     0.119 A 
HETATM   34  N   UNL     1      47.462 -32.570   5.720  1.00  0.00    -0.232 NA
HETATM   35  C   UNL     1      48.282 -31.639   5.123  1.00  0.00     0.085 A 
HETATM   36  C   UNL     1      47.541 -30.569   4.630  1.00  0.00     0.062 A 
HETATM   37  C   UNL     1      49.675 -31.639   4.959  1.00  0.00     0.034 A 
HETATM   38  N   UNL     1      46.244 -30.883   4.938  1.00  0.00    -0.342 N 
HETATM   39  C   UNL     1      48.113 -29.476   3.979  1.00  0.00     0.032 A 
HETATM   40  H   UNL     1      45.431 -30.318   4.736  1.00  0.00     0.167 HD
HETATM   41  C   UNL     1      49.504 -29.493   3.823  1.00  0.00     0.002 A 
HETATM   42  C   UNL     1      50.274 -30.556   4.302  1.00  0.00     0.002 A 
ENDBRANCH  32  33
ENDBRANCH  30  32
ENDBRANCH  27  30
ENDBRANCH   3  27
TORSDOF 7
ENDMDL
MODEL 9
REMARK VINA RESULT:      -8.1     15.575     17.497
REMARK  7 active torsions:
REMARK  status: ('A' for Active; 'I' for Inactive)
REMARK    1  A    between atoms: C_3  and  S_4 
REMARK    2  A    between atoms: S_4  and  N_5 
REMARK    3  A    between atoms: N_5  and  C_6 
REMARK    4  A    between atoms: C_6  and  C_7 
REMARK    5  A    between atoms: C_20  and  C_21 
REMARK    6  A    between atoms: C_25  and  N_26 
REMARK    7  A    between atoms: N_26  and  C_27 
ROOT
HETATM    1  C   UNL     1      39.521 -32.600   7.273  1.00  0.00     0.050 C 
HETATM    2  C   UNL     1      40.412 -32.098   6.171  1.00  0.00    -0.039 A 
HETATM    3  C   UNL     1      41.773 -31.789   6.340  1.00  0.00     0.081 A 
HETATM    4  C   UNL     1      42.524 -31.286   5.261  1.00  0.00     0.039 A 
HETATM    5  C   UNL     1      41.964 -31.136   3.983  1.00  0.00    -0.003 A 
HETATM    6  C   UNL     1      40.605 -31.434   3.824  1.00  0.00     0.014 A 
HETATM    7  C   UNL     1      39.843 -31.899   4.901  1.00  0.00     0.009 A 
ENDROOT
BRANCH   5   8
HETATM    8  C   UNL     1      42.778 -30.653   2.858  1.00  0.00     0.098 A 
HETATM    9  N   UNL     1      42.278 -29.548   2.272  1.00  0.00    -0.172 NA
HETATM   10  N   UNL     1      42.970 -28.969   1.309  1.00  0.00    -0.262 N 
HETATM   11  H   UNL     1      42.577 -28.132   0.891  1.00  0.00     0.191 HD
HETATM   12  C   UNL     1      44.153 -29.410   0.849  1.00  0.00     0.129 A 
HETATM   13  C   UNL     1      44.713 -30.574   1.445  1.00  0.00     0.022 A 
HETATM   14  C   UNL     1      43.993 -31.232   2.461  1.00  0.00     0.009 A 
HETATM   15  C   UNL     1      45.977 -31.098   1.075  1.00  0.00     0.016 A 
HETATM   16  C   UNL     1      44.528 -32.421   3.023  1.00  0.00     0.015 A 
HETATM   17  C   UNL     1      45.766 -32.921   2.629  1.00  0.00     0.001 A 
HETATM   18  C   UNL     1      46.497 -32.253   1.660  1.00  0.00     0.001 A 
BRANCH  12  19
HETATM   19  N   UNL     1      44.840 -28.710  -0.141  1.00  0.00    -0.370 N 
HETATM   20  H   UNL     1      45.849 -28.869  -0.076  1.00  0.00     0.161 HD
BRANCH  19  21
HETATM   21  C   UNL     1      44.384 -28.537  -1.526  1.00  0.00     0.083 C 
HETATM   22  C   UNL     1      45.495 -27.930  -2.397  1.00  0.00     0.025 C 
HETATM   23  C   UNL     1      46.672 -28.883  -2.604  1.00  0.00     0.002 C 
HETATM   24  C   UNL     1      46.217 -30.224  -3.167  1.00  0.00     0.000 C 
HETATM   25  C   UNL     1      45.125 -30.855  -2.310  1.00  0.00     0.002 C 
HETATM   26  C   UNL     1      43.950 -29.900  -2.094  1.00  0.00     0.025 C 
ENDBRANCH  19  21
ENDBRANCH  12  19
ENDBRANCH   5   8
BRANCH   3  27
HETATM   27  S   UNL     1      42.642 -31.995   7.897  1.00  0.00     0.242 S 
HETATM   28  O   UNL     1      42.075 -31.053   8.838  1.00  0.00    -0.206 OA
HETATM   29  O   UNL     1      42.730 -33.403   8.197  1.00  0.00    -0.206 OA
BRANCH  27  30
HETATM   30  N   UNL     1      44.195 -31.460   7.484  1.00  0.00    -0.208 NA
HETATM   31  H   UNL     1      44.515 -30.741   8.139  1.00  0.00     0.140 HD
BRANCH  30  32
HETATM   32  C   UNL     1      45.188 -32.533   7.308  1.00  0.00     0.182 C 
BRANCH  32  33
HETATM   33  C   UNL     1      46.284 -32.029   6.437  1.00  0.00     0.119 A 
HETATM   34  N   UNL     1      47.448 -32.612   6.221  1.00  0.00    -0.232 NA
HETATM   35  C   UNL     1      48.100 -31.799   5.320  1.00  0.00     0.085 A 
HETATM   36  C   UNL     1      47.329 -30.684   5.011  1.00  0.00     0.062 A 
HETATM   37  C   UNL     1      49.358 -31.950   4.718  1.00  0.00     0.034 A 
HETATM   38  N   UNL     1      46.183 -30.848   5.743  1.00  0.00    -0.342 N 
HETATM   39  C   UNL     1      47.744 -29.686   4.127  1.00  0.00     0.032 A 
HETATM   40  H   UNL     1      45.397 -30.212   5.769  1.00  0.00     0.167 HD
HETATM   41  C   UNL     1      49.000 -29.854   3.534  1.00  0.00     0.002 A 
HETATM   42  C   UNL     1      49.795 -30.967   3.821  1.00  0.00     0.002 A 
ENDBRANCH  32  33
ENDBRANCH  30  32
ENDBRANCH  27  30
ENDBRANCH   3  27
TORSDOF 7
ENDMDL
MODEL 10
REMARK VINA RESULT:      -8.1     16.380     19.519
REMARK  7 active torsions:
REMARK  status: ('A' for Active; 'I' for Inactive)
REMARK    1  A    between atoms: C_3  and  S_4 
REMARK    2  A    between atoms: S_4  and  N_5 
REMARK    3  A    between atoms: N_5  and  C_6 
REMARK    4  A    between atoms: C_6  and  C_7 
REMARK    5  A    between atoms: C_20  and  C_21 
REMARK    6  A    between atoms: C_25  and  N_26 
REMARK    7  A    between atoms: N_26  and  C_27 
ROOT
HETATM    1  C   UNL     1      53.291 -32.207  -4.100  1.00  0.00     0.050 C 
HETATM    2  C   UNL     1      52.062 -31.982  -3.263  1.00  0.00    -0.039 A 
HETATM    3  C   UNL     1      50.805 -32.544  -3.543  1.00  0.00     0.081 A 
HETATM    4  C   UNL     1      49.698 -32.247  -2.727  1.00  0.00     0.039 A 
HETATM    5  C   UNL     1      49.823 -31.440  -1.586  1.00  0.00    -0.003 A 
HETATM    6  C   UNL     1      51.075 -30.873  -1.318  1.00  0.00     0.014 A 
HETATM    7  C   UNL     1      52.172 -31.134  -2.147  1.00  0.00     0.009 A 
ENDROOT
BRANCH   5   8
HETATM    8  C   UNL     1      48.665 -31.179  -0.718  1.00  0.00     0.098 A 
HETATM    9  N   UNL     1      48.530 -32.075   0.278  1.00  0.00    -0.172 NA
HETATM   10  N   UNL     1      47.580 -31.892   1.175  1.00  0.00    -0.262 N 
HETATM   11  H   UNL     1      47.506 -32.574   1.921  1.00  0.00     0.191 HD
HETATM   12  C   UNL     1      46.712 -30.866   1.168  1.00  0.00     0.129 A 
HETATM   13  C   UNL     1      46.825 -29.899   0.132  1.00  0.00     0.022 A 
HETATM   14  C   UNL     1      47.813 -30.072  -0.857  1.00  0.00     0.009 A 
HETATM   15  C   UNL     1      45.997 -28.750   0.055  1.00  0.00     0.016 A 
HETATM   16  C   UNL     1      47.895 -29.133  -1.919  1.00  0.00     0.015 A 
HETATM   17  C   UNL     1      47.058 -28.022  -1.977  1.00  0.00     0.001 A 
HETATM   18  C   UNL     1      46.113 -27.825  -0.983  1.00  0.00     0.001 A 
BRANCH  12  19
HETATM   19  N   UNL     1      45.767 -30.723   2.182  1.00  0.00    -0.370 N 
HETATM   20  H   UNL     1      45.459 -29.751   2.268  1.00  0.00     0.161 HD
BRANCH  19  21
HETATM   21  C   UNL     1      44.698 -31.683   2.485  1.00  0.00     0.083 C 
HETATM   22  C   UNL     1      43.673 -31.075   3.455  1.00  0.00     0.025 C 
HETATM   23  C   UNL     1      42.865 -29.940   2.826  1.00  0.00     0.002 C 
HETATM   24  C   UNL     1      42.188 -30.382   1.533  1.00  0.00     0.000 C 
HETATM   25  C   UNL     1      43.189 -30.974   0.547  1.00  0.00     0.002 C 
HETATM   26  C   UNL     1      44.005 -32.104   1.177  1.00  0.00     0.025 C 
ENDBRANCH  19  21
ENDBRANCH  12  19
ENDBRANCH   5   8
BRANCH   3  27
HETATM   27  S   UNL     1      50.510 -33.648  -4.927  1.00  0.00     0.242 S 
HETATM   28  O   UNL     1      50.787 -32.909  -6.140  1.00  0.00    -0.206 OA
HETATM   29  O   UNL     1      51.141 -34.916  -4.653  1.00  0.00    -0.206 OA
BRANCH  27  30
HETATM   30  N   UNL     1      48.834 -33.875  -4.819  1.00  0.00    -0.208 NA
HETATM   31  H   UNL     1      48.487 -33.573  -3.904  1.00  0.00     0.140 HD
BRANCH  30  32
HETATM   32  C   UNL     1      48.062 -33.287  -5.927  1.00  0.00     0.182 C 
BRANCH  32  33
HETATM   33  C   UNL     1      47.021 -32.390  -5.357  1.00  0.00     0.119 A 
HETATM   34  N   UNL     1      46.329 -31.475  -6.009  1.00  0.00    -0.232 NA
HETATM   35  C   UNL     1      45.466 -30.940  -5.079  1.00  0.00     0.085 A 
HETATM   36  C   UNL     1      45.662 -31.519  -3.829  1.00  0.00     0.062 A 
HETATM   37  C   UNL     1      44.481 -29.952  -5.227  1.00  0.00     0.034 A 
HETATM   38  N   UNL     1      46.664 -32.431  -4.031  1.00  0.00    -0.342 N 
HETATM   39  C   UNL     1      44.929 -31.165  -2.696  1.00  0.00     0.032 A 
HETATM   40  H   UNL     1      47.073 -33.032  -3.328  1.00  0.00     0.167 HD
HETATM   41  C   UNL     1      43.949 -30.179  -2.863  1.00  0.00     0.002 A 
HETATM   42  C   UNL     1      43.725 -29.583  -4.107  1.00  0.00     0.002 A 
ENDBRANCH  32  33
ENDBRANCH  30  32
ENDBRANCH  27  30
ENDBRANCH   3  27
TORSDOF 7
ENDMDL
