MODEL 1
REMARK VINA RESULT:     -11.3      0.000      0.000
REMARK  5 active torsions:
REMARK  status: ('A' for Active; 'I' for Inactive)
REMARK    1  A    between atoms: C_4  and  N_5 
REMARK       I    between atoms: N_5  and  C_6 
REMARK    2  A    between atoms: C_6  and  C_7 
REMARK    3  A    between atoms: C_8  and  N_9 
REMARK    4  A    between atoms: N_10  and  N_11 
REMARK    5  A    between atoms: C_12  and  C_13 
ROOT
HETATM    1  C   UNL     1      42.514 -13.876   5.411  1.00  0.00     0.110 A 
HETATM    2  C   UNL     1      41.627 -13.167   4.626  1.00  0.00     0.143 A 
HETATM    3  N   UNL     1      41.226 -13.965   3.558  1.00  0.00    -0.197 N 
HETATM    4  C   UNL     1      41.950 -15.149   3.613  1.00  0.00     0.183 A 
HETATM    5  C   UNL     1      42.742 -15.106   4.760  1.00  0.00     0.125 A 
HETATM    6  N   UNL     1      43.527 -16.152   5.121  1.00  0.00    -0.242 NA
HETATM    7  C   UNL     1      43.516 -17.186   4.265  1.00  0.00     0.086 A 
HETATM    8  C   UNL     1      42.714 -17.205   3.094  1.00  0.00     0.088 A 
HETATM    9  N   UNL     1      41.903 -16.190   2.747  1.00  0.00    -0.225 NA
HETATM   10  C   UNL     1      44.324 -18.281   4.546  1.00  0.00     0.034 A 
HETATM   11  C   UNL     1      44.362 -19.396   3.707  1.00  0.00     0.002 A 
HETATM   12  C   UNL     1      43.574 -19.418   2.565  1.00  0.00     0.002 A 
HETATM   13  C   UNL     1      42.759 -18.324   2.271  1.00  0.00     0.034 A 
ENDROOT
BRANCH   1  14
HETATM   14  C   UNL     1      42.977 -13.418   6.703  1.00  0.00     0.262 C 
HETATM   15  N   UNL     1      43.144 -12.047   6.689  1.00  0.00    -0.322 N 
HETATM   16  H   UNL     1      42.742 -11.580   5.888  1.00  0.00     0.169 HD
HETATM   17  O   UNL     1      43.270 -14.198   7.598  1.00  0.00    -0.267 OA
BRANCH  15  18
HETATM   18  C   UNL     1      43.995 -11.260   7.493  1.00  0.00     0.041 A 
HETATM   19  C   UNL     1      43.595 -10.753   8.735  1.00  0.00     0.037 A 
HETATM   20  C   UNL     1      44.500 -10.082   9.571  1.00  0.00    -0.060 A 
HETATM   21  C   UNL     1      44.062  -9.617  10.929  1.00  0.00     0.048 C 
HETATM   22  C   UNL     1      45.822  -9.919   9.154  1.00  0.00     0.007 A 
HETATM   23  C   UNL     1      46.228 -10.395   7.910  1.00  0.00     0.009 A 
HETATM   24  C   UNL     1      45.327 -11.063   7.066  1.00  0.00    -0.035 A 
HETATM   25  C   UNL     1      45.834 -11.580   5.744  1.00  0.00     0.050 C 
ENDBRANCH  15  18
ENDBRANCH   1  14
BRANCH   2  26
HETATM   26  N   UNL     1      41.084 -11.934   4.806  1.00  0.00    -0.383 N 
HETATM   27  H   UNL     1      41.001 -11.536   5.740  1.00  0.00     0.157 HD
HETATM   28  H   UNL     1      41.244 -11.234   4.077  1.00  0.00     0.157 HD
ENDBRANCH   2  26
BRANCH   3  29
HETATM   29  N   UNL     1      40.238 -13.526   2.719  1.00  0.00    -0.176 NA
HETATM   30  C   UNL     1      40.589 -13.016   1.590  1.00  0.00     0.153 C 
BRANCH  30  31
HETATM   31  C   UNL     1      39.527 -12.683   0.657  1.00  0.00     0.011 A 
HETATM   32  C   UNL     1      39.280 -13.252  -0.634  1.00  0.00     0.004 A 
HETATM   33  C   UNL     1      38.104 -12.681  -1.125  1.00  0.00     0.043 A 
HETATM   34  C   UNL     1      39.934 -14.222  -1.425  1.00  0.00     0.014 A 
HETATM   35  C   UNL     1      37.546 -13.031  -2.359  1.00  0.00     0.030 A 
HETATM   36  N   UNL     1      37.664 -11.783  -0.182  1.00  0.00    -0.364 N 
HETATM   37  C   UNL     1      38.213 -13.994  -3.121  1.00  0.00     0.002 A 
HETATM   38  C   UNL     1      39.390 -14.580  -2.665  1.00  0.00     0.001 A 
HETATM   39  H   UNL     1      36.825 -11.224  -0.268  1.00  0.00     0.165 HD
HETATM   40  C   UNL     1      38.507 -11.776   0.892  1.00  0.00     0.102 A 
ENDBRANCH  30  31
ENDBRANCH   3  29
TORSDOF 5
ENDMDL
MODEL 2
REMARK VINA RESULT:     -11.2      2.301      8.757
REMARK  5 active torsions:
REMARK  status: ('A' for Active; 'I' for Inactive)
REMARK    1  A    between atoms: C_4  and  N_5 
REMARK       I    between atoms: N_5  and  C_6 
REMARK    2  A    between atoms: C_6  and  C_7 
REMARK    3  A    between atoms: C_8  and  N_9 
REMARK    4  A    between atoms: N_10  and  N_11 
REMARK    5  A    between atoms: C_12  and  C_13 
ROOT
HETATM    1  C   UNL     1      42.718 -14.015   5.025  1.00  0.00     0.110 A 
HETATM    2  C   UNL     1      43.034 -13.103   6.012  1.00  0.00     0.143 A 
HETATM    3  N   UNL     1      42.764 -11.819   5.550  1.00  0.00    -0.197 N 
HETATM    4  C   UNL     1      42.374 -11.916   4.220  1.00  0.00     0.183 A 
HETATM    5  C   UNL     1      42.334 -13.270   3.890  1.00  0.00     0.125 A 
HETATM    6  N   UNL     1      41.930 -13.692   2.666  1.00  0.00    -0.242 NA
HETATM    7  C   UNL     1      41.633 -12.709   1.802  1.00  0.00     0.086 A 
HETATM    8  C   UNL     1      41.693 -11.335   2.152  1.00  0.00     0.088 A 
HETATM    9  N   UNL     1      42.055 -10.907   3.374  1.00  0.00    -0.225 NA
HETATM   10  C   UNL     1      41.246 -13.060   0.514  1.00  0.00     0.034 A 
HETATM   11  C   UNL     1      40.915 -12.095  -0.439  1.00  0.00     0.002 A 
HETATM   12  C   UNL     1      40.968 -10.752  -0.096  1.00  0.00     0.002 A 
HETATM   13  C   UNL     1      41.356 -10.386   1.193  1.00  0.00     0.034 A 
ENDROOT
BRANCH   1  14
HETATM   14  C   UNL     1      42.695 -15.445   5.239  1.00  0.00     0.262 C 
HETATM   15  N   UNL     1      43.702 -16.051   4.511  1.00  0.00    -0.322 N 
HETATM   16  H   UNL     1      44.387 -15.415   4.128  1.00  0.00     0.169 HD
HETATM   17  O   UNL     1      41.812 -15.987   5.889  1.00  0.00    -0.267 OA
BRANCH  15  18
HETATM   18  C   UNL     1      43.760 -17.376   4.032  1.00  0.00     0.041 A 
HETATM   19  C   UNL     1      44.059 -18.461   4.865  1.00  0.00     0.037 A 
HETATM   20  C   UNL     1      43.985 -19.780   4.392  1.00  0.00    -0.060 A 
HETATM   21  C   UNL     1      44.238 -20.926   5.329  1.00  0.00     0.048 C 
HETATM   22  C   UNL     1      43.608 -20.012   3.068  1.00  0.00     0.007 A 
HETATM   23  C   UNL     1      43.333 -18.941   2.222  1.00  0.00     0.009 A 
HETATM   24  C   UNL     1      43.408 -17.618   2.686  1.00  0.00    -0.035 A 
HETATM   25  C   UNL     1      43.071 -16.505   1.728  1.00  0.00     0.050 C 
ENDBRANCH  15  18
ENDBRANCH   1  14
BRANCH   2  26
HETATM   26  N   UNL     1      43.455 -13.300   7.290  1.00  0.00    -0.383 N 
HETATM   27  H   UNL     1      43.050 -12.766   8.057  1.00  0.00     0.157 HD
HETATM   28  H   UNL     1      43.736 -14.247   7.556  1.00  0.00     0.157 HD
ENDBRANCH   2  26
BRANCH   3  29
HETATM   29  N   UNL     1      42.866 -10.756   6.406  1.00  0.00    -0.176 NA
HETATM   30  C   UNL     1      41.779 -10.276   6.902  1.00  0.00     0.153 C 
BRANCH  30  31
HETATM   31  C   UNL     1      41.914  -9.241   7.913  1.00  0.00     0.011 A 
HETATM   32  C   UNL     1      42.609  -9.319   9.163  1.00  0.00     0.004 A 
HETATM   33  C   UNL     1      42.538  -8.057   9.758  1.00  0.00     0.043 A 
HETATM   34  C   UNL     1      43.315 -10.338   9.837  1.00  0.00     0.014 A 
HETATM   35  C   UNL     1      43.140  -7.761  10.986  1.00  0.00     0.030 A 
HETATM   36  N   UNL     1      41.811  -7.250   8.916  1.00  0.00    -0.364 N 
HETATM   37  C   UNL     1      43.834  -8.788  11.631  1.00  0.00     0.002 A 
HETATM   38  C   UNL     1      43.919 -10.058  11.069  1.00  0.00     0.001 A 
HETATM   39  H   UNL     1      41.606  -6.275   9.090  1.00  0.00     0.165 HD
HETATM   40  C   UNL     1      41.432  -7.947   7.805  1.00  0.00     0.102 A 
ENDBRANCH  30  31
ENDBRANCH   3  29
TORSDOF 5
ENDMDL
MODEL 3
REMARK VINA RESULT:     -11.2      1.844      8.391
REMARK  5 active torsions:
REMARK  status: ('A' for Active; 'I' for Inactive)
REMARK    1  A    between atoms: C_4  and  N_5 
REMARK       I    between atoms: N_5  and  C_6 
REMARK    2  A    between atoms: C_6  and  C_7 
REMARK    3  A    between atoms: C_8  and  N_9 
REMARK    4  A    between atoms: N_10  and  N_11 
REMARK    5  A    between atoms: C_12  and  C_13 
ROOT
HETATM    1  C   UNL     1      40.790 -13.960   3.218  1.00  0.00     0.110 A 
HETATM    2  C   UNL     1      41.091 -13.073   4.232  1.00  0.00     0.143 A 
HETATM    3  N   UNL     1      42.156 -13.573   4.974  1.00  0.00    -0.197 N 
HETATM    4  C   UNL     1      42.460 -14.838   4.489  1.00  0.00     0.183 A 
HETATM    5  C   UNL     1      41.626 -15.082   3.398  1.00  0.00     0.125 A 
HETATM    6  N   UNL     1      41.723 -16.223   2.670  1.00  0.00    -0.242 NA
HETATM    7  C   UNL     1      42.634 -17.100   3.118  1.00  0.00     0.086 A 
HETATM    8  C   UNL     1      43.464 -16.840   4.240  1.00  0.00     0.088 A 
HETATM    9  N   UNL     1      43.403 -15.698   4.945  1.00  0.00    -0.225 NA
HETATM   10  C   UNL     1      42.768 -18.310   2.447  1.00  0.00     0.034 A 
HETATM   11  C   UNL     1      43.697 -19.271   2.849  1.00  0.00     0.002 A 
HETATM   12  C   UNL     1      44.513 -19.016   3.942  1.00  0.00     0.002 A 
HETATM   13  C   UNL     1      44.388 -17.805   4.625  1.00  0.00     0.034 A 
ENDROOT
BRANCH   1  14
HETATM   14  C   UNL     1      39.866 -13.662   2.146  1.00  0.00     0.262 C 
HETATM   15  N   UNL     1      40.380 -14.102   0.941  1.00  0.00    -0.322 N 
HETATM   16  H   UNL     1      41.181 -14.712   1.020  1.00  0.00     0.169 HD
HETATM   17  O   UNL     1      38.849 -13.010   2.332  1.00  0.00    -0.267 OA
BRANCH  15  18
HETATM   18  C   UNL     1      40.100 -13.624  -0.356  1.00  0.00     0.041 A 
HETATM   19  C   UNL     1      39.391 -14.381  -1.297  1.00  0.00     0.037 A 
HETATM   20  C   UNL     1      39.015 -13.835  -2.534  1.00  0.00    -0.060 A 
HETATM   21  C   UNL     1      38.190 -14.645  -3.490  1.00  0.00     0.048 C 
HETATM   22  C   UNL     1      39.356 -12.514  -2.829  1.00  0.00     0.007 A 
HETATM   23  C   UNL     1      40.084 -11.757  -1.914  1.00  0.00     0.009 A 
HETATM   24  C   UNL     1      40.467 -12.298  -0.676  1.00  0.00    -0.035 A 
HETATM   25  C   UNL     1      41.228 -11.419   0.282  1.00  0.00     0.050 C 
ENDBRANCH  15  18
ENDBRANCH   1  14
BRANCH   2  26
HETATM   26  N   UNL     1      40.576 -11.845   4.508  1.00  0.00    -0.383 N 
HETATM   27  H   UNL     1      40.087 -11.673   5.385  1.00  0.00     0.157 HD
HETATM   28  H   UNL     1      41.081 -11.028   4.155  1.00  0.00     0.157 HD
ENDBRANCH   2  26
BRANCH   3  29
HETATM   29  N   UNL     1      42.725 -12.798   5.949  1.00  0.00    -0.176 NA
HETATM   30  C   UNL     1      43.815 -12.175   5.663  1.00  0.00     0.153 C 
BRANCH  30  31
HETATM   31  C   UNL     1      44.328 -11.251   6.660  1.00  0.00     0.011 A 
HETATM   32  C   UNL     1      43.630 -10.186   7.314  1.00  0.00     0.004 A 
HETATM   33  C   UNL     1      44.502  -9.628   8.250  1.00  0.00     0.043 A 
HETATM   34  C   UNL     1      42.325  -9.657   7.217  1.00  0.00     0.014 A 
HETATM   35  C   UNL     1      44.138  -8.574   9.096  1.00  0.00     0.030 A 
HETATM   36  N   UNL     1      45.692 -10.309   8.155  1.00  0.00    -0.364 N 
HETATM   37  C   UNL     1      42.839  -8.070   8.980  1.00  0.00     0.002 A 
HETATM   38  C   UNL     1      41.946  -8.600   8.054  1.00  0.00     0.001 A 
HETATM   39  H   UNL     1      46.509 -10.122   8.722  1.00  0.00     0.165 HD
HETATM   40  C   UNL     1      45.600 -11.286   7.206  1.00  0.00     0.102 A 
ENDBRANCH  30  31
ENDBRANCH   3  29
TORSDOF 5
ENDMDL
MODEL 4
REMARK VINA RESULT:     -10.8      1.545      6.267
REMARK  5 active torsions:
REMARK  status: ('A' for Active; 'I' for Inactive)
REMARK    1  A    between atoms: C_4  and  N_5 
REMARK       I    between atoms: N_5  and  C_6 
REMARK    2  A    between atoms: C_6  and  C_7 
REMARK    3  A    between atoms: C_8  and  N_9 
REMARK    4  A    between atoms: N_10  and  N_11 
REMARK    5  A    between atoms: C_12  and  C_13 
ROOT
HETATM    1  C   UNL     1      41.345 -14.569   4.869  1.00  0.00     0.110 A 
HETATM    2  C   UNL     1      40.396 -14.462   3.872  1.00  0.00     0.143 A 
HETATM    3  N   UNL     1      40.132 -13.116   3.636  1.00  0.00    -0.197 N 
HETATM    4  C   UNL     1      40.844 -12.371   4.568  1.00  0.00     0.183 A 
HETATM    5  C   UNL     1      41.602 -13.260   5.328  1.00  0.00     0.125 A 
HETATM    6  N   UNL     1      42.453 -12.825   6.292  1.00  0.00    -0.242 NA
HETATM    7  C   UNL     1      42.456 -11.497   6.482  1.00  0.00     0.086 A 
HETATM    8  C   UNL     1      41.665 -10.608   5.707  1.00  0.00     0.088 A 
HETATM    9  N   UNL     1      40.848 -11.025   4.724  1.00  0.00    -0.225 NA
HETATM   10  C   UNL     1      43.275 -10.977   7.478  1.00  0.00     0.034 A 
HETATM   11  C   UNL     1      43.337  -9.606   7.731  1.00  0.00     0.002 A 
HETATM   12  C   UNL     1      42.568  -8.736   6.971  1.00  0.00     0.002 A 
HETATM   13  C   UNL     1      41.742  -9.245   5.969  1.00  0.00     0.034 A 
ENDROOT
BRANCH   1  14
HETATM   14  C   UNL     1      41.989 -15.814   5.227  1.00  0.00     0.262 C 
HETATM   15  N   UNL     1      42.866 -16.197   4.231  1.00  0.00    -0.322 N 
HETATM   16  H   UNL     1      43.064 -15.484   3.543  1.00  0.00     0.169 HD
HETATM   17  O   UNL     1      41.670 -16.442   6.226  1.00  0.00    -0.267 OA
BRANCH  15  18
HETATM   18  C   UNL     1      43.316 -17.495   3.913  1.00  0.00     0.041 A 
HETATM   19  C   UNL     1      43.680 -18.425   4.895  1.00  0.00     0.037 A 
HETATM   20  C   UNL     1      44.001 -19.748   4.558  1.00  0.00    -0.060 A 
HETATM   21  C   UNL     1      44.312 -20.741   5.640  1.00  0.00     0.048 C 
HETATM   22  C   UNL     1      43.957 -20.143   3.220  1.00  0.00     0.007 A 
HETATM   23  C   UNL     1      43.622 -19.223   2.230  1.00  0.00     0.009 A 
HETATM   24  C   UNL     1      43.304 -17.895   2.558  1.00  0.00    -0.035 A 
HETATM   25  C   UNL     1      42.922 -16.956   1.443  1.00  0.00     0.050 C 
ENDBRANCH  15  18
ENDBRANCH   1  14
BRANCH   2  26
HETATM   26  N   UNL     1      39.812 -15.422   3.107  1.00  0.00    -0.383 N 
HETATM   27  H   UNL     1      39.252 -16.157   3.536  1.00  0.00     0.157 HD
HETATM   28  H   UNL     1      39.489 -15.154   2.174  1.00  0.00     0.157 HD
ENDBRANCH   2  26
BRANCH   3  29
HETATM   29  N   UNL     1      39.326 -12.757   2.590  1.00  0.00    -0.176 NA
HETATM   30  C   UNL     1      39.888 -12.471   1.467  1.00  0.00     0.153 C 
BRANCH  30  31
HETATM   31  C   UNL     1      39.013 -12.228   0.334  1.00  0.00     0.011 A 
HETATM   32  C   UNL     1      38.826 -13.049  -0.824  1.00  0.00     0.004 A 
HETATM   33  C   UNL     1      37.828 -12.455  -1.600  1.00  0.00     0.043 A 
HETATM   34  C   UNL     1      39.393 -14.259  -1.277  1.00  0.00     0.014 A 
HETATM   35  C   UNL     1      37.366 -13.009  -2.799  1.00  0.00     0.030 A 
HETATM   36  N   UNL     1      37.439 -11.306  -0.953  1.00  0.00    -0.364 N 
HETATM   37  C   UNL     1      37.945 -14.209  -3.224  1.00  0.00     0.002 A 
HETATM   38  C   UNL     1      38.945 -14.825  -2.478  1.00  0.00     0.001 A 
HETATM   39  H   UNL     1      36.722 -10.675  -1.285  1.00  0.00     0.165 HD
HETATM   40  C   UNL     1      38.141 -11.160   0.209  1.00  0.00     0.102 A 
ENDBRANCH  30  31
ENDBRANCH   3  29
TORSDOF 5
ENDMDL
MODEL 5
REMARK VINA RESULT:     -10.8      1.706      2.291
REMARK  5 active torsions:
REMARK  status: ('A' for Active; 'I' for Inactive)
REMARK    1  A    between atoms: C_4  and  N_5 
REMARK       I    between atoms: N_5  and  C_6 
REMARK    2  A    between atoms: C_6  and  C_7 
REMARK    3  A    between atoms: C_8  and  N_9 
REMARK    4  A    between atoms: N_10  and  N_11 
REMARK    5  A    between atoms: C_12  and  C_13 
ROOT
HETATM    1  C   UNL     1      42.512 -11.131   4.891  1.00  0.00     0.110 A 
HETATM    2  C   UNL     1      42.007 -10.811   3.647  1.00  0.00     0.143 A 
HETATM    3  N   UNL     1      41.842 -11.979   2.908  1.00  0.00    -0.197 N 
HETATM    4  C   UNL     1      42.349 -13.034   3.656  1.00  0.00     0.183 A 
HETATM    5  C   UNL     1      42.757 -12.520   4.887  1.00  0.00     0.125 A 
HETATM    6  N   UNL     1      43.249 -13.322   5.865  1.00  0.00    -0.242 NA
HETATM    7  C   UNL     1      43.357 -14.617   5.529  1.00  0.00     0.086 A 
HETATM    8  C   UNL     1      42.950 -15.119   4.265  1.00  0.00     0.088 A 
HETATM    9  N   UNL     1      42.426 -14.340   3.303  1.00  0.00    -0.225 NA
HETATM   10  C   UNL     1      43.887 -15.497   6.465  1.00  0.00     0.034 A 
HETATM   11  C   UNL     1      44.026 -16.859   6.191  1.00  0.00     0.002 A 
HETATM   12  C   UNL     1      43.623 -17.352   4.959  1.00  0.00     0.002 A 
HETATM   13  C   UNL     1      43.090 -16.478   4.010  1.00  0.00     0.034 A 
ENDROOT
BRANCH   1  14
HETATM   14  C   UNL     1      42.621 -10.180   5.976  1.00  0.00     0.262 C 
HETATM   15  N   UNL     1      43.708 -10.490   6.771  1.00  0.00    -0.322 N 
HETATM   16  H   UNL     1      44.341 -11.170   6.376  1.00  0.00     0.169 HD
HETATM   17  O   UNL     1      41.773  -9.321   6.169  1.00  0.00    -0.267 OA
BRANCH  15  18
HETATM   18  C   UNL     1      43.913 -10.181   8.132  1.00  0.00     0.041 A 
HETATM   19  C   UNL     1      42.852  -9.938   9.014  1.00  0.00     0.037 A 
HETATM   20  C   UNL     1      43.076  -9.759  10.387  1.00  0.00    -0.060 A 
HETATM   21  C   UNL     1      41.913  -9.576  11.317  1.00  0.00     0.048 C 
HETATM   22  C   UNL     1      44.380  -9.824  10.881  1.00  0.00     0.007 A 
HETATM   23  C   UNL     1      45.447 -10.039  10.012  1.00  0.00     0.009 A 
HETATM   24  C   UNL     1      45.232 -10.215   8.636  1.00  0.00    -0.035 A 
HETATM   25  C   UNL     1      46.426 -10.472   7.753  1.00  0.00     0.050 C 
ENDBRANCH  15  18
ENDBRANCH   1  14
BRANCH   2  26
HETATM   26  N   UNL     1      41.607  -9.614   3.141  1.00  0.00    -0.383 N 
HETATM   27  H   UNL     1      42.200  -9.103   2.490  1.00  0.00     0.157 HD
HETATM   28  H   UNL     1      40.607  -9.480   2.974  1.00  0.00     0.157 HD
ENDBRANCH   2  26
BRANCH   3  29
HETATM   29  N   UNL     1      41.221 -11.928   1.690  1.00  0.00    -0.176 NA
HETATM   30  C   UNL     1      40.042 -12.437   1.594  1.00  0.00     0.153 C 
BRANCH  30  31
HETATM   31  C   UNL     1      39.343 -12.252   0.334  1.00  0.00     0.011 A 
HETATM   32  C   UNL     1      39.145 -13.210  -0.712  1.00  0.00     0.004 A 
HETATM   33  C   UNL     1      38.347 -12.607  -1.686  1.00  0.00     0.043 A 
HETATM   34  C   UNL     1      39.549 -14.547  -0.912  1.00  0.00     0.014 A 
HETATM   35  C   UNL     1      37.928 -13.270  -2.844  1.00  0.00     0.030 A 
HETATM   36  N   UNL     1      38.088 -11.324  -1.263  1.00  0.00    -0.364 N 
HETATM   37  C   UNL     1      38.341 -14.594  -3.017  1.00  0.00     0.002 A 
HETATM   38  C   UNL     1      39.141 -15.225  -2.069  1.00  0.00     0.001 A 
HETATM   39  H   UNL     1      37.525 -10.655  -1.770  1.00  0.00     0.165 HD
HETATM   40  C   UNL     1      38.679 -11.100  -0.052  1.00  0.00     0.102 A 
ENDBRANCH  30  31
ENDBRANCH   3  29
TORSDOF 5
ENDMDL
MODEL 6
REMARK VINA RESULT:     -10.7      3.129      6.828
REMARK  5 active torsions:
REMARK  status: ('A' for Active; 'I' for Inactive)
REMARK    1  A    between atoms: C_4  and  N_5 
REMARK       I    between atoms: N_5  and  C_6 
REMARK    2  A    between atoms: C_6  and  C_7 
REMARK    3  A    between atoms: C_8  and  N_9 
REMARK    4  A    between atoms: N_10  and  N_11 
REMARK    5  A    between atoms: C_12  and  C_13 
ROOT
HETATM    1  C   UNL     1      40.728 -10.919   6.572  1.00  0.00     0.110 A 
HETATM    2  C   UNL     1      40.534 -11.805   5.531  1.00  0.00     0.143 A 
HETATM    3  N   UNL     1      41.767 -12.308   5.126  1.00  0.00    -0.197 N 
HETATM    4  C   UNL     1      42.755 -11.653   5.849  1.00  0.00     0.183 A 
HETATM    5  C   UNL     1      42.121 -10.799   6.751  1.00  0.00     0.125 A 
HETATM    6  N   UNL     1      42.825 -10.058   7.643  1.00  0.00    -0.242 NA
HETATM    7  C   UNL     1      44.159 -10.176   7.544  1.00  0.00     0.086 A 
HETATM    8  C   UNL     1      44.786 -11.040   6.609  1.00  0.00     0.088 A 
HETATM    9  N   UNL     1      44.098 -11.807   5.747  1.00  0.00    -0.225 NA
HETATM   10  C   UNL     1      44.951  -9.419   8.400  1.00  0.00     0.034 A 
HETATM   11  C   UNL     1      46.344  -9.491   8.361  1.00  0.00     0.002 A 
HETATM   12  C   UNL     1      46.959 -10.340   7.451  1.00  0.00     0.002 A 
HETATM   13  C   UNL     1      46.174 -11.104   6.586  1.00  0.00     0.034 A 
ENDROOT
BRANCH   1  14
HETATM   14  C   UNL     1      39.647 -10.362   7.355  1.00  0.00     0.262 C 
HETATM   15  N   UNL     1      40.088  -9.252   8.050  1.00  0.00    -0.322 N 
HETATM   16  H   UNL     1      40.989  -8.901   7.759  1.00  0.00     0.169 HD
HETATM   17  O   UNL     1      38.558 -10.911   7.437  1.00  0.00    -0.267 OA
BRANCH  15  18
HETATM   18  C   UNL     1      39.578  -8.710   9.248  1.00  0.00     0.041 A 
HETATM   19  C   UNL     1      39.824  -9.291  10.498  1.00  0.00     0.037 A 
HETATM   20  C   UNL     1      39.413  -8.663  11.684  1.00  0.00    -0.060 A 
HETATM   21  C   UNL     1      39.758  -9.272  13.011  1.00  0.00     0.048 C 
HETATM   22  C   UNL     1      38.748  -7.438  11.613  1.00  0.00     0.007 A 
HETATM   23  C   UNL     1      38.473  -6.861  10.376  1.00  0.00     0.009 A 
HETATM   24  C   UNL     1      38.877  -7.485   9.185  1.00  0.00    -0.035 A 
HETATM   25  C   UNL     1      38.575  -6.796   7.879  1.00  0.00     0.050 C 
ENDBRANCH  15  18
ENDBRANCH   1  14
BRANCH   2  26
HETATM   26  N   UNL     1      39.384 -12.264   4.968  1.00  0.00    -0.383 N 
HETATM   27  H   UNL     1      38.831 -11.665   4.359  1.00  0.00     0.157 HD
HETATM   28  H   UNL     1      39.342 -13.254   4.715  1.00  0.00     0.157 HD
ENDBRANCH   2  26
BRANCH   3  29
HETATM   29  N   UNL     1      41.816 -13.313   4.198  1.00  0.00    -0.176 NA
HETATM   30  C   UNL     1      42.284 -14.454   4.571  1.00  0.00     0.153 C 
BRANCH  30  31
HETATM   31  C   UNL     1      42.201 -15.545   3.616  1.00  0.00     0.011 A 
HETATM   32  C   UNL     1      42.933 -16.776   3.621  1.00  0.00     0.004 A 
HETATM   33  C   UNL     1      42.459 -17.549   2.559  1.00  0.00     0.043 A 
HETATM   34  C   UNL     1      43.940 -17.320   4.447  1.00  0.00     0.014 A 
HETATM   35  C   UNL     1      42.935 -18.835   2.282  1.00  0.00     0.030 A 
HETATM   36  N   UNL     1      41.494 -16.810   1.917  1.00  0.00    -0.364 N 
HETATM   37  C   UNL     1      43.932 -19.350   3.116  1.00  0.00     0.002 A 
HETATM   38  C   UNL     1      44.430 -18.605   4.181  1.00  0.00     0.001 A 
HETATM   39  H   UNL     1      40.971 -17.125   1.110  1.00  0.00     0.165 HD
HETATM   40  C   UNL     1      41.328 -15.607   2.542  1.00  0.00     0.102 A 
ENDBRANCH  30  31
ENDBRANCH   3  29
TORSDOF 5
ENDMDL
MODEL 7
REMARK VINA RESULT:     -10.7      3.688      7.150
REMARK  5 active torsions:
REMARK  status: ('A' for Active; 'I' for Inactive)
REMARK    1  A    between atoms: C_4  and  N_5 
REMARK       I    between atoms: N_5  and  C_6 
REMARK    2  A    between atoms: C_6  and  C_7 
REMARK    3  A    between atoms: C_8  and  N_9 
REMARK    4  A    between atoms: N_10  and  N_11 
REMARK    5  A    between atoms: C_12  and  C_13 
ROOT
HETATM    1  C   UNL     1      40.983 -14.038   1.905  1.00  0.00     0.110 A 
HETATM    2  C   UNL     1      40.931 -13.570   0.607  1.00  0.00     0.143 A 
HETATM    3  N   UNL     1      41.129 -12.192   0.611  1.00  0.00    -0.197 N 
HETATM    4  C   UNL     1      41.201 -11.774   1.934  1.00  0.00     0.183 A 
HETATM    5  C   UNL     1      41.121 -12.909   2.740  1.00  0.00     0.125 A 
HETATM    6  N   UNL     1      41.220 -12.831   4.090  1.00  0.00    -0.242 NA
HETATM    7  C   UNL     1      41.343 -11.585   4.574  1.00  0.00     0.086 A 
HETATM    8  C   UNL     1      41.409 -10.439   3.738  1.00  0.00     0.088 A 
HETATM    9  N   UNL     1      41.350 -10.509   2.397  1.00  0.00    -0.225 NA
HETATM   10  C   UNL     1      41.413 -11.418   5.952  1.00  0.00     0.034 A 
HETATM   11  C   UNL     1      41.548 -10.154   6.529  1.00  0.00     0.002 A 
HETATM   12  C   UNL     1      41.618  -9.035   5.713  1.00  0.00     0.002 A 
HETATM   13  C   UNL     1      41.547  -9.189   4.328  1.00  0.00     0.034 A 
ENDROOT
BRANCH   1  14
HETATM   14  C   UNL     1      41.009 -15.444   2.244  1.00  0.00     0.262 C 
HETATM   15  N   UNL     1      41.994 -15.686   3.183  1.00  0.00    -0.322 N 
HETATM   16  H   UNL     1      42.381 -14.859   3.615  1.00  0.00     0.169 HD
HETATM   17  O   UNL     1      40.313 -16.262   1.662  1.00  0.00    -0.267 OA
BRANCH  15  18
HETATM   18  C   UNL     1      42.689 -16.888   3.432  1.00  0.00     0.041 A 
HETATM   19  C   UNL     1      42.688 -17.956   2.526  1.00  0.00     0.037 A 
HETATM   20  C   UNL     1      43.490 -19.088   2.737  1.00  0.00    -0.060 A 
HETATM   21  C   UNL     1      43.525 -20.181   1.710  1.00  0.00     0.048 C 
HETATM   22  C   UNL     1      44.300 -19.149   3.872  1.00  0.00     0.007 A 
HETATM   23  C   UNL     1      44.292 -18.106   4.795  1.00  0.00     0.009 A 
HETATM   24  C   UNL     1      43.489 -16.972   4.593  1.00  0.00    -0.035 A 
HETATM   25  C   UNL     1      43.546 -15.866   5.614  1.00  0.00     0.050 C 
ENDBRANCH  15  18
ENDBRANCH   1  14
BRANCH   2  26
HETATM   26  N   UNL     1      40.808 -14.244  -0.567  1.00  0.00    -0.383 N 
HETATM   27  H   UNL     1      41.371 -15.074  -0.749  1.00  0.00     0.157 HD
HETATM   28  H   UNL     1      39.884 -14.275  -1.003  1.00  0.00     0.157 HD
ENDBRANCH   2  26
BRANCH   3  29
HETATM   29  N   UNL     1      41.260 -11.524  -0.576  1.00  0.00    -0.176 NA
HETATM   30  C   UNL     1      40.348 -10.671  -0.890  1.00  0.00     0.153 C 
BRANCH  30  31
HETATM   31  C   UNL     1      40.572  -9.872  -2.082  1.00  0.00     0.011 A 
HETATM   32  C   UNL     1      41.524  -8.819  -2.269  1.00  0.00     0.004 A 
HETATM   33  C   UNL     1      41.432  -8.404  -3.599  1.00  0.00     0.043 A 
HETATM   34  C   UNL     1      42.478  -8.194  -1.438  1.00  0.00     0.014 A 
HETATM   35  C   UNL     1      42.245  -7.402  -4.141  1.00  0.00     0.030 A 
HETATM   36  N   UNL     1      40.447  -9.157  -4.194  1.00  0.00    -0.364 N 
HETATM   37  C   UNL     1      43.181  -6.800  -3.297  1.00  0.00     0.002 A 
HETATM   38  C   UNL     1      43.296  -7.186  -1.964  1.00  0.00     0.001 A 
HETATM   39  H   UNL     1      40.168  -9.076  -5.162  1.00  0.00     0.165 HD
HETATM   40  C   UNL     1      39.925 -10.043  -3.295  1.00  0.00     0.102 A 
ENDBRANCH  30  31
ENDBRANCH   3  29
TORSDOF 5
ENDMDL
MODEL 8
REMARK VINA RESULT:     -10.6      2.368      9.001
REMARK  5 active torsions:
REMARK  status: ('A' for Active; 'I' for Inactive)
REMARK    1  A    between atoms: C_4  and  N_5 
REMARK       I    between atoms: N_5  and  C_6 
REMARK    2  A    between atoms: C_6  and  C_7 
REMARK    3  A    between atoms: C_8  and  N_9 
REMARK    4  A    between atoms: N_10  and  N_11 
REMARK    5  A    between atoms: C_12  and  C_13 
ROOT
HETATM    1  C   UNL     1      41.773 -11.976   2.060  1.00  0.00     0.110 A 
HETATM    2  C   UNL     1      42.347 -13.227   2.168  1.00  0.00     0.143 A 
HETATM    3  N   UNL     1      42.771 -13.421   3.479  1.00  0.00    -0.197 N 
HETATM    4  C   UNL     1      42.558 -12.240   4.178  1.00  0.00     0.183 A 
HETATM    5  C   UNL     1      41.933 -11.344   3.310  1.00  0.00     0.125 A 
HETATM    6  N   UNL     1      41.542 -10.112   3.722  1.00  0.00    -0.242 NA
HETATM    7  C   UNL     1      41.853  -9.818   4.993  1.00  0.00     0.086 A 
HETATM    8  C   UNL     1      42.503 -10.738   5.857  1.00  0.00     0.088 A 
HETATM    9  N   UNL     1      42.860 -11.975   5.472  1.00  0.00    -0.225 NA
HETATM   10  C   UNL     1      41.519  -8.559   5.478  1.00  0.00     0.034 A 
HETATM   11  C   UNL     1      41.805  -8.182   6.792  1.00  0.00     0.002 A 
HETATM   12  C   UNL     1      42.434  -9.082   7.639  1.00  0.00     0.002 A 
HETATM   13  C   UNL     1      42.777 -10.349   7.163  1.00  0.00     0.034 A 
ENDROOT
BRANCH   1  14
HETATM   14  C   UNL     1      41.056 -11.527   0.886  1.00  0.00     0.262 C 
HETATM   15  N   UNL     1      39.855 -12.203   0.776  1.00  0.00    -0.322 N 
HETATM   16  H   UNL     1      39.587 -12.725   1.599  1.00  0.00     0.169 HD
HETATM   17  O   UNL     1      41.550 -10.746   0.086  1.00  0.00    -0.267 OA
BRANCH  15  18
HETATM   18  C   UNL     1      39.098 -12.458  -0.385  1.00  0.00     0.041 A 
HETATM   19  C   UNL     1      39.275 -13.613  -1.157  1.00  0.00     0.037 A 
HETATM   20  C   UNL     1      38.424 -13.905  -2.234  1.00  0.00    -0.060 A 
HETATM   21  C   UNL     1      38.591 -15.188  -2.994  1.00  0.00     0.048 C 
HETATM   22  C   UNL     1      37.383 -13.026  -2.539  1.00  0.00     0.007 A 
HETATM   23  C   UNL     1      37.210 -11.860  -1.797  1.00  0.00     0.009 A 
HETATM   24  C   UNL     1      38.061 -11.559  -0.721  1.00  0.00    -0.035 A 
HETATM   25  C   UNL     1      37.804 -10.297   0.061  1.00  0.00     0.050 C 
ENDBRANCH  15  18
ENDBRANCH   1  14
BRANCH   2  26
HETATM   26  N   UNL     1      42.456 -14.227   1.254  1.00  0.00    -0.383 N 
HETATM   27  H   UNL     1      43.371 -14.565   0.962  1.00  0.00     0.157 HD
HETATM   28  H   UNL     1      41.735 -14.952   1.256  1.00  0.00     0.157 HD
ENDBRANCH   2  26
BRANCH   3  29
HETATM   29  N   UNL     1      43.246 -14.646   3.862  1.00  0.00    -0.176 NA
HETATM   30  C   UNL     1      42.555 -15.320   4.715  1.00  0.00     0.153 C 
BRANCH  30  31
HETATM   31  C   UNL     1      43.000 -16.672   5.005  1.00  0.00     0.011 A 
HETATM   32  C   UNL     1      43.183 -17.753   4.085  1.00  0.00     0.004 A 
HETATM   33  C   UNL     1      43.701 -18.832   4.805  1.00  0.00     0.043 A 
HETATM   34  C   UNL     1      42.981 -17.912   2.697  1.00  0.00     0.014 A 
HETATM   35  C   UNL     1      44.032 -20.055   4.212  1.00  0.00     0.030 A 
HETATM   36  N   UNL     1      43.808 -18.431   6.116  1.00  0.00    -0.364 N 
HETATM   37  C   UNL     1      43.823 -20.184   2.836  1.00  0.00     0.002 A 
HETATM   38  C   UNL     1      43.303 -19.132   2.088  1.00  0.00     0.001 A 
HETATM   39  H   UNL     1      44.162 -19.010   6.866  1.00  0.00     0.165 HD
HETATM   40  C   UNL     1      43.392 -17.138   6.249  1.00  0.00     0.102 A 
ENDBRANCH  30  31
ENDBRANCH   3  29
TORSDOF 5
ENDMDL
MODEL 9
REMARK VINA RESULT:     -10.5      2.677      7.872
REMARK  5 active torsions:
REMARK  status: ('A' for Active; 'I' for Inactive)
REMARK    1  A    between atoms: C_4  and  N_5 
REMARK       I    between atoms: N_5  and  C_6 
REMARK    2  A    between atoms: C_6  and  C_7 
REMARK    3  A    between atoms: C_8  and  N_9 
REMARK    4  A    between atoms: N_10  and  N_11 
REMARK    5  A    between atoms: C_12  and  C_13 
ROOT
HETATM    1  C   UNL     1      41.925 -13.667   1.493  1.00  0.00     0.110 A 
HETATM    2  C   UNL     1      41.833 -12.591   2.352  1.00  0.00     0.143 A 
HETATM    3  N   UNL     1      40.700 -11.849   2.034  1.00  0.00    -0.197 N 
HETATM    4  C   UNL     1      40.131 -12.404   0.894  1.00  0.00     0.183 A 
HETATM    5  C   UNL     1      40.878 -13.533   0.558  1.00  0.00     0.125 A 
HETATM    6  N   UNL     1      40.533 -14.328  -0.486  1.00  0.00    -0.242 NA
HETATM    7  C   UNL     1      39.467 -13.909  -1.184  1.00  0.00     0.086 A 
HETATM    8  C   UNL     1      38.728 -12.748  -0.836  1.00  0.00     0.088 A 
HETATM    9  N   UNL     1      39.038 -11.974   0.219  1.00  0.00    -0.225 NA
HETATM   10  C   UNL     1      39.073 -14.650  -2.293  1.00  0.00     0.034 A 
HETATM   11  C   UNL     1      37.971 -14.280  -3.065  1.00  0.00     0.002 A 
HETATM   12  C   UNL     1      37.245 -13.149  -2.722  1.00  0.00     0.002 A 
HETATM   13  C   UNL     1      37.631 -12.396  -1.613  1.00  0.00     0.034 A 
ENDROOT
BRANCH   1  14
HETATM   14  C   UNL     1      42.873 -14.746   1.666  1.00  0.00     0.262 C 
HETATM   15  N   UNL     1      42.213 -15.902   2.039  1.00  0.00    -0.322 N 
HETATM   16  H   UNL     1      41.209 -15.867   1.937  1.00  0.00     0.169 HD
HETATM   17  O   UNL     1      44.080 -14.565   1.591  1.00  0.00    -0.267 OA
BRANCH  15  18
HETATM   18  C   UNL     1      42.718 -17.004   2.760  1.00  0.00     0.041 A 
HETATM   19  C   UNL     1      42.979 -18.240   2.156  1.00  0.00     0.037 A 
HETATM   20  C   UNL     1      43.600 -19.278   2.866  1.00  0.00    -0.060 A 
HETATM   21  C   UNL     1      43.935 -20.565   2.169  1.00  0.00     0.048 C 
HETATM   22  C   UNL     1      43.961 -19.074   4.199  1.00  0.00     0.007 A 
HETATM   23  C   UNL     1      43.684 -17.859   4.821  1.00  0.00     0.009 A 
HETATM   24  C   UNL     1      43.059 -16.816   4.118  1.00  0.00    -0.035 A 
HETATM   25  C   UNL     1      42.813 -15.517   4.839  1.00  0.00     0.050 C 
ENDBRANCH  15  18
ENDBRANCH   1  14
BRANCH   2  26
HETATM   26  N   UNL     1      42.597 -12.254   3.426  1.00  0.00    -0.383 N 
HETATM   27  H   UNL     1      42.911 -12.967   4.081  1.00  0.00     0.157 HD
HETATM   28  H   UNL     1      43.258 -11.482   3.314  1.00  0.00     0.157 HD
ENDBRANCH   2  26
BRANCH   3  29
HETATM   29  N   UNL     1      40.321 -10.811   2.841  1.00  0.00    -0.176 NA
HETATM   30  C   UNL     1      39.369 -11.018   3.682  1.00  0.00     0.153 C 
BRANCH  30  31
HETATM   31  C   UNL     1      39.074  -9.951   4.623  1.00  0.00     0.011 A 
HETATM   32  C   UNL     1      39.779  -9.619   5.824  1.00  0.00     0.004 A 
HETATM   33  C   UNL     1      39.184  -8.472   6.353  1.00  0.00     0.043 A 
HETATM   34  C   UNL     1      40.887 -10.171   6.501  1.00  0.00     0.014 A 
HETATM   35  C   UNL     1      39.642  -7.847   7.518  1.00  0.00     0.030 A 
HETATM   36  N   UNL     1      38.144  -8.132   5.521  1.00  0.00    -0.364 N 
HETATM   37  C   UNL     1      40.741  -8.414   8.169  1.00  0.00     0.002 A 
HETATM   38  C   UNL     1      41.355  -9.559   7.672  1.00  0.00     0.001 A 
HETATM   39  H   UNL     1      37.538  -7.334   5.657  1.00  0.00     0.165 HD
HETATM   40  C   UNL     1      38.068  -9.010   4.479  1.00  0.00     0.102 A 
ENDBRANCH  30  31
ENDBRANCH   3  29
TORSDOF 5
ENDMDL
MODEL 10
REMARK VINA RESULT:     -10.5      2.278      8.692
REMARK  5 active torsions:
REMARK  status: ('A' for Active; 'I' for Inactive)
REMARK    1  A    between atoms: C_4  and  N_5 
REMARK       I    between atoms: N_5  and  C_6 
REMARK    2  A    between atoms: C_6  and  C_7 
REMARK    3  A    between atoms: C_8  and  N_9 
REMARK    4  A    between atoms: N_10  and  N_11 
REMARK    5  A    between atoms: C_12  and  C_13 
ROOT
HETATM    1  C   UNL     1      42.670 -14.538   4.708  1.00  0.00     0.110 A 
HETATM    2  C   UNL     1      43.331 -13.707   5.591  1.00  0.00     0.143 A 
HETATM    3  N   UNL     1      43.298 -12.405   5.102  1.00  0.00    -0.197 N 
HETATM    4  C   UNL     1      42.704 -12.433   3.847  1.00  0.00     0.183 A 
HETATM    5  C   UNL     1      42.304 -13.746   3.600  1.00  0.00     0.125 A 
HETATM    6  N   UNL     1      41.636 -14.085   2.469  1.00  0.00    -0.242 NA
HETATM    7  C   UNL     1      41.449 -13.077   1.603  1.00  0.00     0.086 A 
HETATM    8  C   UNL     1      41.876 -11.749   1.866  1.00  0.00     0.088 A 
HETATM    9  N   UNL     1      42.504 -11.394   3.000  1.00  0.00    -0.225 NA
HETATM   10  C   UNL     1      40.804 -13.352   0.402  1.00  0.00     0.034 A 
HETATM   11  C   UNL     1      40.568 -12.355  -0.546  1.00  0.00     0.002 A 
HETATM   12  C   UNL     1      40.980 -11.056  -0.287  1.00  0.00     0.002 A 
HETATM   13  C   UNL     1      41.629 -10.767   0.914  1.00  0.00     0.034 A 
ENDROOT
BRANCH   1  14
HETATM   14  C   UNL     1      42.349 -15.918   5.001  1.00  0.00     0.262 C 
HETATM   15  N   UNL     1      43.472 -16.709   4.849  1.00  0.00    -0.322 N 
HETATM   16  H   UNL     1      44.340 -16.199   4.764  1.00  0.00     0.169 HD
HETATM   17  O   UNL     1      41.204 -16.280   5.228  1.00  0.00    -0.267 OA
BRANCH  15  18
HETATM   18  C   UNL     1      43.539 -18.086   4.552  1.00  0.00     0.041 A 
HETATM   19  C   UNL     1      43.571 -18.569   3.238  1.00  0.00     0.037 A 
HETATM   20  C   UNL     1      43.766 -19.932   2.970  1.00  0.00    -0.060 A 
HETATM   21  C   UNL     1      43.873 -20.408   1.551  1.00  0.00     0.048 C 
HETATM   22  C   UNL     1      43.929 -20.821   4.034  1.00  0.00     0.007 A 
HETATM   23  C   UNL     1      43.873 -20.359   5.347  1.00  0.00     0.009 A 
HETATM   24  C   UNL     1      43.674 -18.997   5.623  1.00  0.00    -0.035 A 
HETATM   25  C   UNL     1      43.651 -18.556   7.064  1.00  0.00     0.050 C 
ENDBRANCH  15  18
ENDBRANCH   1  14
BRANCH   2  26
HETATM   26  N   UNL     1      43.879 -13.973   6.807  1.00  0.00    -0.383 N 
HETATM   27  H   UNL     1      44.412 -14.827   6.958  1.00  0.00     0.157 HD
HETATM   28  H   UNL     1      44.212 -13.180   7.361  1.00  0.00     0.157 HD
ENDBRANCH   2  26
BRANCH   3  29
HETATM   29  N   UNL     1      43.769 -11.379   5.876  1.00  0.00    -0.176 NA
HETATM   30  C   UNL     1      42.908 -10.639   6.483  1.00  0.00     0.153 C 
BRANCH  30  31
HETATM   31  C   UNL     1      43.426  -9.645   7.408  1.00  0.00     0.011 A 
HETATM   32  C   UNL     1      42.822  -8.406   7.795  1.00  0.00     0.004 A 
HETATM   33  C   UNL     1      43.643  -7.827   8.766  1.00  0.00     0.043 A 
HETATM   34  C   UNL     1      41.638  -7.730   7.432  1.00  0.00     0.014 A 
HETATM   35  C   UNL     1      43.340  -6.614   9.393  1.00  0.00     0.030 A 
HETATM   36  N   UNL     1      44.716  -8.668   8.945  1.00  0.00    -0.364 N 
HETATM   37  C   UNL     1      42.161  -5.966   9.014  1.00  0.00     0.002 A 
HETATM   38  C   UNL     1      41.322  -6.512   8.047  1.00  0.00     0.001 A 
HETATM   39  H   UNL     1      45.472  -8.503   9.597  1.00  0.00     0.165 HD
HETATM   40  C   UNL     1      44.596  -9.762   8.138  1.00  0.00     0.102 A 
ENDBRANCH  30  31
ENDBRANCH   3  29
TORSDOF 5
ENDMDL
