MODEL 1
REMARK VINA RESULT:      -8.2      0.000      0.000
REMARK  6 active torsions:
REMARK  status: ('A' for Active; 'I' for Inactive)
REMARK    1  A    between atoms: N_2  and  C_5 
REMARK    2  A    between atoms: C_5  and  C_6 
REMARK    3  A    between atoms: C_6  and  N_7 
REMARK    4  A    between atoms: C_6  and  C_23 
REMARK       I    between atoms: N_7  and  C_8 
REMARK    5  A    between atoms: C_8  and  C_10 
REMARK    6  A    between atoms: C_13  and  C_17 
ROOT
HETATM    1  N   UNL     1      42.665 -16.154   3.910  1.00  0.00    -0.347 N 
HETATM    2  C   UNL     1      41.444 -15.525   3.821  1.00  0.00     0.252 C 
HETATM    3  O   UNL     1      40.725 -15.370   4.806  1.00  0.00    -0.268 OA
HETATM    4  H   UNL     1      43.073 -16.474   3.036  1.00  0.00     0.163 HD
ENDROOT
BRANCH   2   5
HETATM    5  C   UNL     1      41.021 -15.038   2.482  1.00  0.00     0.032 A 
HETATM    6  C   UNL     1      40.303 -15.908   1.659  1.00  0.00     0.018 A 
HETATM    7  C   UNL     1      39.859 -15.478   0.408  1.00  0.00     0.014 A 
HETATM    8  C   UNL     1      40.118 -14.172  -0.039  1.00  0.00    -0.017 A 
HETATM    9  C   UNL     1      40.849 -13.289   0.783  1.00  0.00    -0.050 A 
HETATM   10  C   UNL     1      41.158 -11.872   0.372  1.00  0.00     0.049 C 
HETATM   11  C   UNL     1      41.283 -13.732   2.049  1.00  0.00     0.024 A 
BRANCH   8  12
HETATM   12  C   UNL     1      39.592 -13.769  -1.330  1.00  0.00     0.011 A 
HETATM   13  C   UNL     1      40.136 -13.875  -2.630  1.00  0.00     0.152 A 
HETATM   14  N   UNL     1      39.330 -13.368  -3.565  1.00  0.00    -0.187 NA
HETATM   15  N   UNL     1      38.273 -12.923  -2.867  1.00  0.00    -0.289 N 
HETATM   16  H   UNL     1      37.512 -12.483  -3.374  1.00  0.00     0.188 HD
HETATM   17  C   UNL     1      38.383 -13.135  -1.521  1.00  0.00     0.123 A 
ENDBRANCH   8  12
ENDBRANCH   2   5
BRANCH   1  18
HETATM   18  C   UNL     1      43.108 -16.863   5.116  1.00  0.00     0.143 C 
BRANCH  18  19
HETATM   19  C   UNL     1      44.326 -16.207   5.847  1.00  0.00     0.263 C 
BRANCH  19  20
HETATM   20  N   UNL     1      43.927 -15.229   6.940  1.00  0.00    -0.076 N 
HETATM   21  C   UNL     1      43.702 -13.831   6.453  1.00  0.00     0.269 C 
HETATM   22  H   UNL     1      44.746 -15.170   7.585  1.00  0.00     0.279 HD
HETATM   23  C   UNL     1      42.787 -15.727   7.772  1.00  0.00     0.269 C 
ENDBRANCH  19  20
ENDBRANCH  18  19
BRANCH  18  24
HETATM   24  C   UNL     1      43.462 -18.295   4.752  1.00  0.00    -0.034 A 
HETATM   25  C   UNL     1      43.544 -18.676   3.403  1.00  0.00     0.009 A 
HETATM   26  C   UNL     1      43.848 -19.994   3.057  1.00  0.00     0.001 A 
HETATM   27  C   UNL     1      44.076 -20.944   4.050  1.00  0.00     0.000 A 
HETATM   28  C   UNL     1      44.005 -20.579   5.392  1.00  0.00     0.001 A 
HETATM   29  C   UNL     1      43.701 -19.262   5.743  1.00  0.00     0.009 A 
ENDBRANCH  18  24
ENDBRANCH   1  18
TORSDOF 6
ENDMDL
MODEL 2
REMARK VINA RESULT:      -7.8      1.217      1.899
REMARK  6 active torsions:
REMARK  status: ('A' for Active; 'I' for Inactive)
REMARK    1  A    between atoms: N_2  and  C_5 
REMARK    2  A    between atoms: C_5  and  C_6 
REMARK    3  A    between atoms: C_6  and  N_7 
REMARK    4  A    between atoms: C_6  and  C_23 
REMARK       I    between atoms: N_7  and  C_8 
REMARK    5  A    between atoms: C_8  and  C_10 
REMARK    6  A    between atoms: C_13  and  C_17 
ROOT
HETATM    1  N   UNL     1      42.627 -15.721   3.513  1.00  0.00    -0.347 N 
HETATM    2  C   UNL     1      41.448 -15.010   3.486  1.00  0.00     0.252 C 
HETATM    3  O   UNL     1      40.690 -14.982   4.453  1.00  0.00    -0.268 OA
HETATM    4  H   UNL     1      43.060 -15.911   2.613  1.00  0.00     0.163 HD
ENDROOT
BRANCH   2   5
HETATM    5  C   UNL     1      41.122 -14.273   2.237  1.00  0.00     0.032 A 
HETATM    6  C   UNL     1      41.540 -12.946   2.123  1.00  0.00     0.018 A 
HETATM    7  C   UNL     1      41.283 -12.231   0.953  1.00  0.00     0.014 A 
HETATM    8  C   UNL     1      40.611 -12.830  -0.125  1.00  0.00    -0.017 A 
HETATM    9  C   UNL     1      40.178 -14.168  -0.015  1.00  0.00    -0.050 A 
HETATM   10  C   UNL     1      39.456 -14.877  -1.132  1.00  0.00     0.049 C 
HETATM   11  C   UNL     1      40.453 -14.884   1.168  1.00  0.00     0.024 A 
BRANCH   8  12
HETATM   12  C   UNL     1      40.412 -12.050  -1.331  1.00  0.00     0.011 A 
HETATM   13  C   UNL     1      39.306 -11.292  -1.777  1.00  0.00     0.152 A 
HETATM   14  N   UNL     1      39.520 -10.724  -2.966  1.00  0.00    -0.187 NA
HETATM   15  N   UNL     1      40.758 -11.127  -3.293  1.00  0.00    -0.289 N 
HETATM   16  H   UNL     1      41.146 -10.818  -4.178  1.00  0.00     0.188 HD
HETATM   17  C   UNL     1      41.335 -11.929  -2.348  1.00  0.00     0.123 A 
ENDBRANCH   8  12
ENDBRANCH   2   5
BRANCH   1  18
HETATM   18  C   UNL     1      42.968 -16.655   4.592  1.00  0.00     0.143 C 
BRANCH  18  19
HETATM   19  C   UNL     1      44.161 -16.198   5.496  1.00  0.00     0.263 C 
BRANCH  19  20
HETATM   20  N   UNL     1      43.729 -15.433   6.737  1.00  0.00    -0.076 N 
HETATM   21  C   UNL     1      43.655 -13.951   6.544  1.00  0.00     0.269 C 
HETATM   22  H   UNL     1      44.482 -15.585   7.444  1.00  0.00     0.279 HD
HETATM   23  C   UNL     1      42.480 -15.986   7.349  1.00  0.00     0.269 C 
ENDBRANCH  19  20
ENDBRANCH  18  19
BRANCH  18  24
HETATM   24  C   UNL     1      43.292 -18.013   3.994  1.00  0.00    -0.034 A 
HETATM   25  C   UNL     1      43.006 -18.272   2.644  1.00  0.00     0.009 A 
HETATM   26  C   UNL     1      43.281 -19.523   2.089  1.00  0.00     0.001 A 
HETATM   27  C   UNL     1      43.845 -20.527   2.872  1.00  0.00     0.000 A 
HETATM   28  C   UNL     1      44.139 -20.283   4.211  1.00  0.00     0.001 A 
HETATM   29  C   UNL     1      43.866 -19.034   4.770  1.00  0.00     0.009 A 
ENDBRANCH  18  24
ENDBRANCH   1  18
TORSDOF 6
ENDMDL
MODEL 3
REMARK VINA RESULT:      -7.7      3.283      7.701
REMARK  6 active torsions:
REMARK  status: ('A' for Active; 'I' for Inactive)
REMARK    1  A    between atoms: N_2  and  C_5 
REMARK    2  A    between atoms: C_5  and  C_6 
REMARK    3  A    between atoms: C_6  and  N_7 
REMARK    4  A    between atoms: C_6  and  C_23 
REMARK       I    between atoms: N_7  and  C_8 
REMARK    5  A    between atoms: C_8  and  C_10 
REMARK    6  A    between atoms: C_13  and  C_17 
ROOT
HETATM    1  N   UNL     1      42.039 -14.441   4.134  1.00  0.00    -0.347 N 
HETATM    2  C   UNL     1      42.551 -13.171   3.997  1.00  0.00     0.252 C 
HETATM    3  O   UNL     1      42.694 -12.648   2.895  1.00  0.00    -0.268 OA
HETATM    4  H   UNL     1      42.195 -14.897   5.028  1.00  0.00     0.163 HD
ENDROOT
BRANCH   2   5
HETATM    5  C   UNL     1      42.931 -12.450   5.240  1.00  0.00     0.032 A 
HETATM    6  C   UNL     1      43.832 -13.063   6.112  1.00  0.00     0.018 A 
HETATM    7  C   UNL     1      44.239 -12.405   7.273  1.00  0.00     0.014 A 
HETATM    8  C   UNL     1      43.760 -11.121   7.579  1.00  0.00    -0.017 A 
HETATM    9  C   UNL     1      42.843 -10.496   6.707  1.00  0.00    -0.050 A 
HETATM   10  C   UNL     1      42.292  -9.118   6.969  1.00  0.00     0.049 C 
HETATM   11  C   UNL     1      42.447 -11.168   5.533  1.00  0.00     0.024 A 
BRANCH   8  12
HETATM   12  C   UNL     1      44.254 -10.469   8.777  1.00  0.00     0.011 A 
HETATM   13  C   UNL     1      43.691 -10.343  10.067  1.00  0.00     0.152 A 
HETATM   14  N   UNL     1      44.469  -9.648  10.899  1.00  0.00    -0.187 NA
HETATM   15  N   UNL     1      45.527  -9.315  10.144  1.00  0.00    -0.289 N 
HETATM   16  H   UNL     1      46.268  -8.767  10.568  1.00  0.00     0.188 HD
HETATM   17  C   UNL     1      45.445  -9.778   8.860  1.00  0.00     0.123 A 
ENDBRANCH   8  12
ENDBRANCH   2   5
BRANCH   1  18
HETATM   18  C   UNL     1      41.823 -15.339   2.993  1.00  0.00     0.143 C 
BRANCH  18  19
HETATM   19  C   UNL     1      40.327 -15.717   2.735  1.00  0.00     0.263 C 
BRANCH  19  20
HETATM   20  N   UNL     1      39.619 -14.783   1.765  1.00  0.00    -0.076 N 
HETATM   21  C   UNL     1      39.232 -13.466   2.361  1.00  0.00     0.269 C 
HETATM   22  H   UNL     1      38.720 -15.253   1.520  1.00  0.00     0.279 HD
HETATM   23  C   UNL     1      40.361 -14.623   0.475  1.00  0.00     0.269 C 
ENDBRANCH  19  20
ENDBRANCH  18  19
BRANCH  18  24
HETATM   24  C   UNL     1      42.628 -16.611   3.198  1.00  0.00    -0.034 A 
HETATM   25  C   UNL     1      42.584 -17.631   2.235  1.00  0.00     0.009 A 
HETATM   26  C   UNL     1      43.303 -18.813   2.422  1.00  0.00     0.001 A 
HETATM   27  C   UNL     1      44.075 -18.989   3.569  1.00  0.00     0.000 A 
HETATM   28  C   UNL     1      44.132 -17.983   4.530  1.00  0.00     0.001 A 
HETATM   29  C   UNL     1      43.415 -16.799   4.347  1.00  0.00     0.009 A 
ENDBRANCH  18  24
ENDBRANCH   1  18
TORSDOF 6
ENDMDL
MODEL 4
REMARK VINA RESULT:      -7.6      3.696      8.160
REMARK  6 active torsions:
REMARK  status: ('A' for Active; 'I' for Inactive)
REMARK    1  A    between atoms: N_2  and  C_5 
REMARK    2  A    between atoms: C_5  and  C_6 
REMARK    3  A    between atoms: C_6  and  N_7 
REMARK    4  A    between atoms: C_6  and  C_23 
REMARK       I    between atoms: N_7  and  C_8 
REMARK    5  A    between atoms: C_8  and  C_10 
REMARK    6  A    between atoms: C_13  and  C_17 
ROOT
HETATM    1  N   UNL     1      42.663 -13.489   3.876  1.00  0.00    -0.347 N 
HETATM    2  C   UNL     1      43.282 -12.260   3.899  1.00  0.00     0.252 C 
HETATM    3  O   UNL     1      43.691 -11.725   2.871  1.00  0.00    -0.268 OA
HETATM    4  H   UNL     1      42.593 -13.976   4.765  1.00  0.00     0.163 HD
ENDROOT
BRANCH   2   5
HETATM    5  C   UNL     1      43.442 -11.599   5.221  1.00  0.00     0.032 A 
HETATM    6  C   UNL     1      42.294 -11.163   5.885  1.00  0.00     0.018 A 
HETATM    7  C   UNL     1      42.399 -10.569   7.143  1.00  0.00     0.014 A 
HETATM    8  C   UNL     1      43.650 -10.407   7.762  1.00  0.00    -0.017 A 
HETATM    9  C   UNL     1      44.815 -10.838   7.094  1.00  0.00    -0.050 A 
HETATM   10  C   UNL     1      46.189 -10.701   7.699  1.00  0.00     0.049 C 
HETATM   11  C   UNL     1      44.695 -11.446   5.828  1.00  0.00     0.024 A 
BRANCH   8  12
HETATM   12  C   UNL     1      43.691  -9.822   9.089  1.00  0.00     0.011 A 
HETATM   13  C   UNL     1      43.780 -10.420  10.366  1.00  0.00     0.152 A 
HETATM   14  N   UNL     1      43.779  -9.522  11.353  1.00  0.00    -0.187 NA
HETATM   15  N   UNL     1      43.675  -8.346  10.714  1.00  0.00    -0.289 N 
HETATM   16  H   UNL     1      43.649  -7.497  11.269  1.00  0.00     0.188 HD
HETATM   17  C   UNL     1      43.613  -8.471   9.354  1.00  0.00     0.123 A 
ENDBRANCH   8  12
ENDBRANCH   2   5
BRANCH   1  18
HETATM   18  C   UNL     1      42.628 -14.340   2.681  1.00  0.00     0.143 C 
BRANCH  18  19
HETATM   19  C   UNL     1      41.236 -14.408   1.969  1.00  0.00     0.263 C 
BRANCH  19  20
HETATM   20  N   UNL     1      41.234 -13.799   0.575  1.00  0.00    -0.076 N 
HETATM   21  C   UNL     1      40.224 -14.403  -0.351  1.00  0.00     0.269 C 
HETATM   22  H   UNL     1      42.163 -14.027   0.161  1.00  0.00     0.279 HD
HETATM   23  C   UNL     1      41.154 -12.304   0.599  1.00  0.00     0.269 C 
ENDBRANCH  19  20
ENDBRANCH  18  19
BRANCH  18  24
HETATM   24  C   UNL     1      43.061 -15.747   3.057  1.00  0.00    -0.034 A 
HETATM   25  C   UNL     1      43.417 -16.042   4.382  1.00  0.00     0.009 A 
HETATM   26  C   UNL     1      43.835 -17.326   4.735  1.00  0.00     0.001 A 
HETATM   27  C   UNL     1      43.900 -18.330   3.771  1.00  0.00     0.000 A 
HETATM   28  C   UNL     1      43.544 -18.054   2.453  1.00  0.00     0.001 A 
HETATM   29  C   UNL     1      43.126 -16.771   2.097  1.00  0.00     0.009 A 
ENDBRANCH  18  24
ENDBRANCH   1  18
TORSDOF 6
ENDMDL
MODEL 5
REMARK VINA RESULT:      -7.3     12.684     16.753
REMARK  6 active torsions:
REMARK  status: ('A' for Active; 'I' for Inactive)
REMARK    1  A    between atoms: N_2  and  C_5 
REMARK    2  A    between atoms: C_5  and  C_6 
REMARK    3  A    between atoms: C_6  and  N_7 
REMARK    4  A    between atoms: C_6  and  C_23 
REMARK       I    between atoms: N_7  and  C_8 
REMARK    5  A    between atoms: C_8  and  C_10 
REMARK    6  A    between atoms: C_13  and  C_17 
ROOT
HETATM    1  N   UNL     1      42.032  -6.437  17.498  1.00  0.00    -0.347 N 
HETATM    2  C   UNL     1      41.683  -6.017  16.234  1.00  0.00     0.252 C 
HETATM    3  O   UNL     1      41.166  -4.921  16.038  1.00  0.00    -0.268 OA
HETATM    4  H   UNL     1      42.204  -7.431  17.613  1.00  0.00     0.163 HD
ENDROOT
BRANCH   2   5
HETATM    5  C   UNL     1      41.954  -6.947  15.106  1.00  0.00     0.032 A 
HETATM    6  C   UNL     1      43.144  -6.791  14.392  1.00  0.00     0.018 A 
HETATM    7  C   UNL     1      43.451  -7.665  13.348  1.00  0.00     0.014 A 
HETATM    8  C   UNL     1      42.581  -8.712  13.005  1.00  0.00    -0.017 A 
HETATM    9  C   UNL     1      41.373  -8.872  13.717  1.00  0.00    -0.050 A 
HETATM   10  C   UNL     1      40.395  -9.976  13.408  1.00  0.00     0.049 C 
HETATM   11  C   UNL     1      41.079  -7.990  14.776  1.00  0.00     0.024 A 
BRANCH   8  12
HETATM   12  C   UNL     1      42.976  -9.614  11.940  1.00  0.00     0.011 A 
HETATM   13  C   UNL     1      43.694 -10.831  11.970  1.00  0.00     0.152 A 
HETATM   14  N   UNL     1      43.863 -11.356  10.755  1.00  0.00    -0.187 NA
HETATM   15  N   UNL     1      43.264 -10.473   9.940  1.00  0.00    -0.289 N 
HETATM   16  H   UNL     1      43.267 -10.659   8.943  1.00  0.00     0.188 HD
HETATM   17  C   UNL     1      42.721  -9.406  10.601  1.00  0.00     0.123 A 
ENDBRANCH   8  12
ENDBRANCH   2   5
BRANCH   1  18
HETATM   18  C   UNL     1      41.633  -5.717  18.713  1.00  0.00     0.143 C 
BRANCH  18  19
HETATM   19  C   UNL     1      42.824  -5.175  19.571  1.00  0.00     0.263 C 
BRANCH  19  20
HETATM   20  N   UNL     1      43.250  -3.763  19.201  1.00  0.00    -0.076 N 
HETATM   21  C   UNL     1      42.111  -2.853  18.860  1.00  0.00     0.269 C 
HETATM   22  H   UNL     1      43.808  -3.852  18.324  1.00  0.00     0.279 HD
HETATM   23  C   UNL     1      44.173  -3.156  20.211  1.00  0.00     0.269 C 
ENDBRANCH  19  20
ENDBRANCH  18  19
BRANCH  18  24
HETATM   24  C   UNL     1      40.776  -6.628  19.575  1.00  0.00    -0.034 A 
HETATM   25  C   UNL     1      40.217  -7.792  19.025  1.00  0.00     0.009 A 
HETATM   26  C   UNL     1      39.412  -8.627  19.802  1.00  0.00     0.001 A 
HETATM   27  C   UNL     1      39.158  -8.312  21.135  1.00  0.00     0.000 A 
HETATM   28  C   UNL     1      39.711  -7.163  21.696  1.00  0.00     0.001 A 
HETATM   29  C   UNL     1      40.517  -6.326  20.923  1.00  0.00     0.009 A 
ENDBRANCH  18  24
ENDBRANCH   1  18
TORSDOF 6
ENDMDL
MODEL 6
REMARK VINA RESULT:      -7.1      3.740      7.582
REMARK  6 active torsions:
REMARK  status: ('A' for Active; 'I' for Inactive)
REMARK    1  A    between atoms: N_2  and  C_5 
REMARK    2  A    between atoms: C_5  and  C_6 
REMARK    3  A    between atoms: C_6  and  N_7 
REMARK    4  A    between atoms: C_6  and  C_23 
REMARK       I    between atoms: N_7  and  C_8 
REMARK    5  A    between atoms: C_8  and  C_10 
REMARK    6  A    between atoms: C_13  and  C_17 
ROOT
HETATM    1  N   UNL     1      43.107 -12.929   4.973  1.00  0.00    -0.347 N 
HETATM    2  C   UNL     1      42.170 -13.730   4.361  1.00  0.00     0.252 C 
HETATM    3  O   UNL     1      41.090 -13.284   3.982  1.00  0.00    -0.268 OA
HETATM    4  H   UNL     1      43.844 -13.406   5.485  1.00  0.00     0.163 HD
ENDROOT
BRANCH   2   5
HETATM    5  C   UNL     1      42.513 -15.164   4.176  1.00  0.00     0.032 A 
HETATM    6  C   UNL     1      42.622 -15.655   2.873  1.00  0.00     0.018 A 
HETATM    7  C   UNL     1      42.975 -16.987   2.656  1.00  0.00     0.014 A 
HETATM    8  C   UNL     1      43.232 -17.849   3.735  1.00  0.00    -0.017 A 
HETATM    9  C   UNL     1      43.116 -17.363   5.054  1.00  0.00    -0.050 A 
HETATM   10  C   UNL     1      43.382 -18.229   6.259  1.00  0.00     0.049 C 
HETATM   11  C   UNL     1      42.769 -16.013   5.260  1.00  0.00     0.024 A 
BRANCH   8  12
HETATM   12  C   UNL     1      43.638 -19.211   3.445  1.00  0.00     0.011 A 
HETATM   13  C   UNL     1      43.583 -19.965   2.251  1.00  0.00     0.152 A 
HETATM   14  N   UNL     1      44.053 -21.204   2.406  1.00  0.00    -0.187 NA
HETATM   15  N   UNL     1      44.399 -21.255   3.702  1.00  0.00    -0.289 N 
HETATM   16  H   UNL     1      44.786 -22.120   4.063  1.00  0.00     0.188 HD
HETATM   17  C   UNL     1      44.165 -20.086   4.372  1.00  0.00     0.123 A 
ENDBRANCH   8  12
ENDBRANCH   2   5
BRANCH   1  18
HETATM   18  C   UNL     1      42.820 -11.556   5.406  1.00  0.00     0.143 C 
BRANCH  18  19
HETATM   19  C   UNL     1      42.791 -10.501   4.251  1.00  0.00     0.263 C 
BRANCH  19  20
HETATM   20  N   UNL     1      41.431  -9.850   4.052  1.00  0.00    -0.076 N 
HETATM   21  C   UNL     1      40.818 -10.118   2.712  1.00  0.00     0.269 C 
HETATM   22  H   UNL     1      41.599  -8.821   4.080  1.00  0.00     0.279 HD
HETATM   23  C   UNL     1      40.484 -10.139   5.174  1.00  0.00     0.269 C 
ENDBRANCH  19  20
ENDBRANCH  18  19
BRANCH  18  24
HETATM   24  C   UNL     1      43.850 -11.132   6.440  1.00  0.00    -0.034 A 
HETATM   25  C   UNL     1      45.217 -11.328   6.189  1.00  0.00     0.009 A 
HETATM   26  C   UNL     1      46.171 -10.960   7.140  1.00  0.00     0.001 A 
HETATM   27  C   UNL     1      45.772 -10.391   8.347  1.00  0.00     0.000 A 
HETATM   28  C   UNL     1      44.420 -10.185   8.607  1.00  0.00     0.001 A 
HETATM   29  C   UNL     1      43.463 -10.551   7.659  1.00  0.00     0.009 A 
ENDBRANCH  18  24
ENDBRANCH   1  18
TORSDOF 6
ENDMDL
MODEL 7
REMARK VINA RESULT:      -7.0      2.006      2.965
REMARK  6 active torsions:
REMARK  status: ('A' for Active; 'I' for Inactive)
REMARK    1  A    between atoms: N_2  and  C_5 
REMARK    2  A    between atoms: C_5  and  C_6 
REMARK    3  A    between atoms: C_6  and  N_7 
REMARK    4  A    between atoms: C_6  and  C_23 
REMARK       I    between atoms: N_7  and  C_8 
REMARK    5  A    between atoms: C_8  and  C_10 
REMARK    6  A    between atoms: C_13  and  C_17 
ROOT
HETATM    1  N   UNL     1      41.490 -14.129   3.136  1.00  0.00    -0.347 N 
HETATM    2  C   UNL     1      40.310 -13.419   3.143  1.00  0.00     0.252 C 
HETATM    3  O   UNL     1      39.718 -13.163   4.188  1.00  0.00    -0.268 OA
HETATM    4  H   UNL     1      41.775 -14.522   2.244  1.00  0.00     0.163 HD
ENDROOT
BRANCH   2   5
HETATM    5  C   UNL     1      39.774 -12.972   1.831  1.00  0.00     0.032 A 
HETATM    6  C   UNL     1      38.940 -11.853   1.804  1.00  0.00     0.018 A 
HETATM    7  C   UNL     1      38.443 -11.382   0.588  1.00  0.00     0.014 A 
HETATM    8  C   UNL     1      38.776 -12.014  -0.621  1.00  0.00    -0.017 A 
HETATM    9  C   UNL     1      39.613 -13.150  -0.602  1.00  0.00    -0.050 A 
HETATM   10  C   UNL     1      40.017 -13.875  -1.860  1.00  0.00     0.049 C 
HETATM   11  C   UNL     1      40.116 -13.611   0.632  1.00  0.00     0.024 A 
BRANCH   8  12
HETATM   12  C   UNL     1      38.265 -11.451  -1.856  1.00  0.00     0.011 A 
HETATM   13  C   UNL     1      38.768 -10.427  -2.690  1.00  0.00     0.152 A 
HETATM   14  N   UNL     1      37.984 -10.193  -3.744  1.00  0.00    -0.187 NA
HETATM   15  N   UNL     1      36.968 -11.056  -3.583  1.00  0.00    -0.289 N 
HETATM   16  H   UNL     1      36.226 -11.062  -4.275  1.00  0.00     0.188 HD
HETATM   17  C   UNL     1      37.086 -11.830  -2.462  1.00  0.00     0.123 A 
ENDBRANCH   8  12
ENDBRANCH   2   5
BRANCH   1  18
HETATM   18  C   UNL     1      42.017 -14.807   4.326  1.00  0.00     0.143 C 
BRANCH  18  19
HETATM   19  C   UNL     1      43.038 -13.962   5.159  1.00  0.00     0.263 C 
BRANCH  19  20
HETATM   20  N   UNL     1      42.815 -12.461   5.057  1.00  0.00    -0.076 N 
HETATM   21  C   UNL     1      42.549 -11.795   6.372  1.00  0.00     0.269 C 
HETATM   22  H   UNL     1      41.941 -12.339   4.501  1.00  0.00     0.279 HD
HETATM   23  C   UNL     1      43.892 -11.770   4.282  1.00  0.00     0.269 C 
ENDBRANCH  19  20
ENDBRANCH  18  19
BRANCH  18  24
HETATM   24  C   UNL     1      42.677 -16.110   3.908  1.00  0.00    -0.034 A 
HETATM   25  C   UNL     1      42.388 -16.673   2.655  1.00  0.00     0.009 A 
HETATM   26  C   UNL     1      42.973 -17.880   2.269  1.00  0.00     0.001 A 
HETATM   27  C   UNL     1      43.854 -18.537   3.125  1.00  0.00     0.000 A 
HETATM   28  C   UNL     1      44.155 -17.987   4.369  1.00  0.00     0.001 A 
HETATM   29  C   UNL     1      43.572 -16.781   4.759  1.00  0.00     0.009 A 
ENDBRANCH  18  24
ENDBRANCH   1  18
TORSDOF 6
ENDMDL
MODEL 8
REMARK VINA RESULT:      -6.8      4.184      7.744
REMARK  6 active torsions:
REMARK  status: ('A' for Active; 'I' for Inactive)
REMARK    1  A    between atoms: N_2  and  C_5 
REMARK    2  A    between atoms: C_5  and  C_6 
REMARK    3  A    between atoms: C_6  and  N_7 
REMARK    4  A    between atoms: C_6  and  C_23 
REMARK       I    between atoms: N_7  and  C_8 
REMARK    5  A    between atoms: C_8  and  C_10 
REMARK    6  A    between atoms: C_13  and  C_17 
ROOT
HETATM    1  N   UNL     1      42.702 -12.040   6.011  1.00  0.00    -0.347 N 
HETATM    2  C   UNL     1      41.689 -12.949   5.803  1.00  0.00     0.252 C 
HETATM    3  O   UNL     1      40.523 -12.690   6.086  1.00  0.00    -0.268 OA
HETATM    4  H   UNL     1      43.649 -12.409   6.003  1.00  0.00     0.163 HD
ENDROOT
BRANCH   2   5
HETATM    5  C   UNL     1      42.061 -14.266   5.221  1.00  0.00     0.032 A 
HETATM    6  C   UNL     1      42.145 -14.375   3.832  1.00  0.00     0.018 A 
HETATM    7  C   UNL     1      42.524 -15.584   3.248  1.00  0.00     0.014 A 
HETATM    8  C   UNL     1      42.833 -16.702   4.041  1.00  0.00    -0.017 A 
HETATM    9  C   UNL     1      42.744 -16.602   5.445  1.00  0.00    -0.050 A 
HETATM   10  C   UNL     1      43.066 -17.757   6.358  1.00  0.00     0.049 C 
HETATM   11  C   UNL     1      42.370 -15.372   6.023  1.00  0.00     0.024 A 
BRANCH   8  12
HETATM   12  C   UNL     1      43.263 -17.918   3.378  1.00  0.00     0.011 A 
HETATM   13  C   UNL     1      42.713 -18.628   2.287  1.00  0.00     0.152 A 
HETATM   14  N   UNL     1      43.413 -19.723   1.983  1.00  0.00    -0.187 NA
HETATM   15  N   UNL     1      44.406 -19.727   2.886  1.00  0.00    -0.289 N 
HETATM   16  H   UNL     1      45.081 -20.484   2.857  1.00  0.00     0.188 HD
HETATM   17  C   UNL     1      44.359 -18.668   3.750  1.00  0.00     0.123 A 
ENDBRANCH   8  12
ENDBRANCH   2   5
BRANCH   1  18
HETATM   18  C   UNL     1      42.511 -10.796   6.766  1.00  0.00     0.143 C 
BRANCH  18  19
HETATM   19  C   UNL     1      41.838  -9.639   5.956  1.00  0.00     0.263 C 
BRANCH  19  20
HETATM   20  N   UNL     1      40.353  -9.477   6.241  1.00  0.00    -0.076 N 
HETATM   21  C   UNL     1      39.993  -9.611   7.688  1.00  0.00     0.269 C 
HETATM   22  H   UNL     1      39.881 -10.274   5.762  1.00  0.00     0.279 HD
HETATM   23  C   UNL     1      39.781  -8.237   5.629  1.00  0.00     0.269 C 
ENDBRANCH  19  20
ENDBRANCH  18  19
BRANCH  18  24
HETATM   24  C   UNL     1      43.855 -10.318   7.289  1.00  0.00    -0.034 A 
HETATM   25  C   UNL     1      43.938  -9.122   8.020  1.00  0.00     0.009 A 
HETATM   26  C   UNL     1      45.170  -8.663   8.489  1.00  0.00     0.001 A 
HETATM   27  C   UNL     1      46.330  -9.391   8.237  1.00  0.00     0.000 A 
HETATM   28  C   UNL     1      46.263 -10.582   7.519  1.00  0.00     0.001 A 
HETATM   29  C   UNL     1      45.033 -11.045   7.048  1.00  0.00     0.009 A 
ENDBRANCH  18  24
ENDBRANCH   1  18
TORSDOF 6
ENDMDL
MODEL 9
REMARK VINA RESULT:      -6.7     12.049     16.024
REMARK  6 active torsions:
REMARK  status: ('A' for Active; 'I' for Inactive)
REMARK    1  A    between atoms: N_2  and  C_5 
REMARK    2  A    between atoms: C_5  and  C_6 
REMARK    3  A    between atoms: C_6  and  N_7 
REMARK    4  A    between atoms: C_6  and  C_23 
REMARK       I    between atoms: N_7  and  C_8 
REMARK    5  A    between atoms: C_8  and  C_10 
REMARK    6  A    between atoms: C_13  and  C_17 
ROOT
HETATM    1  N   UNL     1      41.752  -5.699  15.967  1.00  0.00    -0.347 N 
HETATM    2  C   UNL     1      41.583  -5.377  14.639  1.00  0.00     0.252 C 
HETATM    3  O   UNL     1      40.985  -4.362  14.293  1.00  0.00    -0.268 OA
HETATM    4  H   UNL     1      42.014  -6.659  16.170  1.00  0.00     0.163 HD
ENDROOT
BRANCH   2   5
HETATM    5  C   UNL     1      42.152  -6.311  13.632  1.00  0.00     0.032 A 
HETATM    6  C   UNL     1      42.595  -7.562  14.066  1.00  0.00     0.018 A 
HETATM    7  C   UNL     1      43.104  -8.480  13.147  1.00  0.00     0.014 A 
HETATM    8  C   UNL     1      43.172  -8.168  11.779  1.00  0.00    -0.017 A 
HETATM    9  C   UNL     1      42.733  -6.904  11.333  1.00  0.00    -0.050 A 
HETATM   10  C   UNL     1      42.771  -6.502   9.881  1.00  0.00     0.049 C 
HETATM   11  C   UNL     1      42.211  -5.989  12.270  1.00  0.00     0.024 A 
BRANCH   8  12
HETATM   12  C   UNL     1      43.670  -9.179  10.867  1.00  0.00     0.011 A 
HETATM   13  C   UNL     1      44.988  -9.534  10.500  1.00  0.00     0.152 A 
HETATM   14  N   UNL     1      45.021 -10.526   9.608  1.00  0.00    -0.187 NA
HETATM   15  N   UNL     1      43.726 -10.803   9.389  1.00  0.00    -0.289 N 
HETATM   16  H   UNL     1      43.495 -11.537   8.729  1.00  0.00     0.188 HD
HETATM   17  C   UNL     1      42.874 -10.019  10.116  1.00  0.00     0.123 A 
ENDBRANCH   8  12
ENDBRANCH   2   5
BRANCH   1  18
HETATM   18  C   UNL     1      41.067  -4.986  17.052  1.00  0.00     0.143 C 
BRANCH  18  19
HETATM   19  C   UNL     1      41.895  -3.823  17.692  1.00  0.00     0.263 C 
BRANCH  19  20
HETATM   20  N   UNL     1      41.353  -2.438  17.373  1.00  0.00    -0.076 N 
HETATM   21  C   UNL     1      42.151  -1.693  16.348  1.00  0.00     0.269 C 
HETATM   22  H   UNL     1      41.444  -1.885  18.252  1.00  0.00     0.279 HD
HETATM   23  C   UNL     1      39.892  -2.452  17.049  1.00  0.00     0.269 C 
ENDBRANCH  19  20
ENDBRANCH  18  19
BRANCH  18  24
HETATM   24  C   UNL     1      40.683  -5.976  18.137  1.00  0.00    -0.034 A 
HETATM   25  C   UNL     1      40.128  -7.218  17.790  1.00  0.00     0.009 A 
HETATM   26  C   UNL     1      39.752  -8.128  18.779  1.00  0.00     0.001 A 
HETATM   27  C   UNL     1      39.928  -7.811  20.125  1.00  0.00     0.000 A 
HETATM   28  C   UNL     1      40.484  -6.586  20.484  1.00  0.00     0.001 A 
HETATM   29  C   UNL     1      40.860  -5.673  19.498  1.00  0.00     0.009 A 
ENDBRANCH  18  24
ENDBRANCH   1  18
TORSDOF 6
ENDMDL
MODEL 10
REMARK VINA RESULT:      -6.7     14.306     16.173
REMARK  6 active torsions:
REMARK  status: ('A' for Active; 'I' for Inactive)
REMARK    1  A    between atoms: N_2  and  C_5 
REMARK    2  A    between atoms: C_5  and  C_6 
REMARK    3  A    between atoms: C_6  and  N_7 
REMARK    4  A    between atoms: C_6  and  C_23 
REMARK       I    between atoms: N_7  and  C_8 
REMARK    5  A    between atoms: C_8  and  C_10 
REMARK    6  A    between atoms: C_13  and  C_17 
ROOT
HETATM    1  N   UNL     1      44.095 -30.068  -0.043  1.00  0.00    -0.347 N 
HETATM    2  C   UNL     1      44.474 -29.230  -1.068  1.00  0.00     0.252 C 
HETATM    3  O   UNL     1      44.810 -28.068  -0.858  1.00  0.00    -0.268 OA
HETATM    4  H   UNL     1      43.589 -30.908  -0.310  1.00  0.00     0.163 HD
ENDROOT
BRANCH   2   5
HETATM    5  C   UNL     1      44.460 -29.786  -2.446  1.00  0.00     0.032 A 
HETATM    6  C   UNL     1      44.711 -28.919  -3.511  1.00  0.00     0.018 A 
HETATM    7  C   UNL     1      44.740 -29.408  -4.818  1.00  0.00     0.014 A 
HETATM    8  C   UNL     1      44.525 -30.771  -5.082  1.00  0.00    -0.017 A 
HETATM    9  C   UNL     1      44.263 -31.652  -4.012  1.00  0.00    -0.050 A 
HETATM   10  C   UNL     1      44.028 -33.126  -4.220  1.00  0.00     0.049 C 
HETATM   11  C   UNL     1      44.246 -31.148  -2.696  1.00  0.00     0.024 A 
BRANCH   8  12
HETATM   12  C   UNL     1      44.611 -31.227  -6.456  1.00  0.00     0.011 A 
HETATM   13  C   UNL     1      45.620 -31.945  -7.136  1.00  0.00     0.152 A 
HETATM   14  N   UNL     1      45.319 -32.163  -8.418  1.00  0.00    -0.187 NA
HETATM   15  N   UNL     1      44.122 -31.574  -8.568  1.00  0.00    -0.289 N 
HETATM   16  H   UNL     1      43.681 -31.604  -9.482  1.00  0.00     0.188 HD
HETATM   17  C   UNL     1      43.655 -30.993  -7.422  1.00  0.00     0.123 A 
ENDBRANCH   8  12
ENDBRANCH   2   5
BRANCH   1  18
HETATM   18  C   UNL     1      43.862 -29.595   1.326  1.00  0.00     0.143 C 
BRANCH  18  19
HETATM   19  C   UNL     1      45.088 -29.749   2.287  1.00  0.00     0.263 C 
BRANCH  19  20
HETATM   20  N   UNL     1      46.427 -29.494   1.613  1.00  0.00    -0.076 N 
HETATM   21  C   UNL     1      47.146 -28.284   2.125  1.00  0.00     0.269 C 
HETATM   22  H   UNL     1      46.211 -29.287   0.614  1.00  0.00     0.279 HD
HETATM   23  C   UNL     1      47.305 -30.707   1.597  1.00  0.00     0.269 C 
ENDBRANCH  19  20
ENDBRANCH  18  19
BRANCH  18  24
HETATM   24  C   UNL     1      42.675 -30.337   1.916  1.00  0.00    -0.034 A 
HETATM   25  C   UNL     1      42.254 -30.058   3.226  1.00  0.00     0.009 A 
HETATM   26  C   UNL     1      41.177 -30.748   3.786  1.00  0.00     0.001 A 
HETATM   27  C   UNL     1      40.507 -31.719   3.046  1.00  0.00     0.000 A 
HETATM   28  C   UNL     1      40.909 -32.002   1.743  1.00  0.00     0.001 A 
HETATM   29  C   UNL     1      41.986 -31.315   1.179  1.00  0.00     0.009 A 
ENDBRANCH  18  24
ENDBRANCH   1  18
TORSDOF 6
ENDMDL
