MODEL 1
REMARK VINA RESULT:      -7.8      0.000      0.000
REMARK  9 active torsions:
REMARK  status: ('A' for Active; 'I' for Inactive)
REMARK    1  A    between atoms: O_2  and  C_3 
REMARK    2  A    between atoms: C_4  and  S_5 
REMARK    3  A    between atoms: S_5  and  N_6 
REMARK    4  A    between atoms: N_6  and  C_7 
REMARK    5  A    between atoms: C_7  and  C_8 
REMARK    6  A    between atoms: C_7  and  C_21 
REMARK       I    between atoms: C_8  and  N_9 
REMARK    7  A    between atoms: N_9  and  C_10 
REMARK    8  A    between atoms: C_21  and  C_22 
REMARK    9  A    between atoms: C_22  and  S_23 
ROOT
HETATM    1  C   UNL     1      42.630 -12.635   3.700  1.00  0.00     0.165 C 
ENDROOT
BRANCH   1   2
HETATM    2  N   UNL     1      42.651 -12.537   2.215  1.00  0.00    -0.202 NA
HETATM    3  H   UNL     1      42.591 -13.447   1.744  1.00  0.00     0.141 HD
BRANCH   2   4
HETATM    4  S   UNL     1      41.440 -11.552   1.528  1.00  0.00     0.245 S 
HETATM    5  O   UNL     1      42.081 -10.335   1.085  1.00  0.00    -0.206 OA
HETATM    6  O   UNL     1      40.363 -11.563   2.491  1.00  0.00    -0.206 OA
BRANCH   4   7
HETATM    7  C   UNL     1      40.871 -12.447   0.115  1.00  0.00     0.107 A 
HETATM    8  C   UNL     1      40.372 -13.742   0.279  1.00  0.00     0.091 A 
HETATM    9  C   UNL     1      39.862 -14.438  -0.820  1.00  0.00     0.038 A 
HETATM   10  C   UNL     1      39.888 -13.859  -2.088  1.00  0.00     0.003 A 
HETATM   11  C   UNL     1      40.417 -12.580  -2.259  1.00  0.00     0.002 A 
HETATM   12  C   UNL     1      40.909 -11.872  -1.160  1.00  0.00     0.028 A 
BRANCH   8  13
HETATM   13  O   UNL     1      40.298 -14.358   1.495  1.00  0.00    -0.354 OA
HETATM   14  C   UNL     1      39.936 -15.735   1.366  1.00  0.00     0.210 C 
ENDBRANCH   8  13
ENDBRANCH   4   7
ENDBRANCH   2   4
ENDBRANCH   1   2
BRANCH   1  15
HETATM   15  C   UNL     1      42.679 -14.122   4.098  1.00  0.00     0.254 C 
HETATM   16  N   UNL     1      43.031 -14.963   3.065  1.00  0.00    -0.156 N 
HETATM   17  H   UNL     1      43.201 -14.629   2.126  1.00  0.00     0.187 HD
HETATM   18  O   UNL     1      42.373 -14.497   5.233  1.00  0.00    -0.271 OA
BRANCH  16  19
HETATM   19  C   UNL     1      43.216 -16.308   3.243  1.00  0.00     0.708 A 
HETATM   20  N   UNL     1      43.086 -17.202   2.292  1.00  0.00    -0.062 NA
HETATM   21  C   UNL     1      43.397 -18.405   2.885  1.00  0.00     0.103 A 
HETATM   22  C   UNL     1      43.734 -18.231   4.223  1.00  0.00     0.078 A 
HETATM   23  C   UNL     1      43.422 -19.696   2.337  1.00  0.00     0.034 A 
HETATM   24  N   UNL     1      43.588 -16.886   4.430  1.00  0.00    -0.188 N 
HETATM   25  C   UNL     1      44.122 -19.277   5.062  1.00  0.00     0.032 A 
HETATM   26  H   UNL     1      43.748 -16.371   5.287  1.00  0.00     0.184 HD
HETATM   27  C   UNL     1      44.151 -20.557   4.494  1.00  0.00     0.002 A 
HETATM   28  C   UNL     1      43.802 -20.767   3.157  1.00  0.00     0.002 A 
ENDBRANCH  16  19
ENDBRANCH   1  15
BRANCH   1  29
HETATM   29  C   UNL     1      43.866 -11.939   4.287  1.00  0.00     0.040 C 
BRANCH  29  30
HETATM   30  C   UNL     1      43.634 -11.205   5.608  1.00  0.00     0.075 C 
BRANCH  30  31
HETATM   31  S   UNL     1      45.003 -11.346   6.805  1.00  0.00    -0.173 SA
HETATM   32  C   UNL     1      44.129 -10.915   8.331  1.00  0.00     0.089 C 
ENDBRANCH  30  31
ENDBRANCH  29  30
ENDBRANCH   1  29
TORSDOF 9
ENDMDL
MODEL 2
REMARK VINA RESULT:      -7.7      2.191      5.404
REMARK  9 active torsions:
REMARK  status: ('A' for Active; 'I' for Inactive)
REMARK    1  A    between atoms: O_2  and  C_3 
REMARK    2  A    between atoms: C_4  and  S_5 
REMARK    3  A    between atoms: S_5  and  N_6 
REMARK    4  A    between atoms: N_6  and  C_7 
REMARK    5  A    between atoms: C_7  and  C_8 
REMARK    6  A    between atoms: C_7  and  C_21 
REMARK       I    between atoms: C_8  and  N_9 
REMARK    7  A    between atoms: N_9  and  C_10 
REMARK    8  A    between atoms: C_21  and  C_22 
REMARK    9  A    between atoms: C_22  and  S_23 
ROOT
HETATM    1  C   UNL     1      40.416 -13.412   2.803  1.00  0.00     0.165 C 
ENDROOT
BRANCH   1   2
HETATM    2  N   UNL     1      39.413 -13.171   3.876  1.00  0.00    -0.202 NA
HETATM    3  H   UNL     1      39.093 -14.030   4.337  1.00  0.00     0.141 HD
BRANCH   2   4
HETATM    4  S   UNL     1      39.906 -12.107   5.114  1.00  0.00     0.245 S 
HETATM    5  O   UNL     1      38.840 -12.062   6.088  1.00  0.00    -0.206 OA
HETATM    6  O   UNL     1      40.385 -10.930   4.423  1.00  0.00    -0.206 OA
BRANCH   4   7
HETATM    7  C   UNL     1      41.318 -12.880   5.843  1.00  0.00     0.107 A 
HETATM    8  C   UNL     1      41.183 -14.138   6.435  1.00  0.00     0.091 A 
HETATM    9  C   UNL     1      42.302 -14.787   6.961  1.00  0.00     0.038 A 
HETATM   10  C   UNL     1      43.549 -14.164   6.932  1.00  0.00     0.003 A 
HETATM   11  C   UNL     1      43.681 -12.894   6.371  1.00  0.00     0.002 A 
HETATM   12  C   UNL     1      42.568 -12.250   5.826  1.00  0.00     0.028 A 
BRANCH   8  13
HETATM   13  O   UNL     1      39.995 -14.811   6.477  1.00  0.00    -0.354 OA
HETATM   14  C   UNL     1      40.178 -16.213   6.265  1.00  0.00     0.210 C 
ENDBRANCH   8  13
ENDBRANCH   4   7
ENDBRANCH   2   4
ENDBRANCH   1   2
BRANCH   1  15
HETATM   15  C   UNL     1      40.784 -14.908   2.797  1.00  0.00     0.254 C 
HETATM   16  N   UNL     1      42.110 -15.155   3.072  1.00  0.00    -0.156 N 
HETATM   17  H   UNL     1      42.782 -14.414   3.224  1.00  0.00     0.187 HD
HETATM   18  O   UNL     1      39.953 -15.775   2.515  1.00  0.00    -0.271 OA
BRANCH  16  19
HETATM   19  C   UNL     1      42.610 -16.424   3.200  1.00  0.00     0.708 A 
HETATM   20  N   UNL     1      43.171 -16.889   4.291  1.00  0.00    -0.062 NA
HETATM   21  C   UNL     1      43.486 -18.197   4.003  1.00  0.00     0.103 A 
HETATM   22  C   UNL     1      43.095 -18.533   2.711  1.00  0.00     0.078 A 
HETATM   23  C   UNL     1      44.104 -19.169   4.804  1.00  0.00     0.034 A 
HETATM   24  N   UNL     1      42.559 -17.376   2.215  1.00  0.00    -0.188 N 
HETATM   25  C   UNL     1      43.264 -19.806   2.162  1.00  0.00     0.032 A 
HETATM   26  H   UNL     1      42.159 -17.224   1.297  1.00  0.00     0.184 HD
HETATM   27  C   UNL     1      43.873 -20.765   2.980  1.00  0.00     0.002 A 
HETATM   28  C   UNL     1      44.293 -20.453   4.277  1.00  0.00     0.002 A 
ENDBRANCH  16  19
ENDBRANCH   1  15
BRANCH   1  29
HETATM   29  C   UNL     1      39.811 -13.061   1.435  1.00  0.00     0.040 C 
BRANCH  29  30
HETATM   30  C   UNL     1      40.808 -13.005   0.278  1.00  0.00     0.075 C 
BRANCH  30  31
HETATM   31  S   UNL     1      40.053 -12.767  -1.365  1.00  0.00    -0.173 SA
HETATM   32  C   UNL     1      39.156 -14.331  -1.526  1.00  0.00     0.089 C 
ENDBRANCH  30  31
ENDBRANCH  29  30
ENDBRANCH   1  29
TORSDOF 9
ENDMDL
MODEL 3
REMARK VINA RESULT:      -7.7      2.412      6.730
REMARK  9 active torsions:
REMARK  status: ('A' for Active; 'I' for Inactive)
REMARK    1  A    between atoms: O_2  and  C_3 
REMARK    2  A    between atoms: C_4  and  S_5 
REMARK    3  A    between atoms: S_5  and  N_6 
REMARK    4  A    between atoms: N_6  and  C_7 
REMARK    5  A    between atoms: C_7  and  C_8 
REMARK    6  A    between atoms: C_7  and  C_21 
REMARK       I    between atoms: C_8  and  N_9 
REMARK    7  A    between atoms: N_9  and  C_10 
REMARK    8  A    between atoms: C_21  and  C_22 
REMARK    9  A    between atoms: C_22  and  S_23 
ROOT
HETATM    1  C   UNL     1      40.775 -13.572   4.450  1.00  0.00     0.165 C 
ENDROOT
BRANCH   1   2
HETATM    2  N   UNL     1      40.963 -15.025   4.713  1.00  0.00    -0.202 NA
HETATM    3  H   UNL     1      41.008 -15.592   3.859  1.00  0.00     0.141 HD
BRANCH   2   4
HETATM    4  S   UNL     1      42.336 -15.429   5.640  1.00  0.00     0.245 S 
HETATM    5  O   UNL     1      41.872 -15.759   6.968  1.00  0.00    -0.206 OA
HETATM    6  O   UNL     1      43.283 -14.367   5.383  1.00  0.00    -0.206 OA
BRANCH   4   7
HETATM    7  C   UNL     1      42.986 -16.886   4.881  1.00  0.00     0.107 A 
HETATM    8  C   UNL     1      43.025 -16.975   3.487  1.00  0.00     0.091 A 
HETATM    9  C   UNL     1      43.591 -18.095   2.874  1.00  0.00     0.038 A 
HETATM   10  C   UNL     1      44.082 -19.144   3.650  1.00  0.00     0.003 A 
HETATM   11  C   UNL     1      44.014 -19.072   5.041  1.00  0.00     0.002 A 
HETATM   12  C   UNL     1      43.466 -17.946   5.659  1.00  0.00     0.028 A 
BRANCH   8  13
HETATM   13  O   UNL     1      42.581 -15.975   2.670  1.00  0.00    -0.354 OA
HETATM   14  C   UNL     1      43.491 -15.733   1.594  1.00  0.00     0.210 C 
ENDBRANCH   8  13
ENDBRANCH   4   7
ENDBRANCH   2   4
ENDBRANCH   1   2
BRANCH   1  15
HETATM   15  C   UNL     1      39.946 -13.407   3.162  1.00  0.00     0.254 C 
HETATM   16  N   UNL     1      40.607 -13.804   2.021  1.00  0.00    -0.156 N 
HETATM   17  H   UNL     1      41.562 -14.136   2.032  1.00  0.00     0.187 HD
HETATM   18  O   UNL     1      38.817 -12.909   3.180  1.00  0.00    -0.271 OA
BRANCH  16  19
HETATM   19  C   UNL     1      40.006 -13.817   0.790  1.00  0.00     0.708 A 
HETATM   20  N   UNL     1      40.140 -14.783  -0.086  1.00  0.00    -0.062 NA
HETATM   21  C   UNL     1      39.346 -14.418  -1.149  1.00  0.00     0.103 A 
HETATM   22  C   UNL     1      38.707 -13.207  -0.903  1.00  0.00     0.078 A 
HETATM   23  C   UNL     1      39.112 -15.078  -2.364  1.00  0.00     0.034 A 
HETATM   24  N   UNL     1      39.164 -12.836   0.333  1.00  0.00    -0.188 N 
HETATM   25  C   UNL     1      37.816 -12.610  -1.797  1.00  0.00     0.032 A 
HETATM   26  H   UNL     1      38.920 -12.005   0.858  1.00  0.00     0.184 HD
HETATM   27  C   UNL     1      37.587 -13.290  -3.000  1.00  0.00     0.002 A 
HETATM   28  C   UNL     1      38.227 -14.500  -3.284  1.00  0.00     0.002 A 
ENDBRANCH  16  19
ENDBRANCH   1  15
BRANCH   1  29
HETATM   29  C   UNL     1      39.997 -12.928   5.607  1.00  0.00     0.040 C 
BRANCH  29  30
HETATM   30  C   UNL     1      40.470 -11.532   6.012  1.00  0.00     0.075 C 
BRANCH  30  31
HETATM   31  S   UNL     1      42.032 -11.005   5.233  1.00  0.00    -0.173 SA
HETATM   32  C   UNL     1      43.068 -10.820   6.707  1.00  0.00     0.089 C 
ENDBRANCH  30  31
ENDBRANCH  29  30
ENDBRANCH   1  29
TORSDOF 9
ENDMDL
MODEL 4
REMARK VINA RESULT:      -7.6      2.553      7.367
REMARK  9 active torsions:
REMARK  status: ('A' for Active; 'I' for Inactive)
REMARK    1  A    between atoms: O_2  and  C_3 
REMARK    2  A    between atoms: C_4  and  S_5 
REMARK    3  A    between atoms: S_5  and  N_6 
REMARK    4  A    between atoms: N_6  and  C_7 
REMARK    5  A    between atoms: C_7  and  C_8 
REMARK    6  A    between atoms: C_7  and  C_21 
REMARK       I    between atoms: C_8  and  N_9 
REMARK    7  A    between atoms: N_9  and  C_10 
REMARK    8  A    between atoms: C_21  and  C_22 
REMARK    9  A    between atoms: C_22  and  S_23 
ROOT
HETATM    1  C   UNL     1      40.419 -13.578   4.331  1.00  0.00     0.165 C 
ENDROOT
BRANCH   1   2
HETATM    2  N   UNL     1      41.465 -14.381   3.641  1.00  0.00    -0.202 NA
HETATM    3  H   UNL     1      42.343 -14.448   4.167  1.00  0.00     0.141 HD
BRANCH   2   4
HETATM    4  S   UNL     1      41.015 -15.976   3.237  1.00  0.00     0.245 S 
HETATM    5  O   UNL     1      40.753 -15.999   1.816  1.00  0.00    -0.206 OA
HETATM    6  O   UNL     1      40.023 -16.342   4.222  1.00  0.00    -0.206 OA
BRANCH   4   7
HETATM    7  C   UNL     1      42.450 -16.952   3.572  1.00  0.00     0.107 A 
HETATM    8  C   UNL     1      43.160 -16.745   4.757  1.00  0.00     0.091 A 
HETATM    9  C   UNL     1      44.259 -17.550   5.063  1.00  0.00     0.038 A 
HETATM   10  C   UNL     1      44.675 -18.535   4.168  1.00  0.00     0.003 A 
HETATM   11  C   UNL     1      43.988 -18.722   2.969  1.00  0.00     0.002 A 
HETATM   12  C   UNL     1      42.876 -17.932   2.668  1.00  0.00     0.028 A 
BRANCH   8  13
HETATM   13  O   UNL     1      42.793 -15.813   5.685  1.00  0.00    -0.354 OA
HETATM   14  C   UNL     1      42.385 -16.424   6.912  1.00  0.00     0.210 C 
ENDBRANCH   8  13
ENDBRANCH   4   7
ENDBRANCH   2   4
ENDBRANCH   1   2
BRANCH   1  15
HETATM   15  C   UNL     1      41.109 -12.472   5.153  1.00  0.00     0.254 C 
HETATM   16  N   UNL     1      42.322 -12.849   5.684  1.00  0.00    -0.156 N 
HETATM   17  H   UNL     1      42.699 -13.780   5.573  1.00  0.00     0.187 HD
HETATM   18  O   UNL     1      40.570 -11.379   5.344  1.00  0.00    -0.271 OA
BRANCH  16  19
HETATM   19  C   UNL     1      43.126 -11.977   6.370  1.00  0.00     0.708 A 
HETATM   20  N   UNL     1      44.437 -11.999   6.333  1.00  0.00    -0.062 NA
HETATM   21  C   UNL     1      44.836 -10.942   7.119  1.00  0.00     0.103 A 
HETATM   22  C   UNL     1      43.739 -10.259   7.633  1.00  0.00     0.078 A 
HETATM   23  C   UNL     1      46.128 -10.496   7.435  1.00  0.00     0.034 A 
HETATM   24  N   UNL     1      42.661 -10.955   7.156  1.00  0.00    -0.188 N 
HETATM   25  C   UNL     1      43.847  -9.124   8.440  1.00  0.00     0.032 A 
HETATM   26  H   UNL     1      41.681 -10.758   7.313  1.00  0.00     0.184 HD
HETATM   27  C   UNL     1      45.145  -8.688   8.736  1.00  0.00     0.002 A 
HETATM   28  C   UNL     1      46.267  -9.364   8.249  1.00  0.00     0.002 A 
ENDBRANCH  16  19
ENDBRANCH   1  15
BRANCH   1  29
HETATM   29  C   UNL     1      39.506 -12.907   3.294  1.00  0.00     0.040 C 
BRANCH  29  30
HETATM   30  C   UNL     1      40.228 -12.282   2.100  1.00  0.00     0.075 C 
BRANCH  30  31
HETATM   31  S   UNL     1      39.623 -12.839   0.472  1.00  0.00    -0.173 SA
HETATM   32  C   UNL     1      40.914 -12.148  -0.593  1.00  0.00     0.089 C 
ENDBRANCH  30  31
ENDBRANCH  29  30
ENDBRANCH   1  29
TORSDOF 9
ENDMDL
MODEL 5
REMARK VINA RESULT:      -7.3      2.650      6.500
REMARK  9 active torsions:
REMARK  status: ('A' for Active; 'I' for Inactive)
REMARK    1  A    between atoms: O_2  and  C_3 
REMARK    2  A    between atoms: C_4  and  S_5 
REMARK    3  A    between atoms: S_5  and  N_6 
REMARK    4  A    between atoms: N_6  and  C_7 
REMARK    5  A    between atoms: C_7  and  C_8 
REMARK    6  A    between atoms: C_7  and  C_21 
REMARK       I    between atoms: C_8  and  N_9 
REMARK    7  A    between atoms: N_9  and  C_10 
REMARK    8  A    between atoms: C_21  and  C_22 
REMARK    9  A    between atoms: C_22  and  S_23 
ROOT
HETATM    1  C   UNL     1      41.549 -12.484   5.430  1.00  0.00     0.165 C 
ENDROOT
BRANCH   1   2
HETATM    2  N   UNL     1      42.369 -12.354   6.666  1.00  0.00    -0.202 NA
HETATM    3  H   UNL     1      42.542 -13.249   7.137  1.00  0.00     0.141 HD
BRANCH   2   4
HETATM    4  S   UNL     1      43.888 -11.607   6.462  1.00  0.00     0.245 S 
HETATM    5  O   UNL     1      43.812 -10.806   5.262  1.00  0.00    -0.206 OA
HETATM    6  O   UNL     1      44.851 -12.671   6.632  1.00  0.00    -0.206 OA
BRANCH   4   7
HETATM    7  C   UNL     1      44.060 -10.536   7.857  1.00  0.00     0.107 A 
HETATM    8  C   UNL     1      43.017  -9.667   8.187  1.00  0.00     0.091 A 
HETATM    9  C   UNL     1      43.113  -8.858   9.322  1.00  0.00     0.038 A 
HETATM   10  C   UNL     1      44.268  -8.887  10.104  1.00  0.00     0.003 A 
HETATM   11  C   UNL     1      45.323  -9.729   9.757  1.00  0.00     0.002 A 
HETATM   12  C   UNL     1      45.223 -10.554   8.635  1.00  0.00     0.028 A 
BRANCH   8  13
HETATM   13  O   UNL     1      41.852  -9.605   7.477  1.00  0.00    -0.354 OA
HETATM   14  C   UNL     1      40.735  -9.318   8.321  1.00  0.00     0.210 C 
ENDBRANCH   8  13
ENDBRANCH   4   7
ENDBRANCH   2   4
ENDBRANCH   1   2
BRANCH   1  15
HETATM   15  C   UNL     1      41.601 -13.949   4.955  1.00  0.00     0.254 C 
HETATM   16  N   UNL     1      42.875 -14.406   4.701  1.00  0.00    -0.156 N 
HETATM   17  H   UNL     1      43.691 -13.817   4.783  1.00  0.00     0.187 HD
HETATM   18  O   UNL     1      40.572 -14.606   4.777  1.00  0.00    -0.271 OA
BRANCH  16  19
HETATM   19  C   UNL     1      43.133 -15.707   4.355  1.00  0.00     0.708 A 
HETATM   20  N   UNL     1      43.648 -16.597   5.169  1.00  0.00    -0.062 NA
HETATM   21  C   UNL     1      43.698 -17.763   4.440  1.00  0.00     0.103 A 
HETATM   22  C   UNL     1      43.188 -17.575   3.160  1.00  0.00     0.078 A 
HETATM   23  C   UNL     1      44.161 -19.035   4.811  1.00  0.00     0.034 A 
HETATM   24  N   UNL     1      42.855 -16.248   3.126  1.00  0.00    -0.188 N 
HETATM   25  C   UNL     1      43.088 -18.596   2.213  1.00  0.00     0.032 A 
HETATM   26  H   UNL     1      42.447 -15.733   2.357  1.00  0.00     0.184 HD
HETATM   27  C   UNL     1      43.545 -19.861   2.605  1.00  0.00     0.002 A 
HETATM   28  C   UNL     1      44.079 -20.078   3.879  1.00  0.00     0.002 A 
ENDBRANCH  16  19
ENDBRANCH   1  15
BRANCH   1  29
HETATM   29  C   UNL     1      40.087 -12.128   5.733  1.00  0.00     0.040 C 
BRANCH  29  30
HETATM   30  C   UNL     1      39.535 -10.930   4.961  1.00  0.00     0.075 C 
BRANCH  30  31
HETATM   31  S   UNL     1      40.495 -10.475   3.479  1.00  0.00    -0.173 SA
HETATM   32  C   UNL     1      39.754 -11.600   2.270  1.00  0.00     0.089 C 
ENDBRANCH  30  31
ENDBRANCH  29  30
ENDBRANCH   1  29
TORSDOF 9
ENDMDL
MODEL 6
REMARK VINA RESULT:      -7.3      1.123      2.187
REMARK  9 active torsions:
REMARK  status: ('A' for Active; 'I' for Inactive)
REMARK    1  A    between atoms: O_2  and  C_3 
REMARK    2  A    between atoms: C_4  and  S_5 
REMARK    3  A    between atoms: S_5  and  N_6 
REMARK    4  A    between atoms: N_6  and  C_7 
REMARK    5  A    between atoms: C_7  and  C_8 
REMARK    6  A    between atoms: C_7  and  C_21 
REMARK       I    between atoms: C_8  and  N_9 
REMARK    7  A    between atoms: N_9  and  C_10 
REMARK    8  A    between atoms: C_21  and  C_22 
REMARK    9  A    between atoms: C_22  and  S_23 
ROOT
HETATM    1  C   UNL     1      42.101 -12.997   3.224  1.00  0.00     0.165 C 
ENDROOT
BRANCH   1   2
HETATM    2  N   UNL     1      42.078 -12.922   1.738  1.00  0.00    -0.202 NA
HETATM    3  H   UNL     1      42.798 -13.499   1.288  1.00  0.00     0.141 HD
BRANCH   2   4
HETATM    4  S   UNL     1      40.594 -13.336   1.006  1.00  0.00     0.245 S 
HETATM    5  O   UNL     1      39.547 -12.715   1.784  1.00  0.00    -0.206 OA
HETATM    6  O   UNL     1      40.670 -14.764   0.795  1.00  0.00    -0.206 OA
BRANCH   4   7
HETATM    7  C   UNL     1      40.647 -12.581  -0.591  1.00  0.00     0.107 A 
HETATM    8  C   UNL     1      41.118 -11.272  -0.715  1.00  0.00     0.091 A 
HETATM    9  C   UNL     1      41.223 -10.684  -1.978  1.00  0.00     0.038 A 
HETATM   10  C   UNL     1      40.820 -11.388  -3.112  1.00  0.00     0.003 A 
HETATM   11  C   UNL     1      40.319 -12.683  -2.987  1.00  0.00     0.002 A 
HETATM   12  C   UNL     1      40.231 -13.282  -1.728  1.00  0.00     0.028 A 
BRANCH   8  13
HETATM   13  O   UNL     1      41.549 -10.536   0.352  1.00  0.00    -0.354 OA
HETATM   14  C   UNL     1      40.973  -9.227   0.354  1.00  0.00     0.210 C 
ENDBRANCH   8  13
ENDBRANCH   4   7
ENDBRANCH   2   4
ENDBRANCH   1   2
BRANCH   1  15
HETATM   15  C   UNL     1      42.121 -14.479   3.644  1.00  0.00     0.254 C 
HETATM   16  N   UNL     1      42.964 -15.261   2.885  1.00  0.00    -0.156 N 
HETATM   17  H   UNL     1      43.488 -14.894   2.102  1.00  0.00     0.187 HD
HETATM   18  O   UNL     1      41.395 -14.904   4.546  1.00  0.00    -0.271 OA
BRANCH  16  19
HETATM   19  C   UNL     1      43.185 -16.584   3.161  1.00  0.00     0.708 A 
HETATM   20  N   UNL     1      43.151 -17.540   2.263  1.00  0.00    -0.062 NA
HETATM   21  C   UNL     1      43.466 -18.690   2.950  1.00  0.00     0.103 A 
HETATM   22  C   UNL     1      43.708 -18.420   4.293  1.00  0.00     0.078 A 
HETATM   23  C   UNL     1      43.574 -20.010   2.489  1.00  0.00     0.034 A 
HETATM   24  N   UNL     1      43.500 -17.071   4.403  1.00  0.00    -0.188 N 
HETATM   25  C   UNL     1      44.078 -19.396   5.220  1.00  0.00     0.032 A 
HETATM   26  H   UNL     1      43.585 -16.499   5.234  1.00  0.00     0.184 HD
HETATM   27  C   UNL     1      44.191 -20.706   4.739  1.00  0.00     0.002 A 
HETATM   28  C   UNL     1      43.937 -21.012   3.399  1.00  0.00     0.002 A 
ENDBRANCH  16  19
ENDBRANCH   1  15
BRANCH   1  29
HETATM   29  C   UNL     1      43.375 -12.328   3.761  1.00  0.00     0.040 C 
BRANCH  29  30
HETATM   30  C   UNL     1      43.248 -11.709   5.153  1.00  0.00     0.075 C 
BRANCH  30  31
HETATM   31  S   UNL     1      43.961 -12.714   6.498  1.00  0.00    -0.173 SA
HETATM   32  C   UNL     1      44.651 -11.401   7.536  1.00  0.00     0.089 C 
ENDBRANCH  30  31
ENDBRANCH  29  30
ENDBRANCH   1  29
TORSDOF 9
ENDMDL
MODEL 7
REMARK VINA RESULT:      -7.3      2.202      3.359
REMARK  9 active torsions:
REMARK  status: ('A' for Active; 'I' for Inactive)
REMARK    1  A    between atoms: O_2  and  C_3 
REMARK    2  A    between atoms: C_4  and  S_5 
REMARK    3  A    between atoms: S_5  and  N_6 
REMARK    4  A    between atoms: N_6  and  C_7 
REMARK    5  A    between atoms: C_7  and  C_8 
REMARK    6  A    between atoms: C_7  and  C_21 
REMARK       I    between atoms: C_8  and  N_9 
REMARK    7  A    between atoms: N_9  and  C_10 
REMARK    8  A    between atoms: C_21  and  C_22 
REMARK    9  A    between atoms: C_22  and  S_23 
ROOT
HETATM    1  C   UNL     1      42.939 -13.416   6.410  1.00  0.00     0.165 C 
ENDROOT
BRANCH   1   2
HETATM    2  N   UNL     1      41.799 -12.623   5.875  1.00  0.00    -0.202 NA
HETATM    3  H   UNL     1      41.999 -12.176   4.973  1.00  0.00     0.141 HD
BRANCH   2   4
HETATM    4  S   UNL     1      40.338 -13.480   5.681  1.00  0.00     0.245 S 
HETATM    5  O   UNL     1      39.260 -12.541   5.895  1.00  0.00    -0.206 OA
HETATM    6  O   UNL     1      40.501 -14.676   6.475  1.00  0.00    -0.206 OA
BRANCH   4   7
HETATM    7  C   UNL     1      40.328 -13.988   3.989  1.00  0.00     0.107 A 
HETATM    8  C   UNL     1      40.577 -13.046   2.988  1.00  0.00     0.091 A 
HETATM    9  C   UNL     1      40.634 -13.445   1.650  1.00  0.00     0.038 A 
HETATM   10  C   UNL     1      40.401 -14.777   1.308  1.00  0.00     0.003 A 
HETATM   11  C   UNL     1      40.120 -15.712   2.302  1.00  0.00     0.002 A 
HETATM   12  C   UNL     1      40.082 -15.321   3.643  1.00  0.00     0.028 A 
BRANCH   8  13
HETATM   13  O   UNL     1      40.834 -11.732   3.256  1.00  0.00    -0.354 OA
HETATM   14  C   UNL     1      41.973 -11.260   2.533  1.00  0.00     0.210 C 
ENDBRANCH   8  13
ENDBRANCH   4   7
ENDBRANCH   2   4
ENDBRANCH   1   2
BRANCH   1  15
HETATM   15  C   UNL     1      43.262 -14.549   5.418  1.00  0.00     0.254 C 
HETATM   16  N   UNL     1      43.244 -15.805   5.983  1.00  0.00    -0.156 N 
HETATM   17  H   UNL     1      43.072 -15.956   6.968  1.00  0.00     0.187 HD
HETATM   18  O   UNL     1      43.559 -14.313   4.244  1.00  0.00    -0.271 OA
BRANCH  16  19
HETATM   19  C   UNL     1      43.418 -16.945   5.245  1.00  0.00     0.708 A 
HETATM   20  N   UNL     1      43.815 -18.092   5.742  1.00  0.00    -0.062 NA
HETATM   21  C   UNL     1      43.814 -18.965   4.678  1.00  0.00     0.103 A 
HETATM   22  C   UNL     1      43.396 -18.332   3.513  1.00  0.00     0.078 A 
HETATM   23  C   UNL     1      44.154 -20.325   4.633  1.00  0.00     0.034 A 
HETATM   24  N   UNL     1      43.170 -17.039   3.899  1.00  0.00    -0.188 N 
HETATM   25  C   UNL     1      43.270 -18.984   2.284  1.00  0.00     0.032 A 
HETATM   26  H   UNL     1      42.848 -16.269   3.325  1.00  0.00     0.184 HD
HETATM   27  C   UNL     1      43.603 -20.344   2.262  1.00  0.00     0.002 A 
HETATM   28  C   UNL     1      44.044 -21.004   3.412  1.00  0.00     0.002 A 
ENDBRANCH  16  19
ENDBRANCH   1  15
BRANCH   1  29
HETATM   29  C   UNL     1      44.181 -12.522   6.539  1.00  0.00     0.040 C 
BRANCH  29  30
HETATM   30  C   UNL     1      44.058 -11.378   7.547  1.00  0.00     0.075 C 
BRANCH  30  31
HETATM   31  S   UNL     1      45.644 -10.621   8.033  1.00  0.00    -0.173 SA
HETATM   32  C   UNL     1      45.073  -8.962   8.481  1.00  0.00     0.089 C 
ENDBRANCH  30  31
ENDBRANCH  29  30
ENDBRANCH   1  29
TORSDOF 9
ENDMDL
MODEL 8
REMARK VINA RESULT:      -7.2      2.818      7.419
REMARK  9 active torsions:
REMARK  status: ('A' for Active; 'I' for Inactive)
REMARK    1  A    between atoms: O_2  and  C_3 
REMARK    2  A    between atoms: C_4  and  S_5 
REMARK    3  A    between atoms: S_5  and  N_6 
REMARK    4  A    between atoms: N_6  and  C_7 
REMARK    5  A    between atoms: C_7  and  C_8 
REMARK    6  A    between atoms: C_7  and  C_21 
REMARK       I    between atoms: C_8  and  N_9 
REMARK    7  A    between atoms: N_9  and  C_10 
REMARK    8  A    between atoms: C_21  and  C_22 
REMARK    9  A    between atoms: C_22  and  S_23 
ROOT
HETATM    1  C   UNL     1      42.452 -16.995   2.915  1.00  0.00     0.165 C 
ENDROOT
BRANCH   1   2
HETATM    2  N   UNL     1      43.425 -16.448   3.899  1.00  0.00    -0.202 NA
HETATM    3  H   UNL     1      43.817 -15.540   3.625  1.00  0.00     0.141 HD
BRANCH   2   4
HETATM    4  S   UNL     1      42.836 -16.266   5.489  1.00  0.00     0.245 S 
HETATM    5  O   UNL     1      43.753 -16.959   6.366  1.00  0.00    -0.206 OA
HETATM    6  O   UNL     1      41.432 -16.599   5.405  1.00  0.00    -0.206 OA
BRANCH   4   7
HETATM    7  C   UNL     1      42.931 -14.532   5.814  1.00  0.00     0.107 A 
HETATM    8  C   UNL     1      42.089 -13.657   5.123  1.00  0.00     0.091 A 
HETATM    9  C   UNL     1      42.110 -12.291   5.413  1.00  0.00     0.038 A 
HETATM   10  C   UNL     1      42.999 -11.792   6.365  1.00  0.00     0.003 A 
HETATM   11  C   UNL     1      43.863 -12.659   7.032  1.00  0.00     0.002 A 
HETATM   12  C   UNL     1      43.831 -14.029   6.759  1.00  0.00     0.028 A 
BRANCH   8  13
HETATM   13  O   UNL     1      41.181 -14.083   4.195  1.00  0.00    -0.354 OA
HETATM   14  C   UNL     1      40.266 -13.044   3.840  1.00  0.00     0.210 C 
ENDBRANCH   8  13
ENDBRANCH   4   7
ENDBRANCH   2   4
ENDBRANCH   1   2
BRANCH   1  15
HETATM   15  C   UNL     1      42.307 -15.993   1.754  1.00  0.00     0.254 C 
HETATM   16  N   UNL     1      41.000 -15.695   1.437  1.00  0.00    -0.156 N 
HETATM   17  H   UNL     1      40.214 -16.130   1.902  1.00  0.00     0.187 HD
HETATM   18  O   UNL     1      43.291 -15.558   1.150  1.00  0.00    -0.271 OA
BRANCH  16  19
HETATM   19  C   UNL     1      40.668 -14.759   0.493  1.00  0.00     0.708 A 
HETATM   20  N   UNL     1      39.697 -14.901  -0.377  1.00  0.00    -0.062 NA
HETATM   21  C   UNL     1      39.683 -13.727  -1.095  1.00  0.00     0.103 A 
HETATM   22  C   UNL     1      40.662 -12.851  -0.640  1.00  0.00     0.078 A 
HETATM   23  C   UNL     1      38.851 -13.332  -2.153  1.00  0.00     0.034 A 
HETATM   24  N   UNL     1      41.290 -13.544   0.360  1.00  0.00    -0.188 N 
HETATM   25  C   UNL     1      40.857 -11.573  -1.166  1.00  0.00     0.032 A 
HETATM   26  H   UNL     1      42.060 -13.233   0.938  1.00  0.00     0.184 HD
HETATM   27  C   UNL     1      40.010 -11.192  -2.214  1.00  0.00     0.002 A 
HETATM   28  C   UNL     1      39.027 -12.057  -2.706  1.00  0.00     0.002 A 
ENDBRANCH  16  19
ENDBRANCH   1  15
BRANCH   1  29
HETATM   29  C   UNL     1      42.976 -18.320   2.343  1.00  0.00     0.040 C 
BRANCH  29  30
HETATM   30  C   UNL     1      44.102 -18.974   3.144  1.00  0.00     0.075 C 
BRANCH  30  31
HETATM   31  S   UNL     1      43.822 -20.729   3.554  1.00  0.00    -0.173 SA
HETATM   32  C   UNL     1      44.103 -20.681   5.341  1.00  0.00     0.089 C 
ENDBRANCH  30  31
ENDBRANCH  29  30
ENDBRANCH   1  29
TORSDOF 9
ENDMDL
MODEL 9
REMARK VINA RESULT:      -7.1      1.735      5.571
REMARK  9 active torsions:
REMARK  status: ('A' for Active; 'I' for Inactive)
REMARK    1  A    between atoms: O_2  and  C_3 
REMARK    2  A    between atoms: C_4  and  S_5 
REMARK    3  A    between atoms: S_5  and  N_6 
REMARK    4  A    between atoms: N_6  and  C_7 
REMARK    5  A    between atoms: C_7  and  C_8 
REMARK    6  A    between atoms: C_7  and  C_21 
REMARK       I    between atoms: C_8  and  N_9 
REMARK    7  A    between atoms: N_9  and  C_10 
REMARK    8  A    between atoms: C_21  and  C_22 
REMARK    9  A    between atoms: C_22  and  S_23 
ROOT
HETATM    1  C   UNL     1      41.086 -13.374   2.572  1.00  0.00     0.165 C 
ENDROOT
BRANCH   1   2
HETATM    2  N   UNL     1      41.560 -12.672   3.796  1.00  0.00    -0.202 NA
HETATM    3  H   UNL     1      41.804 -13.307   4.563  1.00  0.00     0.141 HD
BRANCH   2   4
HETATM    4  S   UNL     1      42.896 -11.636   3.574  1.00  0.00     0.245 S 
HETATM    5  O   UNL     1      42.417 -10.463   2.881  1.00  0.00    -0.206 OA
HETATM    6  O   UNL     1      43.940 -12.486   3.046  1.00  0.00    -0.206 OA
BRANCH   4   7
HETATM    7  C   UNL     1      43.391 -11.176   5.207  1.00  0.00     0.107 A 
HETATM    8  C   UNL     1      42.477 -10.534   6.046  1.00  0.00     0.091 A 
HETATM    9  C   UNL     1      42.834 -10.219   7.359  1.00  0.00     0.038 A 
HETATM   10  C   UNL     1      44.117 -10.508   7.822  1.00  0.00     0.003 A 
HETATM   11  C   UNL     1      45.042 -11.118   6.976  1.00  0.00     0.002 A 
HETATM   12  C   UNL     1      44.683 -11.453   5.669  1.00  0.00     0.028 A 
BRANCH   8  13
HETATM   13  O   UNL     1      41.199 -10.242   5.662  1.00  0.00    -0.354 OA
HETATM   14  C   UNL     1      40.248 -10.648   6.648  1.00  0.00     0.210 C 
ENDBRANCH   8  13
ENDBRANCH   4   7
ENDBRANCH   2   4
ENDBRANCH   1   2
BRANCH   1  15
HETATM   15  C   UNL     1      41.294 -14.889   2.760  1.00  0.00     0.254 C 
HETATM   16  N   UNL     1      42.616 -15.260   2.861  1.00  0.00    -0.156 N 
HETATM   17  H   UNL     1      43.375 -14.598   2.778  1.00  0.00     0.187 HD
HETATM   18  O   UNL     1      40.343 -15.675   2.761  1.00  0.00    -0.271 OA
BRANCH  16  19
HETATM   19  C   UNL     1      42.999 -16.550   3.119  1.00  0.00     0.708 A 
HETATM   20  N   UNL     1      43.416 -16.974   4.288  1.00  0.00    -0.062 NA
HETATM   21  C   UNL     1      43.652 -18.320   4.118  1.00  0.00     0.103 A 
HETATM   22  C   UNL     1      43.359 -18.719   2.819  1.00  0.00     0.078 A 
HETATM   23  C   UNL     1      44.113 -19.273   5.038  1.00  0.00     0.034 A 
HETATM   24  N   UNL     1      42.966 -17.565   2.198  1.00  0.00    -0.188 N 
HETATM   25  C   UNL     1      43.478 -20.037   2.373  1.00  0.00     0.032 A 
HETATM   26  H   UNL     1      42.667 -17.451   1.237  1.00  0.00     0.184 HD
HETATM   27  C   UNL     1      43.929 -20.976   3.308  1.00  0.00     0.002 A 
HETATM   28  C   UNL     1      44.248 -20.603   4.617  1.00  0.00     0.002 A 
ENDBRANCH  16  19
ENDBRANCH   1  15
BRANCH   1  29
HETATM   29  C   UNL     1      39.585 -13.116   2.370  1.00  0.00     0.040 C 
BRANCH  29  30
HETATM   30  C   UNL     1      39.212 -12.454   1.044  1.00  0.00     0.075 C 
BRANCH  30  31
HETATM   31  S   UNL     1      40.415 -12.716  -0.301  1.00  0.00    -0.173 SA
HETATM   32  C   UNL     1      39.752 -14.241  -1.018  1.00  0.00     0.089 C 
ENDBRANCH  30  31
ENDBRANCH  29  30
ENDBRANCH   1  29
TORSDOF 9
ENDMDL
MODEL 10
REMARK VINA RESULT:      -7.0      3.920      7.602
REMARK  9 active torsions:
REMARK  status: ('A' for Active; 'I' for Inactive)
REMARK    1  A    between atoms: O_2  and  C_3 
REMARK    2  A    between atoms: C_4  and  S_5 
REMARK    3  A    between atoms: S_5  and  N_6 
REMARK    4  A    between atoms: N_6  and  C_7 
REMARK    5  A    between atoms: C_7  and  C_8 
REMARK    6  A    between atoms: C_7  and  C_21 
REMARK       I    between atoms: C_8  and  N_9 
REMARK    7  A    between atoms: N_9  and  C_10 
REMARK    8  A    between atoms: C_21  and  C_22 
REMARK    9  A    between atoms: C_22  and  S_23 
ROOT
HETATM    1  C   UNL     1      43.165 -10.843   6.527  1.00  0.00     0.165 C 
ENDROOT
BRANCH   1   2
HETATM    2  N   UNL     1      42.719 -10.808   7.947  1.00  0.00    -0.202 NA
HETATM    3  H   UNL     1      42.605 -11.739   8.362  1.00  0.00     0.141 HD
BRANCH   2   4
HETATM    4  S   UNL     1      43.719  -9.921   9.006  1.00  0.00     0.245 S 
HETATM    5  O   UNL     1      43.900  -8.610   8.425  1.00  0.00    -0.206 OA
HETATM    6  O   UNL     1      44.823 -10.805   9.302  1.00  0.00    -0.206 OA
BRANCH   4   7
HETATM    7  C   UNL     1      42.778  -9.763  10.494  1.00  0.00     0.107 A 
HETATM    8  C   UNL     1      41.422  -9.440  10.418  1.00  0.00     0.091 A 
HETATM    9  C   UNL     1      40.652  -9.372  11.581  1.00  0.00     0.038 A 
HETATM   10  C   UNL     1      41.246  -9.587  12.825  1.00  0.00     0.003 A 
HETATM   11  C   UNL     1      42.607  -9.877  12.906  1.00  0.00     0.002 A 
HETATM   12  C   UNL     1      43.376  -9.965  11.743  1.00  0.00     0.028 A 
BRANCH   8  13
HETATM   13  O   UNL     1      40.775  -9.239   9.231  1.00  0.00    -0.354 OA
HETATM   14  C   UNL     1      39.374  -9.499   9.346  1.00  0.00     0.210 C 
ENDBRANCH   8  13
ENDBRANCH   4   7
ENDBRANCH   2   4
ENDBRANCH   1   2
BRANCH   1  15
HETATM   15  C   UNL     1      43.593 -12.281   6.179  1.00  0.00     0.254 C 
HETATM   16  N   UNL     1      42.676 -12.965   5.412  1.00  0.00    -0.156 N 
HETATM   17  H   UNL     1      41.788 -12.565   5.140  1.00  0.00     0.187 HD
HETATM   18  O   UNL     1      44.644 -12.764   6.610  1.00  0.00    -0.271 OA
BRANCH  16  19
HETATM   19  C   UNL     1      42.916 -14.223   4.928  1.00  0.00     0.708 A 
HETATM   20  N   UNL     1      42.729 -14.581   3.679  1.00  0.00    -0.062 NA
HETATM   21  C   UNL     1      43.128 -15.897   3.619  1.00  0.00     0.103 A 
HETATM   22  C   UNL     1      43.577 -16.340   4.858  1.00  0.00     0.078 A 
HETATM   23  C   UNL     1      43.143 -16.781   2.531  1.00  0.00     0.034 A 
HETATM   24  N   UNL     1      43.410 -15.258   5.679  1.00  0.00    -0.188 N 
HETATM   25  C   UNL     1      44.070 -17.627   5.083  1.00  0.00     0.032 A 
HETATM   26  H   UNL     1      43.630 -15.191   6.665  1.00  0.00     0.184 HD
HETATM   27  C   UNL     1      44.087 -18.492   3.982  1.00  0.00     0.002 A 
HETATM   28  C   UNL     1      43.626 -18.082   2.728  1.00  0.00     0.002 A 
ENDBRANCH  16  19
ENDBRANCH   1  15
BRANCH   1  29
HETATM   29  C   UNL     1      42.001 -10.452   5.605  1.00  0.00     0.040 C 
BRANCH  29  30
HETATM   30  C   UNL     1      41.542  -8.998   5.717  1.00  0.00     0.075 C 
BRANCH  30  31
HETATM   31  S   UNL     1      39.739  -8.759   5.591  1.00  0.00    -0.173 SA
HETATM   32  C   UNL     1      39.187 -10.479   5.714  1.00  0.00     0.089 C 
ENDBRANCH  30  31
ENDBRANCH  29  30
ENDBRANCH   1  29
TORSDOF 9
ENDMDL
