MODEL 1
REMARK VINA RESULT:     -10.1      0.000      0.000
REMARK  8 active torsions:
REMARK  status: ('A' for Active; 'I' for Inactive)
REMARK    1  A    between atoms: C_5  and  N_6 
REMARK       I    between atoms: N_6  and  C_7 
REMARK    2  A    between atoms: C_7  and  C_8 
REMARK    3  A    between atoms: C_8  and  N_9 
REMARK    4  A    between atoms: N_12  and  C_13 
REMARK    5  A    between atoms: C_13  and  C_14 
REMARK    6  A    between atoms: C_17  and  C_18 
REMARK       I    between atoms: C_18  and  N_19 
REMARK    7  A    between atoms: N_19  and  C_20 
REMARK    8  A    between atoms: C_20  and  C_21 
ROOT
HETATM    1  N   UNL     1      41.449 -15.469   5.512  1.00  0.00    -0.290 N 
HETATM    2  C   UNL     1      40.482 -14.472   5.453  1.00  0.00     0.332 C 
HETATM    3  O   UNL     1      39.864 -14.139   6.466  1.00  0.00    -0.246 OA
HETATM    4  N   UNL     1      40.275 -13.867   4.223  1.00  0.00    -0.261 N 
HETATM    5  C   UNL     1      40.919 -14.238   3.050  1.00  0.00     0.264 C 
HETATM    6  O   UNL     1      40.876 -13.595   2.003  1.00  0.00    -0.267 OA
HETATM    7  C   UNL     1      41.742 -15.455   3.102  1.00  0.00     0.059 A 
HETATM    8  C   UNL     1      42.030 -16.025   4.341  1.00  0.00     0.055 A 
HETATM    9  C   UNL     1      42.287 -15.974   1.918  1.00  0.00     0.019 A 
HETATM   10  C   UNL     1      43.128 -17.082   1.967  1.00  0.00     0.001 A 
HETATM   11  C   UNL     1      43.430 -17.660   3.196  1.00  0.00     0.002 A 
HETATM   12  C   UNL     1      42.888 -17.135   4.375  1.00  0.00     0.031 A 
ENDROOT
BRANCH   4  13
HETATM   13  C   UNL     1      39.537 -12.609   4.205  1.00  0.00     0.175 C 
BRANCH  13  14
HETATM   14  C   UNL     1      40.206 -11.468   4.939  1.00  0.00    -0.040 A 
HETATM   15  C   UNL     1      41.516 -11.075   4.631  1.00  0.00     0.010 A 
HETATM   16  C   UNL     1      42.083  -9.949   5.244  1.00  0.00     0.017 A 
HETATM   17  C   UNL     1      41.351  -9.210   6.184  1.00  0.00     0.032 A 
HETATM   18  C   UNL     1      40.052  -9.616   6.507  1.00  0.00     0.017 A 
HETATM   19  C   UNL     1      39.488 -10.736   5.896  1.00  0.00     0.010 A 
BRANCH  17  20
HETATM   20  C   UNL     1      41.862  -7.958   6.815  1.00  0.00     0.251 C 
HETATM   21  N   UNL     1      42.342  -8.052   8.101  1.00  0.00    -0.353 N 
HETATM   22  H   UNL     1      42.220  -8.899   8.634  1.00  0.00     0.163 HD
HETATM   23  O   UNL     1      41.826  -6.904   6.190  1.00  0.00    -0.268 OA
BRANCH  21  24
HETATM   24  C   UNL     1      42.862  -6.897   8.801  1.00  0.00     0.161 C 
BRANCH  24  25
HETATM   25  C   UNL     1      42.872  -7.118  10.293  1.00  0.00    -0.038 A 
HETATM   26  C   UNL     1      42.263  -6.189  11.152  1.00  0.00     0.048 A 
HETATM   27  C   UNL     1      42.278  -6.450  12.506  1.00  0.00     0.105 A 
HETATM   28  C   UNL     1      42.868  -7.579  13.023  1.00  0.00     0.105 A 
HETATM   29  O   UNL     1      41.733  -5.661  13.471  1.00  0.00    -0.323 OA
HETATM   30  O   UNL     1      42.769  -7.643  14.378  1.00  0.00    -0.323 OA
HETATM   31  C   UNL     1      43.473  -8.515  12.214  1.00  0.00     0.040 A 
HETATM   32  C   UNL     1      42.032  -6.433  14.653  1.00  0.00     0.352 A 
HETATM   33  C   UNL     1      43.469  -8.281  10.835  1.00  0.00     0.012 A 
ENDBRANCH  24  25
ENDBRANCH  21  24
ENDBRANCH  17  20
ENDBRANCH  13  14
ENDBRANCH   4  13
BRANCH   1  34
HETATM   34  C   UNL     1      41.984 -15.826   6.832  1.00  0.00     0.237 C 
BRANCH  34  35
HETATM   35  C   UNL     1      42.875 -14.795   7.524  1.00  0.00     0.240 C 
HETATM   36  N   UNL     1      43.047 -13.621   6.819  1.00  0.00    -0.326 N 
HETATM   37  H   UNL     1      42.563 -13.555   5.930  1.00  0.00     0.169 HD
HETATM   38  O   UNL     1      43.447 -15.105   8.568  1.00  0.00    -0.271 OA
BRANCH  36  39
HETATM   39  C   UNL     1      43.865 -12.527   7.176  1.00  0.00     0.034 A 
HETATM   40  C   UNL     1      43.628 -11.701   8.277  1.00  0.00     0.030 A 
HETATM   41  C   UNL     1      44.493 -10.643   8.578  1.00  0.00     0.009 A 
HETATM   42  C   UNL     1      45.615 -10.393   7.785  1.00  0.00    -0.062 A 
HETATM   43  C   UNL     1      46.532  -9.248   8.096  1.00  0.00     0.048 C 
HETATM   44  C   UNL     1      45.845 -11.205   6.670  1.00  0.00     0.009 A 
HETATM   45  C   UNL     1      44.980 -12.265   6.372  1.00  0.00     0.030 A 
ENDBRANCH  36  39
ENDBRANCH  34  35
ENDBRANCH   1  34
TORSDOF 8
ENDMDL
MODEL 2
REMARK VINA RESULT:      -9.9      2.507      8.939
REMARK  8 active torsions:
REMARK  status: ('A' for Active; 'I' for Inactive)
REMARK    1  A    between atoms: C_5  and  N_6 
REMARK       I    between atoms: N_6  and  C_7 
REMARK    2  A    between atoms: C_7  and  C_8 
REMARK    3  A    between atoms: C_8  and  N_9 
REMARK    4  A    between atoms: N_12  and  C_13 
REMARK    5  A    between atoms: C_13  and  C_14 
REMARK    6  A    between atoms: C_17  and  C_18 
REMARK       I    between atoms: C_18  and  N_19 
REMARK    7  A    between atoms: N_19  and  C_20 
REMARK    8  A    between atoms: C_20  and  C_21 
ROOT
HETATM    1  N   UNL     1      42.311  -8.928   9.433  1.00  0.00    -0.290 N 
HETATM    2  C   UNL     1      41.511  -8.512   8.375  1.00  0.00     0.332 C 
HETATM    3  O   UNL     1      42.016  -8.006   7.371  1.00  0.00    -0.246 OA
HETATM    4  N   UNL     1      40.146  -8.719   8.498  1.00  0.00    -0.261 N 
HETATM    5  C   UNL     1      39.533  -9.248   9.626  1.00  0.00     0.264 C 
HETATM    6  O   UNL     1      38.356  -9.599   9.675  1.00  0.00    -0.267 OA
HETATM    7  C   UNL     1      40.380  -9.439  10.813  1.00  0.00     0.059 A 
HETATM    8  C   UNL     1      41.762  -9.319  10.684  1.00  0.00     0.055 A 
HETATM    9  C   UNL     1      39.793  -9.816  12.030  1.00  0.00     0.019 A 
HETATM   10  C   UNL     1      40.594 -10.071  13.138  1.00  0.00     0.001 A 
HETATM   11  C   UNL     1      41.976  -9.961  13.026  1.00  0.00     0.002 A 
HETATM   12  C   UNL     1      42.557  -9.591  11.808  1.00  0.00     0.031 A 
ENDROOT
BRANCH   4  13
HETATM   13  C   UNL     1      39.336  -8.617   7.289  1.00  0.00     0.175 C 
BRANCH  13  14
HETATM   14  C   UNL     1      39.518  -9.751   6.304  1.00  0.00    -0.040 A 
HETATM   15  C   UNL     1      39.464 -11.089   6.719  1.00  0.00     0.010 A 
HETATM   16  C   UNL     1      39.527 -12.128   5.779  1.00  0.00     0.017 A 
HETATM   17  C   UNL     1      39.660 -11.840   4.413  1.00  0.00     0.032 A 
HETATM   18  C   UNL     1      39.738 -10.505   4.003  1.00  0.00     0.017 A 
HETATM   19  C   UNL     1      39.673  -9.473   4.939  1.00  0.00     0.010 A 
BRANCH  17  20
HETATM   20  C   UNL     1      39.654 -12.890   3.353  1.00  0.00     0.251 C 
HETATM   21  N   UNL     1      39.858 -14.191   3.755  1.00  0.00    -0.353 N 
HETATM   22  H   UNL     1      40.137 -14.398   4.701  1.00  0.00     0.163 HD
HETATM   23  O   UNL     1      39.486 -12.571   2.182  1.00  0.00    -0.268 OA
BRANCH  21  24
HETATM   24  C   UNL     1      39.867 -15.283   2.805  1.00  0.00     0.161 C 
BRANCH  24  25
HETATM   25  C   UNL     1      41.071 -16.170   3.001  1.00  0.00    -0.038 A 
HETATM   26  C   UNL     1      41.547 -16.446   4.292  1.00  0.00     0.048 A 
HETATM   27  C   UNL     1      42.635 -17.284   4.419  1.00  0.00     0.105 A 
HETATM   28  C   UNL     1      43.254 -17.842   3.326  1.00  0.00     0.105 A 
HETATM   29  O   UNL     1      43.216 -17.656   5.591  1.00  0.00    -0.323 OA
HETATM   30  O   UNL     1      44.303 -18.635   3.672  1.00  0.00    -0.323 OA
HETATM   31  C   UNL     1      42.817 -17.597   2.042  1.00  0.00     0.040 A 
HETATM   32  C   UNL     1      44.261 -18.527   5.110  1.00  0.00     0.352 A 
HETATM   33  C   UNL     1      41.711 -16.757   1.883  1.00  0.00     0.012 A 
ENDBRANCH  24  25
ENDBRANCH  21  24
ENDBRANCH  17  20
ENDBRANCH  13  14
ENDBRANCH   4  13
BRANCH   1  34
HETATM   34  C   UNL     1      43.745  -9.115   9.175  1.00  0.00     0.237 C 
BRANCH  34  35
HETATM   35  C   UNL     1      44.131  -9.862   7.899  1.00  0.00     0.240 C 
HETATM   36  N   UNL     1      43.094 -10.551   7.303  1.00  0.00    -0.326 N 
HETATM   37  H   UNL     1      42.191 -10.485   7.757  1.00  0.00     0.169 HD
HETATM   38  O   UNL     1      45.313  -9.892   7.560  1.00  0.00    -0.271 OA
BRANCH  36  39
HETATM   39  C   UNL     1      43.170 -11.379   6.162  1.00  0.00     0.034 A 
HETATM   40  C   UNL     1      43.162 -12.774   6.207  1.00  0.00     0.030 A 
HETATM   41  C   UNL     1      43.225 -13.531   5.031  1.00  0.00     0.009 A 
HETATM   42  C   UNL     1      43.292 -12.904   3.785  1.00  0.00    -0.062 A 
HETATM   43  C   UNL     1      43.379 -13.713   2.526  1.00  0.00     0.048 C 
HETATM   44  C   UNL     1      43.320 -11.507   3.736  1.00  0.00     0.009 A 
HETATM   45  C   UNL     1      43.254 -10.752   4.914  1.00  0.00     0.030 A 
ENDBRANCH  36  39
ENDBRANCH  34  35
ENDBRANCH   1  34
TORSDOF 8
ENDMDL
MODEL 3
REMARK VINA RESULT:      -9.3      2.953      5.905
REMARK  8 active torsions:
REMARK  status: ('A' for Active; 'I' for Inactive)
REMARK    1  A    between atoms: C_5  and  N_6 
REMARK       I    between atoms: N_6  and  C_7 
REMARK    2  A    between atoms: C_7  and  C_8 
REMARK    3  A    between atoms: C_8  and  N_9 
REMARK    4  A    between atoms: N_12  and  C_13 
REMARK    5  A    between atoms: C_13  and  C_14 
REMARK    6  A    between atoms: C_17  and  C_18 
REMARK       I    between atoms: C_18  and  N_19 
REMARK    7  A    between atoms: N_19  and  C_20 
REMARK    8  A    between atoms: C_20  and  C_21 
ROOT
HETATM    1  N   UNL     1      42.308 -14.686   2.863  1.00  0.00    -0.290 N 
HETATM    2  C   UNL     1      41.813 -13.464   3.303  1.00  0.00     0.332 C 
HETATM    3  O   UNL     1      41.715 -12.513   2.527  1.00  0.00    -0.246 OA
HETATM    4  N   UNL     1      41.419 -13.385   4.630  1.00  0.00    -0.261 N 
HETATM    5  C   UNL     1      41.549 -14.418   5.549  1.00  0.00     0.264 C 
HETATM    6  O   UNL     1      41.042 -14.419   6.668  1.00  0.00    -0.267 OA
HETATM    7  C   UNL     1      42.303 -15.602   5.112  1.00  0.00     0.059 A 
HETATM    8  C   UNL     1      42.632 -15.737   3.764  1.00  0.00     0.055 A 
HETATM    9  C   UNL     1      42.610 -16.610   6.038  1.00  0.00     0.019 A 
HETATM   10  C   UNL     1      43.258 -17.767   5.618  1.00  0.00     0.001 A 
HETATM   11  C   UNL     1      43.589 -17.920   4.276  1.00  0.00     0.002 A 
HETATM   12  C   UNL     1      43.275 -16.914   3.353  1.00  0.00     0.031 A 
ENDROOT
BRANCH   4  13
HETATM   13  C   UNL     1      40.590 -12.251   5.022  1.00  0.00     0.175 C 
BRANCH  13  14
HETATM   14  C   UNL     1      41.263 -11.261   5.948  1.00  0.00    -0.040 A 
HETATM   15  C   UNL     1      40.514 -10.452   6.814  1.00  0.00     0.010 A 
HETATM   16  C   UNL     1      41.156  -9.618   7.741  1.00  0.00     0.017 A 
HETATM   17  C   UNL     1      42.556  -9.571   7.801  1.00  0.00     0.032 A 
HETATM   18  C   UNL     1      43.302 -10.361   6.919  1.00  0.00     0.017 A 
HETATM   19  C   UNL     1      42.662 -11.192   5.999  1.00  0.00     0.010 A 
BRANCH  17  20
HETATM   20  C   UNL     1      43.303  -8.768   8.812  1.00  0.00     0.251 C 
HETATM   21  N   UNL     1      43.194  -9.155  10.128  1.00  0.00    -0.353 N 
HETATM   22  H   UNL     1      42.528  -9.861  10.403  1.00  0.00     0.163 HD
HETATM   23  O   UNL     1      43.965  -7.801   8.452  1.00  0.00    -0.268 OA
BRANCH  21  24
HETATM   24  C   UNL     1      43.882  -8.445  11.185  1.00  0.00     0.161 C 
BRANCH  24  25
HETATM   25  C   UNL     1      43.079  -8.447  12.461  1.00  0.00    -0.038 A 
HETATM   26  C   UNL     1      43.341  -7.503  13.467  1.00  0.00     0.048 A 
HETATM   27  C   UNL     1      42.561  -7.531  14.604  1.00  0.00     0.105 A 
HETATM   28  C   UNL     1      41.552  -8.449  14.771  1.00  0.00     0.105 A 
HETATM   29  O   UNL     1      42.679  -6.689  15.666  1.00  0.00    -0.323 OA
HETATM   30  O   UNL     1      40.907  -8.301  15.959  1.00  0.00    -0.323 OA
HETATM   31  C   UNL     1      41.261  -9.390  13.808  1.00  0.00     0.040 A 
HETATM   32  C   UNL     1      41.615  -7.172  16.513  1.00  0.00     0.352 A 
HETATM   33  C   UNL     1      42.031  -9.382  12.640  1.00  0.00     0.012 A 
ENDBRANCH  24  25
ENDBRANCH  21  24
ENDBRANCH  17  20
ENDBRANCH  13  14
ENDBRANCH   4  13
BRANCH   1  34
HETATM   34  C   UNL     1      42.334 -14.932   1.416  1.00  0.00     0.237 C 
BRANCH  34  35
HETATM   35  C   UNL     1      40.992 -14.935   0.685  1.00  0.00     0.240 C 
HETATM   36  N   UNL     1      40.874 -13.973  -0.299  1.00  0.00    -0.326 N 
HETATM   37  H   UNL     1      41.681 -13.377  -0.444  1.00  0.00     0.169 HD
HETATM   38  O   UNL     1      40.101 -15.686   1.075  1.00  0.00    -0.271 OA
BRANCH  36  39
HETATM   39  C   UNL     1      39.734 -13.697  -1.084  1.00  0.00     0.034 A 
HETATM   40  C   UNL     1      39.339 -14.460  -2.184  1.00  0.00     0.030 A 
HETATM   41  C   UNL     1      38.186 -14.134  -2.907  1.00  0.00     0.009 A 
HETATM   42  C   UNL     1      37.403 -13.037  -2.540  1.00  0.00    -0.062 A 
HETATM   43  C   UNL     1      36.178 -12.675  -3.325  1.00  0.00     0.048 C 
HETATM   44  C   UNL     1      37.806 -12.258  -1.451  1.00  0.00     0.009 A 
HETATM   45  C   UNL     1      38.958 -12.588  -0.727  1.00  0.00     0.030 A 
ENDBRANCH  36  39
ENDBRANCH  34  35
ENDBRANCH   1  34
TORSDOF 8
ENDMDL
MODEL 4
REMARK VINA RESULT:      -9.2      3.175      9.621
REMARK  8 active torsions:
REMARK  status: ('A' for Active; 'I' for Inactive)
REMARK    1  A    between atoms: C_5  and  N_6 
REMARK       I    between atoms: N_6  and  C_7 
REMARK    2  A    between atoms: C_7  and  C_8 
REMARK    3  A    between atoms: C_8  and  N_9 
REMARK    4  A    between atoms: N_12  and  C_13 
REMARK    5  A    between atoms: C_13  and  C_14 
REMARK    6  A    between atoms: C_17  and  C_18 
REMARK       I    between atoms: C_18  and  N_19 
REMARK    7  A    between atoms: N_19  and  C_20 
REMARK    8  A    between atoms: C_20  and  C_21 
ROOT
HETATM    1  N   UNL     1      42.597  -9.081   8.839  1.00  0.00    -0.290 N 
HETATM    2  C   UNL     1      41.707  -8.593   7.890  1.00  0.00     0.332 C 
HETATM    3  O   UNL     1      42.120  -8.137   6.822  1.00  0.00    -0.246 OA
HETATM    4  N   UNL     1      40.356  -8.670   8.193  1.00  0.00    -0.261 N 
HETATM    5  C   UNL     1      39.851  -9.138   9.399  1.00  0.00     0.264 C 
HETATM    6  O   UNL     1      38.663  -9.377   9.607  1.00  0.00    -0.267 OA
HETATM    7  C   UNL     1      40.825  -9.407  10.467  1.00  0.00     0.059 A 
HETATM    8  C   UNL     1      42.184  -9.418  10.157  1.00  0.00     0.055 A 
HETATM    9  C   UNL     1      40.371  -9.726  11.755  1.00  0.00     0.019 A 
HETATM   10  C   UNL     1      41.284 -10.055  12.753  1.00  0.00     0.001 A 
HETATM   11  C   UNL     1      42.644 -10.075  12.459  1.00  0.00     0.002 A 
HETATM   12  C   UNL     1      43.091  -9.762  11.169  1.00  0.00     0.031 A 
ENDROOT
BRANCH   4  13
HETATM   13  C   UNL     1      39.407  -8.494   7.100  1.00  0.00     0.175 C 
BRANCH  13  14
HETATM   14  C   UNL     1      39.460  -9.565   6.033  1.00  0.00    -0.040 A 
HETATM   15  C   UNL     1      39.738  -9.246   4.697  1.00  0.00     0.010 A 
HETATM   16  C   UNL     1      39.889 -10.260   3.740  1.00  0.00     0.017 A 
HETATM   17  C   UNL     1      39.749 -11.606   4.106  1.00  0.00     0.032 A 
HETATM   18  C   UNL     1      39.448 -11.922   5.436  1.00  0.00     0.017 A 
HETATM   19  C   UNL     1      39.299 -10.913   6.387  1.00  0.00     0.010 A 
BRANCH  17  20
HETATM   20  C   UNL     1      39.973 -12.738   3.160  1.00  0.00     0.251 C 
HETATM   21  N   UNL     1      40.657 -12.460   1.999  1.00  0.00    -0.353 N 
HETATM   22  H   UNL     1      40.868 -11.508   1.742  1.00  0.00     0.163 HD
HETATM   23  O   UNL     1      39.539 -13.852   3.431  1.00  0.00    -0.268 OA
BRANCH  21  24
HETATM   24  C   UNL     1      40.929 -13.489   1.017  1.00  0.00     0.161 C 
BRANCH  24  25
HETATM   25  C   UNL     1      39.911 -13.470  -0.095  1.00  0.00    -0.038 A 
HETATM   26  C   UNL     1      39.096 -12.343  -0.292  1.00  0.00     0.048 A 
HETATM   27  C   UNL     1      38.198 -12.365  -1.339  1.00  0.00     0.105 A 
HETATM   28  C   UNL     1      38.084 -13.450  -2.176  1.00  0.00     0.105 A 
HETATM   29  O   UNL     1      37.344 -11.361  -1.671  1.00  0.00    -0.323 OA
HETATM   30  O   UNL     1      37.143 -13.265  -3.140  1.00  0.00    -0.323 OA
HETATM   31  C   UNL     1      38.866 -14.573  -2.017  1.00  0.00     0.040 A 
HETATM   32  C   UNL     1      36.691 -11.932  -2.824  1.00  0.00     0.352 A 
HETATM   33  C   UNL     1      39.790 -14.577  -0.968  1.00  0.00     0.012 A 
ENDBRANCH  24  25
ENDBRANCH  21  24
ENDBRANCH  17  20
ENDBRANCH  13  14
ENDBRANCH   4  13
BRANCH   1  34
HETATM   34  C   UNL     1      43.960  -9.402   8.398  1.00  0.00     0.237 C 
BRANCH  34  35
HETATM   35  C   UNL     1      44.163 -10.732   7.673  1.00  0.00     0.240 C 
HETATM   36  N   UNL     1      43.223 -11.002   6.698  1.00  0.00    -0.326 N 
HETATM   37  H   UNL     1      42.508 -10.297   6.555  1.00  0.00     0.169 HD
HETATM   38  O   UNL     1      45.046 -11.495   8.060  1.00  0.00    -0.271 OA
BRANCH  36  39
HETATM   39  C   UNL     1      43.118 -12.176   5.920  1.00  0.00     0.034 A 
HETATM   40  C   UNL     1      42.603 -13.383   6.394  1.00  0.00     0.030 A 
HETATM   41  C   UNL     1      42.516 -14.503   5.559  1.00  0.00     0.009 A 
HETATM   42  C   UNL     1      42.940 -14.433   4.230  1.00  0.00    -0.062 A 
HETATM   43  C   UNL     1      42.866 -15.637   3.339  1.00  0.00     0.048 C 
HETATM   44  C   UNL     1      43.476 -13.231   3.757  1.00  0.00     0.009 A 
HETATM   45  C   UNL     1      43.559 -12.112   4.594  1.00  0.00     0.030 A 
ENDBRANCH  36  39
ENDBRANCH  34  35
ENDBRANCH   1  34
TORSDOF 8
ENDMDL
MODEL 5
REMARK VINA RESULT:      -8.9      4.662      7.600
REMARK  8 active torsions:
REMARK  status: ('A' for Active; 'I' for Inactive)
REMARK    1  A    between atoms: C_5  and  N_6 
REMARK       I    between atoms: N_6  and  C_7 
REMARK    2  A    between atoms: C_7  and  C_8 
REMARK    3  A    between atoms: C_8  and  N_9 
REMARK    4  A    between atoms: N_12  and  C_13 
REMARK    5  A    between atoms: C_13  and  C_14 
REMARK    6  A    between atoms: C_17  and  C_18 
REMARK       I    between atoms: C_18  and  N_19 
REMARK    7  A    between atoms: N_19  and  C_20 
REMARK    8  A    between atoms: C_20  and  C_21 
ROOT
HETATM    1  N   UNL     1      43.350 -16.744   2.986  1.00  0.00    -0.290 N 
HETATM    2  C   UNL     1      43.564 -15.734   3.916  1.00  0.00     0.332 C 
HETATM    3  O   UNL     1      43.603 -14.554   3.561  1.00  0.00    -0.246 OA
HETATM    4  N   UNL     1      43.701 -16.116   5.242  1.00  0.00    -0.261 N 
HETATM    5  C   UNL     1      43.704 -17.434   5.679  1.00  0.00     0.264 C 
HETATM    6  O   UNL     1      43.644 -17.773   6.859  1.00  0.00    -0.267 OA
HETATM    7  C   UNL     1      43.728 -18.477   4.643  1.00  0.00     0.059 A 
HETATM    8  C   UNL     1      43.506 -18.117   3.315  1.00  0.00     0.055 A 
HETATM    9  C   UNL     1      43.895 -19.820   5.014  1.00  0.00     0.019 A 
HETATM   10  C   UNL     1      43.845 -20.819   4.048  1.00  0.00     0.001 A 
HETATM   11  C   UNL     1      43.619 -20.478   2.718  1.00  0.00     0.002 A 
HETATM   12  C   UNL     1      43.447 -19.137   2.353  1.00  0.00     0.031 A 
ENDROOT
BRANCH   4  13
HETATM   13  C   UNL     1      43.579 -15.080   6.260  1.00  0.00     0.175 C 
BRANCH  13  14
HETATM   14  C   UNL     1      42.401 -14.147   6.080  1.00  0.00    -0.040 A 
HETATM   15  C   UNL     1      41.084 -14.628   6.098  1.00  0.00     0.010 A 
HETATM   16  C   UNL     1      40.001 -13.739   6.038  1.00  0.00     0.017 A 
HETATM   17  C   UNL     1      40.224 -12.358   5.945  1.00  0.00     0.032 A 
HETATM   18  C   UNL     1      41.538 -11.881   5.903  1.00  0.00     0.017 A 
HETATM   19  C   UNL     1      42.614 -12.766   5.965  1.00  0.00     0.010 A 
BRANCH  17  20
HETATM   20  C   UNL     1      39.122 -11.352   5.956  1.00  0.00     0.251 C 
HETATM   21  N   UNL     1      39.266 -10.253   5.140  1.00  0.00    -0.353 N 
HETATM   22  H   UNL     1      40.139 -10.074   4.668  1.00  0.00     0.163 HD
HETATM   23  O   UNL     1      38.152 -11.521   6.686  1.00  0.00    -0.268 OA
BRANCH  21  24
HETATM   24  C   UNL     1      38.253  -9.221   5.076  1.00  0.00     0.161 C 
BRANCH  24  25
HETATM   25  C   UNL     1      38.315  -8.471   3.769  1.00  0.00    -0.038 A 
HETATM   26  C   UNL     1      39.468  -8.532   2.970  1.00  0.00     0.048 A 
HETATM   27  C   UNL     1      39.465  -7.849   1.772  1.00  0.00     0.105 A 
HETATM   28  C   UNL     1      38.377  -7.121   1.353  1.00  0.00     0.105 A 
HETATM   29  O   UNL     1      40.492  -7.807   0.881  1.00  0.00    -0.323 OA
HETATM   30  O   UNL     1      38.582  -6.529   0.146  1.00  0.00    -0.323 OA
HETATM   31  C   UNL     1      37.227  -7.038   2.106  1.00  0.00     0.040 A 
HETATM   32  C   UNL     1      39.918  -6.984  -0.155  1.00  0.00     0.352 A 
HETATM   33  C   UNL     1      37.198  -7.725   3.324  1.00  0.00     0.012 A 
ENDBRANCH  24  25
ENDBRANCH  21  24
ENDBRANCH  17  20
ENDBRANCH  13  14
ENDBRANCH   4  13
BRANCH   1  34
HETATM   34  C   UNL     1      42.792 -16.365   1.681  1.00  0.00     0.237 C 
BRANCH  34  35
HETATM   35  C   UNL     1      41.439 -15.655   1.682  1.00  0.00     0.240 C 
HETATM   36  N   UNL     1      41.453 -14.395   1.119  1.00  0.00    -0.326 N 
HETATM   37  H   UNL     1      42.343 -14.074   0.756  1.00  0.00     0.169 HD
HETATM   38  O   UNL     1      40.489 -16.182   2.257  1.00  0.00    -0.271 OA
BRANCH  36  39
HETATM   39  C   UNL     1      40.375 -13.486   1.043  1.00  0.00     0.034 A 
HETATM   40  C   UNL     1      39.793 -13.061  -0.152  1.00  0.00     0.030 A 
HETATM   41  C   UNL     1      38.716 -12.168  -0.148  1.00  0.00     0.009 A 
HETATM   42  C   UNL     1      38.196 -11.686   1.055  1.00  0.00    -0.062 A 
HETATM   43  C   UNL     1      37.054 -10.714   1.060  1.00  0.00     0.048 C 
HETATM   44  C   UNL     1      38.789 -12.092   2.254  1.00  0.00     0.009 A 
HETATM   45  C   UNL     1      39.865 -12.988   2.248  1.00  0.00     0.030 A 
ENDBRANCH  36  39
ENDBRANCH  34  35
ENDBRANCH   1  34
TORSDOF 8
ENDMDL
MODEL 6
REMARK VINA RESULT:      -8.8      2.994      9.993
REMARK  8 active torsions:
REMARK  status: ('A' for Active; 'I' for Inactive)
REMARK    1  A    between atoms: C_5  and  N_6 
REMARK       I    between atoms: N_6  and  C_7 
REMARK    2  A    between atoms: C_7  and  C_8 
REMARK    3  A    between atoms: C_8  and  N_9 
REMARK    4  A    between atoms: N_12  and  C_13 
REMARK    5  A    between atoms: C_13  and  C_14 
REMARK    6  A    between atoms: C_17  and  C_18 
REMARK       I    between atoms: C_18  and  N_19 
REMARK    7  A    between atoms: N_19  and  C_20 
REMARK    8  A    between atoms: C_20  and  C_21 
ROOT
HETATM    1  N   UNL     1      40.621  -9.380  10.553  1.00  0.00    -0.290 N 
HETATM    2  C   UNL     1      39.756  -9.422   9.466  1.00  0.00     0.332 C 
HETATM    3  O   UNL     1      38.553  -9.632   9.631  1.00  0.00    -0.246 OA
HETATM    4  N   UNL     1      40.306  -9.193   8.214  1.00  0.00    -0.261 N 
HETATM    5  C   UNL     1      41.660  -8.994   7.979  1.00  0.00     0.264 C 
HETATM    6  O   UNL     1      42.129  -8.614   6.908  1.00  0.00    -0.267 OA
HETATM    7  C   UNL     1      42.569  -9.206   9.115  1.00  0.00     0.059 A 
HETATM    8  C   UNL     1      42.033  -9.352  10.393  1.00  0.00     0.055 A 
HETATM    9  C   UNL     1      43.956  -9.180   8.907  1.00  0.00     0.019 A 
HETATM   10  C   UNL     1      44.824  -9.306   9.988  1.00  0.00     0.001 A 
HETATM   11  C   UNL     1      44.305  -9.447  11.271  1.00  0.00     0.002 A 
HETATM   12  C   UNL     1      42.920  -9.467  11.474  1.00  0.00     0.031 A 
ENDROOT
BRANCH   4  13
HETATM   13  C   UNL     1      39.391  -8.890   7.120  1.00  0.00     0.175 C 
BRANCH  13  14
HETATM   14  C   UNL     1      39.322  -9.945   6.037  1.00  0.00    -0.040 A 
HETATM   15  C   UNL     1      39.065  -9.601   4.703  1.00  0.00     0.010 A 
HETATM   16  C   UNL     1      39.111 -10.575   3.695  1.00  0.00     0.017 A 
HETATM   17  C   UNL     1      39.399 -11.910   4.014  1.00  0.00     0.032 A 
HETATM   18  C   UNL     1      39.633 -12.256   5.349  1.00  0.00     0.017 A 
HETATM   19  C   UNL     1      39.589 -11.286   6.350  1.00  0.00     0.010 A 
BRANCH  17  20
HETATM   20  C   UNL     1      39.542 -12.982   2.986  1.00  0.00     0.251 C 
HETATM   21  N   UNL     1      39.811 -14.254   3.437  1.00  0.00    -0.353 N 
HETATM   22  H   UNL     1      40.039 -14.418   4.405  1.00  0.00     0.163 HD
HETATM   23  O   UNL     1      39.432 -12.702   1.797  1.00  0.00    -0.268 OA
BRANCH  21  24
HETATM   24  C   UNL     1      39.964 -15.364   2.521  1.00  0.00     0.161 C 
BRANCH  24  25
HETATM   25  C   UNL     1      41.142 -16.227   2.896  1.00  0.00    -0.038 A 
HETATM   26  C   UNL     1      41.538 -16.343   4.238  1.00  0.00     0.048 A 
HETATM   27  C   UNL     1      42.606 -17.165   4.532  1.00  0.00     0.105 A 
HETATM   28  C   UNL     1      43.281 -17.857   3.555  1.00  0.00     0.105 A 
HETATM   29  O   UNL     1      43.112 -17.392   5.774  1.00  0.00    -0.323 OA
HETATM   30  O   UNL     1      44.297 -18.607   4.059  1.00  0.00    -0.323 OA
HETATM   31  C   UNL     1      42.923 -17.772   2.228  1.00  0.00     0.040 A 
HETATM   32  C   UNL     1      44.173 -18.322   5.467  1.00  0.00     0.352 A 
HETATM   33  C   UNL     1      41.839 -16.951   1.900  1.00  0.00     0.012 A 
ENDBRANCH  24  25
ENDBRANCH  21  24
ENDBRANCH  17  20
ENDBRANCH  13  14
ENDBRANCH   4  13
BRANCH   1  34
HETATM   34  C   UNL     1      40.035  -9.198  11.887  1.00  0.00     0.237 C 
BRANCH  34  35
HETATM   35  C   UNL     1      39.802  -7.761  12.355  1.00  0.00     0.240 C 
HETATM   36  N   UNL     1      38.761  -7.612  13.250  1.00  0.00    -0.326 N 
HETATM   37  H   UNL     1      38.269  -8.458  13.513  1.00  0.00     0.169 HD
HETATM   38  O   UNL     1      40.455  -6.854  11.844  1.00  0.00    -0.271 OA
BRANCH  36  39
HETATM   39  C   UNL     1      38.276  -6.403  13.795  1.00  0.00     0.034 A 
HETATM   40  C   UNL     1      37.465  -5.503  13.101  1.00  0.00     0.030 A 
HETATM   41  C   UNL     1      37.009  -4.330  13.712  1.00  0.00     0.009 A 
HETATM   42  C   UNL     1      37.353  -4.037  15.033  1.00  0.00    -0.062 A 
HETATM   43  C   UNL     1      36.880  -2.771  15.684  1.00  0.00     0.048 C 
HETATM   44  C   UNL     1      38.181  -4.925  15.726  1.00  0.00     0.009 A 
HETATM   45  C   UNL     1      38.634  -6.100  15.113  1.00  0.00     0.030 A 
ENDBRANCH  36  39
ENDBRANCH  34  35
ENDBRANCH   1  34
TORSDOF 8
ENDMDL
MODEL 7
REMARK VINA RESULT:      -8.8      2.895     10.418
REMARK  8 active torsions:
REMARK  status: ('A' for Active; 'I' for Inactive)
REMARK    1  A    between atoms: C_5  and  N_6 
REMARK       I    between atoms: N_6  and  C_7 
REMARK    2  A    between atoms: C_7  and  C_8 
REMARK    3  A    between atoms: C_8  and  N_9 
REMARK    4  A    between atoms: N_12  and  C_13 
REMARK    5  A    between atoms: C_13  and  C_14 
REMARK    6  A    between atoms: C_17  and  C_18 
REMARK       I    between atoms: C_18  and  N_19 
REMARK    7  A    between atoms: N_19  and  C_20 
REMARK    8  A    between atoms: C_20  and  C_21 
ROOT
HETATM    1  N   UNL     1      42.887  -7.083  10.564  1.00  0.00    -0.290 N 
HETATM    2  C   UNL     1      43.672  -7.695   9.594  1.00  0.00     0.332 C 
HETATM    3  O   UNL     1      43.978  -7.091   8.564  1.00  0.00    -0.246 OA
HETATM    4  N   UNL     1      44.105  -8.986   9.855  1.00  0.00    -0.261 N 
HETATM    5  C   UNL     1      43.751  -9.717  10.982  1.00  0.00     0.264 C 
HETATM    6  O   UNL     1      44.269 -10.783  11.308  1.00  0.00    -0.267 OA
HETATM    7  C   UNL     1      42.724  -9.132  11.856  1.00  0.00     0.059 A 
HETATM    8  C   UNL     1      42.341  -7.806  11.658  1.00  0.00     0.055 A 
HETATM    9  C   UNL     1      42.205  -9.887  12.919  1.00  0.00     0.019 A 
HETATM   10  C   UNL     1      41.288  -9.316  13.795  1.00  0.00     0.001 A 
HETATM   11  C   UNL     1      40.899  -7.993  13.615  1.00  0.00     0.002 A 
HETATM   12  C   UNL     1      41.424  -7.241  12.557  1.00  0.00     0.031 A 
ENDROOT
BRANCH   4  13
HETATM   13  C   UNL     1      45.191  -9.513   9.037  1.00  0.00     0.175 C 
BRANCH  13  14
HETATM   14  C   UNL     1      44.750 -10.312   7.831  1.00  0.00    -0.040 A 
HETATM   15  C   UNL     1      43.395 -10.418   7.485  1.00  0.00     0.010 A 
HETATM   16  C   UNL     1      43.011 -11.072   6.306  1.00  0.00     0.017 A 
HETATM   17  C   UNL     1      43.978 -11.641   5.465  1.00  0.00     0.032 A 
HETATM   18  C   UNL     1      45.327 -11.556   5.824  1.00  0.00     0.017 A 
HETATM   19  C   UNL     1      45.708 -10.904   6.996  1.00  0.00     0.010 A 
BRANCH  17  20
HETATM   20  C   UNL     1      43.648 -12.282   4.158  1.00  0.00     0.251 C 
HETATM   21  N   UNL     1      43.153 -13.565   4.194  1.00  0.00    -0.353 N 
HETATM   22  H   UNL     1      43.149 -14.091   5.055  1.00  0.00     0.163 HD
HETATM   23  O   UNL     1      43.837 -11.667   3.115  1.00  0.00    -0.268 OA
BRANCH  21  24
HETATM   24  C   UNL     1      42.799 -14.274   2.982  1.00  0.00     0.161 C 
BRANCH  24  25
HETATM   25  C   UNL     1      43.096 -15.747   3.102  1.00  0.00    -0.038 A 
HETATM   26  C   UNL     1      43.469 -16.299   4.338  1.00  0.00     0.048 A 
HETATM   27  C   UNL     1      43.704 -17.656   4.400  1.00  0.00     0.105 A 
HETATM   28  C   UNL     1      43.585 -18.466   3.295  1.00  0.00     0.105 A 
HETATM   29  O   UNL     1      44.067 -18.347   5.513  1.00  0.00    -0.323 OA
HETATM   30  O   UNL     1      43.859 -19.768   3.574  1.00  0.00    -0.323 OA
HETATM   31  C   UNL     1      43.220 -17.964   2.065  1.00  0.00     0.040 A 
HETATM   32  C   UNL     1      44.146 -19.688   4.986  1.00  0.00     0.352 A 
HETATM   33  C   UNL     1      42.968 -16.592   1.973  1.00  0.00     0.012 A 
ENDBRANCH  24  25
ENDBRANCH  21  24
ENDBRANCH  17  20
ENDBRANCH  13  14
ENDBRANCH   4  13
BRANCH   1  34
HETATM   34  C   UNL     1      42.768  -5.620  10.525  1.00  0.00     0.237 C 
BRANCH  34  35
HETATM   35  C   UNL     1      41.572  -5.038   9.772  1.00  0.00     0.240 C 
HETATM   36  N   UNL     1      41.025  -5.882   8.827  1.00  0.00    -0.326 N 
HETATM   37  H   UNL     1      41.457  -6.794   8.735  1.00  0.00     0.169 HD
HETATM   38  O   UNL     1      41.255  -3.866   9.969  1.00  0.00    -0.271 OA
BRANCH  36  39
HETATM   39  C   UNL     1      39.965  -5.592   7.940  1.00  0.00     0.034 A 
HETATM   40  C   UNL     1      38.614  -5.686   8.279  1.00  0.00     0.030 A 
HETATM   41  C   UNL     1      37.617  -5.367   7.350  1.00  0.00     0.009 A 
HETATM   42  C   UNL     1      37.954  -4.941   6.063  1.00  0.00    -0.062 A 
HETATM   43  C   UNL     1      36.888  -4.616   5.061  1.00  0.00     0.048 C 
HETATM   44  C   UNL     1      39.306  -4.863   5.713  1.00  0.00     0.009 A 
HETATM   45  C   UNL     1      40.302  -5.181   6.645  1.00  0.00     0.030 A 
ENDBRANCH  36  39
ENDBRANCH  34  35
ENDBRANCH   1  34
TORSDOF 8
ENDMDL
MODEL 8
REMARK VINA RESULT:      -8.8      2.739     10.192
REMARK  8 active torsions:
REMARK  status: ('A' for Active; 'I' for Inactive)
REMARK    1  A    between atoms: C_5  and  N_6 
REMARK       I    between atoms: N_6  and  C_7 
REMARK    2  A    between atoms: C_7  and  C_8 
REMARK    3  A    between atoms: C_8  and  N_9 
REMARK    4  A    between atoms: N_12  and  C_13 
REMARK    5  A    between atoms: C_13  and  C_14 
REMARK    6  A    between atoms: C_17  and  C_18 
REMARK       I    between atoms: C_18  and  N_19 
REMARK    7  A    between atoms: N_19  and  C_20 
REMARK    8  A    between atoms: C_20  and  C_21 
ROOT
HETATM    1  N   UNL     1      39.241  -7.093  12.976  1.00  0.00    -0.290 N 
HETATM    2  C   UNL     1      39.933  -8.271  13.234  1.00  0.00     0.332 C 
HETATM    3  O   UNL     1      39.545  -9.341  12.761  1.00  0.00    -0.246 OA
HETATM    4  N   UNL     1      41.075  -8.174  14.014  1.00  0.00    -0.261 N 
HETATM    5  C   UNL     1      41.524  -6.997  14.600  1.00  0.00     0.264 C 
HETATM    6  O   UNL     1      42.622  -6.866  15.137  1.00  0.00    -0.267 OA
HETATM    7  C   UNL     1      40.634  -5.831  14.513  1.00  0.00     0.059 A 
HETATM    8  C   UNL     1      39.528  -5.884  13.666  1.00  0.00     0.055 A 
HETATM    9  C   UNL     1      40.952  -4.661  15.220  1.00  0.00     0.019 A 
HETATM   10  C   UNL     1      40.155  -3.529  15.085  1.00  0.00     0.001 A 
HETATM   11  C   UNL     1      39.051  -3.564  14.239  1.00  0.00     0.002 A 
HETATM   12  C   UNL     1      38.741  -4.731  13.531  1.00  0.00     0.031 A 
ENDROOT
BRANCH   4  13
HETATM   13  C   UNL     1      41.993  -9.306  14.011  1.00  0.00     0.175 C 
BRANCH  13  14
HETATM   14  C   UNL     1      42.825  -9.448  12.755  1.00  0.00    -0.040 A 
HETATM   15  C   UNL     1      43.197 -10.709  12.269  1.00  0.00     0.010 A 
HETATM   16  C   UNL     1      43.875 -10.828  11.047  1.00  0.00     0.017 A 
HETATM   17  C   UNL     1      44.202  -9.686  10.304  1.00  0.00     0.032 A 
HETATM   18  C   UNL     1      43.851  -8.426  10.802  1.00  0.00     0.017 A 
HETATM   19  C   UNL     1      43.175  -8.308  12.016  1.00  0.00     0.010 A 
BRANCH  17  20
HETATM   20  C   UNL     1      44.851  -9.742   8.962  1.00  0.00     0.251 C 
HETATM   21  N   UNL     1      44.702 -10.905   8.240  1.00  0.00    -0.353 N 
HETATM   22  H   UNL     1      44.294 -11.724   8.663  1.00  0.00     0.163 HD
HETATM   23  O   UNL     1      45.494  -8.781   8.556  1.00  0.00    -0.268 OA
BRANCH  21  24
HETATM   24  C   UNL     1      45.290 -11.060   6.926  1.00  0.00     0.161 C 
BRANCH  24  25
HETATM   25  C   UNL     1      44.359 -11.792   5.992  1.00  0.00    -0.038 A 
HETATM   26  C   UNL     1      43.385 -12.665   6.500  1.00  0.00     0.048 A 
HETATM   27  C   UNL     1      42.542 -13.291   5.606  1.00  0.00     0.105 A 
HETATM   28  C   UNL     1      42.637 -13.082   4.250  1.00  0.00     0.105 A 
HETATM   29  O   UNL     1      41.547 -14.159   5.929  1.00  0.00    -0.323 OA
HETATM   30  O   UNL     1      41.712 -13.792   3.550  1.00  0.00    -0.323 OA
HETATM   31  C   UNL     1      43.577 -12.231   3.712  1.00  0.00     0.040 A 
HETATM   32  C   UNL     1      41.013 -14.458   4.622  1.00  0.00     0.352 A 
HETATM   33  C   UNL     1      44.441 -11.578   4.595  1.00  0.00     0.012 A 
ENDBRANCH  24  25
ENDBRANCH  21  24
ENDBRANCH  17  20
ENDBRANCH  13  14
ENDBRANCH   4  13
BRANCH   1  34
HETATM   34  C   UNL     1      38.305  -7.083  11.845  1.00  0.00     0.237 C 
BRANCH  34  35
HETATM   35  C   UNL     1      38.909  -7.011  10.442  1.00  0.00     0.240 C 
HETATM   36  N   UNL     1      39.080  -8.236   9.829  1.00  0.00    -0.326 N 
HETATM   37  H   UNL     1      38.782  -9.048  10.356  1.00  0.00     0.169 HD
HETATM   38  O   UNL     1      39.290  -5.924  10.012  1.00  0.00    -0.271 OA
BRANCH  36  39
HETATM   39  C   UNL     1      39.673  -8.480   8.571  1.00  0.00     0.034 A 
HETATM   40  C   UNL     1      39.150  -8.025   7.359  1.00  0.00     0.030 A 
HETATM   41  C   UNL     1      39.802  -8.294   6.150  1.00  0.00     0.009 A 
HETATM   42  C   UNL     1      40.995  -9.020   6.132  1.00  0.00    -0.062 A 
HETATM   43  C   UNL     1      41.685  -9.326   4.836  1.00  0.00     0.048 C 
HETATM   44  C   UNL     1      41.512  -9.495   7.341  1.00  0.00     0.009 A 
HETATM   45  C   UNL     1      40.859  -9.222   8.550  1.00  0.00     0.030 A 
ENDBRANCH  36  39
ENDBRANCH  34  35
ENDBRANCH   1  34
TORSDOF 8
ENDMDL
MODEL 9
REMARK VINA RESULT:      -8.7      2.586      9.794
REMARK  8 active torsions:
REMARK  status: ('A' for Active; 'I' for Inactive)
REMARK    1  A    between atoms: C_5  and  N_6 
REMARK       I    between atoms: N_6  and  C_7 
REMARK    2  A    between atoms: C_7  and  C_8 
REMARK    3  A    between atoms: C_8  and  N_9 
REMARK    4  A    between atoms: N_12  and  C_13 
REMARK    5  A    between atoms: C_13  and  C_14 
REMARK    6  A    between atoms: C_17  and  C_18 
REMARK       I    between atoms: C_18  and  N_19 
REMARK    7  A    between atoms: N_19  and  C_20 
REMARK    8  A    between atoms: C_20  and  C_21 
ROOT
HETATM    1  N   UNL     1      41.942  -8.497   7.063  1.00  0.00    -0.290 N 
HETATM    2  C   UNL     1      41.490  -9.808   6.972  1.00  0.00     0.332 C 
HETATM    3  O   UNL     1      42.228 -10.747   7.280  1.00  0.00    -0.246 OA
HETATM    4  N   UNL     1      40.183  -9.998   6.548  1.00  0.00    -0.261 N 
HETATM    5  C   UNL     1      39.333  -8.973   6.153  1.00  0.00     0.264 C 
HETATM    6  O   UNL     1      38.128  -9.111   5.952  1.00  0.00    -0.267 OA
HETATM    7  C   UNL     1      39.924  -7.633   6.025  1.00  0.00     0.059 A 
HETATM    8  C   UNL     1      41.206  -7.408   6.524  1.00  0.00     0.055 A 
HETATM    9  C   UNL     1      39.164  -6.590   5.476  1.00  0.00     0.019 A 
HETATM   10  C   UNL     1      39.689  -5.302   5.419  1.00  0.00     0.001 A 
HETATM   11  C   UNL     1      40.964  -5.059   5.918  1.00  0.00     0.002 A 
HETATM   12  C   UNL     1      41.717  -6.102   6.469  1.00  0.00     0.031 A 
ENDROOT
BRANCH   4  13
HETATM   13  C   UNL     1      39.584 -11.308   6.772  1.00  0.00     0.175 C 
BRANCH  13  14
HETATM   14  C   UNL     1      39.882 -12.336   5.703  1.00  0.00    -0.040 A 
HETATM   15  C   UNL     1      39.604 -12.081   4.353  1.00  0.00     0.010 A 
HETATM   16  C   UNL     1      39.984 -12.999   3.363  1.00  0.00     0.017 A 
HETATM   17  C   UNL     1      40.635 -14.190   3.714  1.00  0.00     0.032 A 
HETATM   18  C   UNL     1      40.891 -14.454   5.063  1.00  0.00     0.017 A 
HETATM   19  C   UNL     1      40.514 -13.539   6.047  1.00  0.00     0.010 A 
BRANCH  17  20
HETATM   20  C   UNL     1      41.137 -15.172   2.709  1.00  0.00     0.251 C 
HETATM   21  N   UNL     1      42.489 -15.426   2.700  1.00  0.00    -0.353 N 
HETATM   22  H   UNL     1      43.121 -14.867   3.252  1.00  0.00     0.163 HD
HETATM   23  O   UNL     1      40.351 -15.700   1.930  1.00  0.00    -0.268 OA
BRANCH  21  24
HETATM   24  C   UNL     1      43.076 -16.365   1.767  1.00  0.00     0.161 C 
BRANCH  24  25
HETATM   25  C   UNL     1      43.336 -17.699   2.421  1.00  0.00    -0.038 A 
HETATM   26  C   UNL     1      43.577 -17.778   3.802  1.00  0.00     0.048 A 
HETATM   27  C   UNL     1      43.784 -19.024   4.356  1.00  0.00     0.105 A 
HETATM   28  C   UNL     1      43.761 -20.169   3.596  1.00  0.00     0.105 A 
HETATM   29  O   UNL     1      44.025 -19.276   5.670  1.00  0.00    -0.323 OA
HETATM   30  O   UNL     1      43.985 -21.288   4.337  1.00  0.00    -0.323 OA
HETATM   31  C   UNL     1      43.525 -20.135   2.240  1.00  0.00     0.040 A 
HETATM   32  C   UNL     1      44.133 -20.715   5.653  1.00  0.00     0.352 A 
HETATM   33  C   UNL     1      43.306 -18.886   1.651  1.00  0.00     0.012 A 
ENDBRANCH  24  25
ENDBRANCH  21  24
ENDBRANCH  17  20
ENDBRANCH  13  14
ENDBRANCH   4  13
BRANCH   1  34
HETATM   34  C   UNL     1      43.131  -8.239   7.884  1.00  0.00     0.237 C 
BRANCH  34  35
HETATM   35  C   UNL     1      42.898  -7.737   9.309  1.00  0.00     0.240 C 
HETATM   36  N   UNL     1      42.502  -8.712  10.202  1.00  0.00    -0.326 N 
HETATM   37  H   UNL     1      42.417  -9.652   9.833  1.00  0.00     0.169 HD
HETATM   38  O   UNL     1      42.967  -6.530   9.536  1.00  0.00    -0.271 OA
BRANCH  36  39
HETATM   39  C   UNL     1      42.152  -8.531  11.558  1.00  0.00     0.034 A 
HETATM   40  C   UNL     1      40.845  -8.609  12.044  1.00  0.00     0.030 A 
HETATM   41  C   UNL     1      40.575  -8.432  13.406  1.00  0.00     0.009 A 
HETATM   42  C   UNL     1      41.610  -8.179  14.309  1.00  0.00    -0.062 A 
HETATM   43  C   UNL     1      41.320  -7.971  15.766  1.00  0.00     0.048 C 
HETATM   44  C   UNL     1      42.917  -8.081  13.824  1.00  0.00     0.009 A 
HETATM   45  C   UNL     1      43.186  -8.260  12.461  1.00  0.00     0.030 A 
ENDBRANCH  36  39
ENDBRANCH  34  35
ENDBRANCH   1  34
TORSDOF 8
ENDMDL
MODEL 10
REMARK VINA RESULT:      -8.7      4.390      9.743
REMARK  8 active torsions:
REMARK  status: ('A' for Active; 'I' for Inactive)
REMARK    1  A    between atoms: C_5  and  N_6 
REMARK       I    between atoms: N_6  and  C_7 
REMARK    2  A    between atoms: C_7  and  C_8 
REMARK    3  A    between atoms: C_8  and  N_9 
REMARK    4  A    between atoms: N_12  and  C_13 
REMARK    5  A    between atoms: C_13  and  C_14 
REMARK    6  A    between atoms: C_17  and  C_18 
REMARK       I    between atoms: C_18  and  N_19 
REMARK    7  A    between atoms: N_19  and  C_20 
REMARK    8  A    between atoms: C_20  and  C_21 
ROOT
HETATM    1  N   UNL     1      41.108 -11.671   6.186  1.00  0.00    -0.290 N 
HETATM    2  C   UNL     1      40.611 -12.916   5.821  1.00  0.00     0.332 C 
HETATM    3  O   UNL     1      39.405 -13.076   5.625  1.00  0.00    -0.246 OA
HETATM    4  N   UNL     1      41.532 -13.942   5.667  1.00  0.00    -0.261 N 
HETATM    5  C   UNL     1      42.892 -13.816   5.917  1.00  0.00     0.264 C 
HETATM    6  O   UNL     1      43.733 -14.659   5.613  1.00  0.00    -0.267 OA
HETATM    7  C   UNL     1      43.339 -12.561   6.539  1.00  0.00     0.059 A 
HETATM    8  C   UNL     1      42.448 -11.492   6.622  1.00  0.00     0.055 A 
HETATM    9  C   UNL     1      44.670 -12.434   6.964  1.00  0.00     0.019 A 
HETATM   10  C   UNL     1      45.120 -11.225   7.486  1.00  0.00     0.001 A 
HETATM   11  C   UNL     1      44.246 -10.146   7.571  1.00  0.00     0.002 A 
HETATM   12  C   UNL     1      42.920 -10.277   7.140  1.00  0.00     0.031 A 
ENDROOT
BRANCH   4  13
HETATM   13  C   UNL     1      41.095 -15.141   4.962  1.00  0.00     0.175 C 
BRANCH  13  14
HETATM   14  C   UNL     1      40.914 -14.972   3.470  1.00  0.00    -0.040 A 
HETATM   15  C   UNL     1      40.017 -15.775   2.751  1.00  0.00     0.010 A 
HETATM   16  C   UNL     1      39.781 -15.536   1.390  1.00  0.00     0.017 A 
HETATM   17  C   UNL     1      40.451 -14.498   0.727  1.00  0.00     0.032 A 
HETATM   18  C   UNL     1      41.363 -13.712   1.440  1.00  0.00     0.017 A 
HETATM   19  C   UNL     1      41.596 -13.950   2.794  1.00  0.00     0.010 A 
BRANCH  17  20
HETATM   20  C   UNL     1      40.191 -14.136  -0.697  1.00  0.00     0.251 C 
HETATM   21  N   UNL     1      40.894 -13.072  -1.214  1.00  0.00    -0.353 N 
HETATM   22  H   UNL     1      41.450 -12.483  -0.613  1.00  0.00     0.163 HD
HETATM   23  O   UNL     1      39.368 -14.772  -1.345  1.00  0.00    -0.268 OA
BRANCH  21  24
HETATM   24  C   UNL     1      40.717 -12.643  -2.585  1.00  0.00     0.161 C 
BRANCH  24  25
HETATM   25  C   UNL     1      40.933 -11.157  -2.728  1.00  0.00    -0.038 A 
HETATM   26  C   UNL     1      41.464 -10.412  -1.663  1.00  0.00     0.048 A 
HETATM   27  C   UNL     1      41.666  -9.060  -1.853  1.00  0.00     0.105 A 
HETATM   28  C   UNL     1      41.362  -8.440  -3.041  1.00  0.00     0.105 A 
HETATM   29  O   UNL     1      42.175  -8.199  -0.932  1.00  0.00    -0.323 OA
HETATM   30  O   UNL     1      41.639  -7.109  -3.017  1.00  0.00    -0.323 OA
HETATM   31  C   UNL     1      40.841  -9.136  -4.110  1.00  0.00     0.040 A 
HETATM   32  C   UNL     1      42.171  -6.967  -1.684  1.00  0.00     0.352 A 
HETATM   33  C   UNL     1      40.631 -10.509  -3.949  1.00  0.00     0.012 A 
ENDBRANCH  24  25
ENDBRANCH  21  24
ENDBRANCH  17  20
ENDBRANCH  13  14
ENDBRANCH   4  13
BRANCH   1  34
HETATM   34  C   UNL     1      40.255 -10.498   5.950  1.00  0.00     0.237 C 
BRANCH  34  35
HETATM   35  C   UNL     1      40.084 -10.041   4.502  1.00  0.00     0.240 C 
HETATM   36  N   UNL     1      39.085 -10.697   3.809  1.00  0.00    -0.326 N 
HETATM   37  H   UNL     1      38.565 -11.397   4.325  1.00  0.00     0.169 HD
HETATM   38  O   UNL     1      40.883  -9.234   4.032  1.00  0.00    -0.271 OA
BRANCH  36  39
HETATM   39  C   UNL     1      38.747 -10.534   2.448  1.00  0.00     0.034 A 
HETATM   40  C   UNL     1      38.285 -11.565   1.629  1.00  0.00     0.030 A 
HETATM   41  C   UNL     1      37.955 -11.325   0.290  1.00  0.00     0.009 A 
HETATM   42  C   UNL     1      38.078 -10.045  -0.254  1.00  0.00    -0.062 A 
HETATM   43  C   UNL     1      37.743  -9.789  -1.693  1.00  0.00     0.048 C 
HETATM   44  C   UNL     1      38.560  -9.013   0.557  1.00  0.00     0.009 A 
HETATM   45  C   UNL     1      38.886  -9.255   1.898  1.00  0.00     0.030 A 
ENDBRANCH  36  39
ENDBRANCH  34  35
ENDBRANCH   1  34
TORSDOF 8
ENDMDL
