MODEL 1
REMARK VINA RESULT:      -9.3      0.000      0.000
REMARK  6 active torsions:
REMARK  status: ('A' for Active; 'I' for Inactive)
REMARK    1  A    between atoms: O_2  and  C_3 
REMARK    2  A    between atoms: C_6  and  C_7 
REMARK       I    between atoms: C_7  and  N_8 
REMARK    3  A    between atoms: N_8  and  N_9 
REMARK    4  A    between atoms: N_13  and  C_14 
REMARK    5  A    between atoms: C_14  and  C_15 
REMARK    6  A    between atoms: C_15  and  C_16 
ROOT
HETATM    1  N   UNL     1      42.068 -11.498   2.570  1.00  0.00    -0.166 NA
HETATM    2  C   UNL     1      41.755 -12.689   2.171  1.00  0.00     0.157 A 
HETATM    3  C   UNL     1      42.104 -14.031   2.810  1.00  0.00     0.279 A 
HETATM    4  O   UNL     1      42.792 -14.150   3.803  1.00  0.00    -0.265 OA
HETATM    5  N   UNL     1      41.486 -14.990   2.024  1.00  0.00    -0.311 N 
HETATM    6  C   UNL     1      40.956 -12.996   0.994  1.00  0.00     0.027 A 
HETATM    7  C   UNL     1      40.812 -14.383   0.946  1.00  0.00     0.050 A 
HETATM    8  C   UNL     1      40.094 -14.966  -0.081  1.00  0.00     0.031 A 
HETATM    9  C   UNL     1      39.539 -14.125  -1.057  1.00  0.00     0.002 A 
HETATM   10  C   UNL     1      39.701 -12.728  -0.995  1.00  0.00     0.001 A 
HETATM   11  C   UNL     1      40.419 -12.144   0.049  1.00  0.00     0.016 A 
ENDROOT
BRANCH   1  12
HETATM   12  N   UNL     1      42.836 -11.404   3.697  1.00  0.00    -0.242 N 
HETATM   13  C   UNL     1      42.250 -11.011   4.890  1.00  0.00     0.271 C 
HETATM   14  O   UNL     1      41.054 -10.759   5.023  1.00  0.00    -0.266 OA
HETATM   15  H   UNL     1      43.837 -11.565   3.611  1.00  0.00     0.192 HD
BRANCH  13  16
HETATM   16  C   UNL     1      43.156 -10.864   6.073  1.00  0.00     0.033 A 
HETATM   17  C   UNL     1      42.850 -10.081   7.192  1.00  0.00     0.020 A 
HETATM   18  C   UNL     1      43.749 -10.013   8.264  1.00  0.00     0.038 A 
HETATM   19  C   UNL     1      44.958 -10.713   8.237  1.00  0.00     0.068 A 
HETATM   20  C   UNL     1      45.276 -11.476   7.115  1.00  0.00     0.038 A 
HETATM   21  C   UNL     1      44.380 -11.548   6.042  1.00  0.00     0.020 A 
BRANCH  19  22
HETATM   22  O   UNL     1      45.734 -10.564   9.353  1.00  0.00    -0.356 OA
HETATM   23  C   UNL     1      45.153  -9.871  10.450  1.00  0.00     0.210 C 
ENDBRANCH  19  22
ENDBRANCH  13  16
ENDBRANCH   1  12
BRANCH   5  24
HETATM   24  C   UNL     1      41.568 -16.414   2.270  1.00  0.00     0.137 C 
BRANCH  24  25
HETATM   25  C   UNL     1      42.919 -17.003   1.845  1.00  0.00     0.059 C 
BRANCH  25  26
HETATM   26  C   UNL     1      43.312 -18.185   2.698  1.00  0.00    -0.057 A 
HETATM   27  C   UNL     1      43.717 -18.006   4.028  1.00  0.00     0.007 A 
HETATM   28  C   UNL     1      44.101 -19.101   4.804  1.00  0.00     0.001 A 
HETATM   29  C   UNL     1      44.078 -20.385   4.262  1.00  0.00     0.000 A 
HETATM   30  C   UNL     1      43.668 -20.575   2.943  1.00  0.00     0.001 A 
HETATM   31  C   UNL     1      43.288 -19.481   2.164  1.00  0.00     0.007 A 
ENDBRANCH  25  26
ENDBRANCH  24  25
ENDBRANCH   5  24
TORSDOF 6
ENDMDL
MODEL 2
REMARK VINA RESULT:      -9.1      1.905      2.684
REMARK  6 active torsions:
REMARK  status: ('A' for Active; 'I' for Inactive)
REMARK    1  A    between atoms: O_2  and  C_3 
REMARK    2  A    between atoms: C_6  and  C_7 
REMARK       I    between atoms: C_7  and  N_8 
REMARK    3  A    between atoms: N_8  and  N_9 
REMARK    4  A    between atoms: N_13  and  C_14 
REMARK    5  A    between atoms: C_14  and  C_15 
REMARK    6  A    between atoms: C_15  and  C_16 
ROOT
HETATM    1  N   UNL     1      40.921 -12.106   5.186  1.00  0.00    -0.166 NA
HETATM    2  C   UNL     1      41.175 -13.348   4.930  1.00  0.00     0.157 A 
HETATM    3  C   UNL     1      41.902 -14.372   5.798  1.00  0.00     0.279 A 
HETATM    4  O   UNL     1      42.393 -14.117   6.879  1.00  0.00    -0.265 OA
HETATM    5  N   UNL     1      41.859 -15.561   5.089  1.00  0.00    -0.311 N 
HETATM    6  C   UNL     1      40.784 -14.051   3.716  1.00  0.00     0.027 A 
HETATM    7  C   UNL     1      41.205 -15.374   3.855  1.00  0.00     0.050 A 
HETATM    8  C   UNL     1      40.967 -16.283   2.841  1.00  0.00     0.031 A 
HETATM    9  C   UNL     1      40.310 -15.826   1.688  1.00  0.00     0.002 A 
HETATM   10  C   UNL     1      39.900 -14.486   1.565  1.00  0.00     0.001 A 
HETATM   11  C   UNL     1      40.133 -13.575   2.595  1.00  0.00     0.016 A 
ENDROOT
BRANCH   1  12
HETATM   12  N   UNL     1      41.376 -11.612   6.376  1.00  0.00    -0.242 N 
HETATM   13  C   UNL     1      42.210 -10.505   6.381  1.00  0.00     0.271 C 
HETATM   14  O   UNL     1      42.561  -9.900   5.371  1.00  0.00    -0.266 OA
HETATM   15  H   UNL     1      41.137 -12.116   7.228  1.00  0.00     0.192 HD
BRANCH  13  16
HETATM   16  C   UNL     1      42.727 -10.053   7.712  1.00  0.00     0.033 A 
HETATM   17  C   UNL     1      41.998  -9.246   8.594  1.00  0.00     0.020 A 
HETATM   18  C   UNL     1      42.551  -8.884   9.828  1.00  0.00     0.038 A 
HETATM   19  C   UNL     1      43.830  -9.309  10.199  1.00  0.00     0.068 A 
HETATM   20  C   UNL     1      44.567 -10.093   9.314  1.00  0.00     0.038 A 
HETATM   21  C   UNL     1      44.018 -10.460   8.080  1.00  0.00     0.020 A 
BRANCH  19  22
HETATM   22  O   UNL     1      44.241  -8.889  11.433  1.00  0.00    -0.356 OA
HETATM   23  C   UNL     1      43.222  -8.555  12.369  1.00  0.00     0.210 C 
ENDBRANCH  19  22
ENDBRANCH  13  16
ENDBRANCH   1  12
BRANCH   5  24
HETATM   24  C   UNL     1      42.445 -16.801   5.550  1.00  0.00     0.137 C 
BRANCH  24  25
HETATM   25  C   UNL     1      43.801 -17.086   4.891  1.00  0.00     0.059 C 
BRANCH  25  26
HETATM   26  C   UNL     1      43.851 -18.464   4.277  1.00  0.00    -0.057 A 
HETATM   27  C   UNL     1      43.686 -18.641   2.897  1.00  0.00     0.007 A 
HETATM   28  C   UNL     1      43.710 -19.920   2.339  1.00  0.00     0.001 A 
HETATM   29  C   UNL     1      43.905 -21.035   3.153  1.00  0.00     0.000 A 
HETATM   30  C   UNL     1      44.080 -20.870   4.527  1.00  0.00     0.001 A 
HETATM   31  C   UNL     1      44.051 -19.591   5.087  1.00  0.00     0.007 A 
ENDBRANCH  25  26
ENDBRANCH  24  25
ENDBRANCH   5  24
TORSDOF 6
ENDMDL
MODEL 3
REMARK VINA RESULT:      -8.9      2.265      7.258
REMARK  6 active torsions:
REMARK  status: ('A' for Active; 'I' for Inactive)
REMARK    1  A    between atoms: O_2  and  C_3 
REMARK    2  A    between atoms: C_6  and  C_7 
REMARK       I    between atoms: C_7  and  N_8 
REMARK    3  A    between atoms: N_8  and  N_9 
REMARK    4  A    between atoms: N_13  and  C_14 
REMARK    5  A    between atoms: C_14  and  C_15 
REMARK    6  A    between atoms: C_15  and  C_16 
ROOT
HETATM    1  N   UNL     1      42.497 -11.979   2.640  1.00  0.00    -0.166 NA
HETATM    2  C   UNL     1      42.679 -12.804   3.620  1.00  0.00     0.157 A 
HETATM    3  C   UNL     1      42.467 -14.316   3.645  1.00  0.00     0.279 A 
HETATM    4  O   UNL     1      42.040 -14.956   2.705  1.00  0.00    -0.265 OA
HETATM    5  N   UNL     1      42.854 -14.725   4.910  1.00  0.00    -0.311 N 
HETATM    6  C   UNL     1      43.159 -12.440   4.945  1.00  0.00     0.027 A 
HETATM    7  C   UNL     1      43.258 -13.619   5.684  1.00  0.00     0.050 A 
HETATM    8  C   UNL     1      43.691 -13.576   6.995  1.00  0.00     0.031 A 
HETATM    9  C   UNL     1      44.009 -12.325   7.543  1.00  0.00     0.002 A 
HETATM   10  C   UNL     1      43.896 -11.145   6.783  1.00  0.00     0.001 A 
HETATM   11  C   UNL     1      43.468 -11.195   5.457  1.00  0.00     0.016 A 
ENDROOT
BRANCH   1  12
HETATM   12  N   UNL     1      42.030 -12.501   1.467  1.00  0.00    -0.242 N 
HETATM   13  C   UNL     1      40.836 -12.034   0.939  1.00  0.00     0.271 C 
HETATM   14  O   UNL     1      40.159 -11.142   1.446  1.00  0.00    -0.266 OA
HETATM   15  H   UNL     1      42.546 -13.270   1.044  1.00  0.00     0.192 HD
BRANCH  13  16
HETATM   16  C   UNL     1      40.346 -12.692  -0.313  1.00  0.00     0.033 A 
HETATM   17  C   UNL     1      40.274 -12.045  -1.553  1.00  0.00     0.020 A 
HETATM   18  C   UNL     1      39.819 -12.742  -2.679  1.00  0.00     0.038 A 
HETATM   19  C   UNL     1      39.426 -14.080  -2.589  1.00  0.00     0.068 A 
HETATM   20  C   UNL     1      39.475 -14.721  -1.353  1.00  0.00     0.038 A 
HETATM   21  C   UNL     1      39.931 -14.029  -0.225  1.00  0.00     0.020 A 
BRANCH  19  22
HETATM   22  O   UNL     1      39.012 -14.639  -3.767  1.00  0.00    -0.356 OA
HETATM   23  C   UNL     1      37.621 -14.570  -4.055  1.00  0.00     0.210 C 
ENDBRANCH  19  22
ENDBRANCH  13  16
ENDBRANCH   1  12
BRANCH   5  24
HETATM   24  C   UNL     1      42.806 -16.098   5.367  1.00  0.00     0.137 C 
BRANCH  24  25
HETATM   25  C   UNL     1      44.136 -16.831   5.153  1.00  0.00     0.059 C 
BRANCH  25  26
HETATM   26  C   UNL     1      43.958 -18.101   4.356  1.00  0.00    -0.057 A 
HETATM   27  C   UNL     1      43.538 -18.056   3.019  1.00  0.00     0.007 A 
HETATM   28  C   UNL     1      43.353 -19.235   2.296  1.00  0.00     0.001 A 
HETATM   29  C   UNL     1      43.592 -20.470   2.897  1.00  0.00     0.000 A 
HETATM   30  C   UNL     1      44.020 -20.526   4.223  1.00  0.00     0.001 A 
HETATM   31  C   UNL     1      44.200 -19.347   4.950  1.00  0.00     0.007 A 
ENDBRANCH  25  26
ENDBRANCH  24  25
ENDBRANCH   5  24
TORSDOF 6
ENDMDL
MODEL 4
REMARK VINA RESULT:      -8.8      2.755      7.211
REMARK  6 active torsions:
REMARK  status: ('A' for Active; 'I' for Inactive)
REMARK    1  A    between atoms: O_2  and  C_3 
REMARK    2  A    between atoms: C_6  and  C_7 
REMARK       I    between atoms: C_7  and  N_8 
REMARK    3  A    between atoms: N_8  and  N_9 
REMARK    4  A    between atoms: N_13  and  C_14 
REMARK    5  A    between atoms: C_14  and  C_15 
REMARK    6  A    between atoms: C_15  and  C_16 
ROOT
HETATM    1  N   UNL     1      42.768 -16.635   1.323  1.00  0.00    -0.166 NA
HETATM    2  C   UNL     1      43.161 -16.957   2.513  1.00  0.00     0.157 A 
HETATM    3  C   UNL     1      43.421 -16.046   3.710  1.00  0.00     0.279 A 
HETATM    4  O   UNL     1      43.321 -14.836   3.675  1.00  0.00    -0.265 OA
HETATM    5  N   UNL     1      43.770 -16.889   4.752  1.00  0.00    -0.311 N 
HETATM    6  C   UNL     1      43.429 -18.313   2.970  1.00  0.00     0.027 A 
HETATM    7  C   UNL     1      43.783 -18.229   4.317  1.00  0.00     0.050 A 
HETATM    8  C   UNL     1      44.097 -19.377   5.020  1.00  0.00     0.031 A 
HETATM    9  C   UNL     1      44.058 -20.600   4.333  1.00  0.00     0.002 A 
HETATM   10  C   UNL     1      43.706 -20.663   2.972  1.00  0.00     0.001 A 
HETATM   11  C   UNL     1      43.380 -19.503   2.270  1.00  0.00     0.016 A 
ENDROOT
BRANCH   1  12
HETATM   12  N   UNL     1      42.575 -15.306   1.071  1.00  0.00    -0.242 N 
HETATM   13  C   UNL     1      41.285 -14.814   0.955  1.00  0.00     0.271 C 
HETATM   14  O   UNL     1      40.270 -15.495   1.090  1.00  0.00    -0.266 OA
HETATM   15  H   UNL     1      43.395 -14.723   0.913  1.00  0.00     0.192 HD
BRANCH  13  16
HETATM   16  C   UNL     1      41.142 -13.363   0.615  1.00  0.00     0.033 A 
HETATM   17  C   UNL     1      40.626 -12.898  -0.601  1.00  0.00     0.020 A 
HETATM   18  C   UNL     1      40.511 -11.521  -0.829  1.00  0.00     0.038 A 
HETATM   19  C   UNL     1      40.908 -10.593   0.138  1.00  0.00     0.068 A 
HETATM   20  C   UNL     1      41.443 -11.052   1.340  1.00  0.00     0.038 A 
HETATM   21  C   UNL     1      41.558 -12.427   1.574  1.00  0.00     0.020 A 
BRANCH  19  22
HETATM   22  O   UNL     1      40.732  -9.284  -0.215  1.00  0.00    -0.356 OA
HETATM   23  C   UNL     1      40.128  -9.036  -1.478  1.00  0.00     0.210 C 
ENDBRANCH  19  22
ENDBRANCH  13  16
ENDBRANCH   1  12
BRANCH   5  24
HETATM   24  C   UNL     1      44.110 -16.434   6.083  1.00  0.00     0.137 C 
BRANCH  24  25
HETATM   25  C   UNL     1      42.869 -16.202   6.954  1.00  0.00     0.059 C 
BRANCH  25  26
HETATM   26  C   UNL     1      42.189 -14.894   6.629  1.00  0.00    -0.057 A 
HETATM   27  C   UNL     1      40.820 -14.853   6.330  1.00  0.00     0.007 A 
HETATM   28  C   UNL     1      40.202 -13.643   6.007  1.00  0.00     0.001 A 
HETATM   29  C   UNL     1      40.943 -12.463   5.986  1.00  0.00     0.000 A 
HETATM   30  C   UNL     1      42.303 -12.491   6.292  1.00  0.00     0.001 A 
HETATM   31  C   UNL     1      42.924 -13.700   6.610  1.00  0.00     0.007 A 
ENDBRANCH  25  26
ENDBRANCH  24  25
ENDBRANCH   5  24
TORSDOF 6
ENDMDL
MODEL 5
REMARK VINA RESULT:      -8.8      1.970      5.201
REMARK  6 active torsions:
REMARK  status: ('A' for Active; 'I' for Inactive)
REMARK    1  A    between atoms: O_2  and  C_3 
REMARK    2  A    between atoms: C_6  and  C_7 
REMARK       I    between atoms: C_7  and  N_8 
REMARK    3  A    between atoms: N_8  and  N_9 
REMARK    4  A    between atoms: N_13  and  C_14 
REMARK    5  A    between atoms: C_14  and  C_15 
REMARK    6  A    between atoms: C_15  and  C_16 
ROOT
HETATM    1  N   UNL     1      43.521 -14.184   6.390  1.00  0.00    -0.166 NA
HETATM    2  C   UNL     1      42.848 -14.371   5.300  1.00  0.00     0.157 A 
HETATM    3  C   UNL     1      41.838 -13.441   4.632  1.00  0.00     0.279 A 
HETATM    4  O   UNL     1      41.497 -12.370   5.090  1.00  0.00    -0.265 OA
HETATM    5  N   UNL     1      41.450 -14.087   3.469  1.00  0.00    -0.311 N 
HETATM    6  C   UNL     1      42.939 -15.550   4.450  1.00  0.00     0.027 A 
HETATM    7  C   UNL     1      42.092 -15.336   3.362  1.00  0.00     0.050 A 
HETATM    8  C   UNL     1      41.974 -16.302   2.381  1.00  0.00     0.031 A 
HETATM    9  C   UNL     1      42.714 -17.485   2.529  1.00  0.00     0.002 A 
HETATM   10  C   UNL     1      43.557 -17.685   3.639  1.00  0.00     0.001 A 
HETATM   11  C   UNL     1      43.680 -16.702   4.621  1.00  0.00     0.016 A 
ENDROOT
BRANCH   1  12
HETATM   12  N   UNL     1      43.297 -13.017   7.064  1.00  0.00    -0.242 N 
HETATM   13  C   UNL     1      44.294 -12.056   7.113  1.00  0.00     0.271 C 
HETATM   14  O   UNL     1      45.386 -12.164   6.558  1.00  0.00    -0.266 OA
HETATM   15  H   UNL     1      42.419 -12.914   7.569  1.00  0.00     0.192 HD
BRANCH  13  16
HETATM   16  C   UNL     1      44.012 -10.828   7.921  1.00  0.00     0.033 A 
HETATM   17  C   UNL     1      42.875 -10.029   7.749  1.00  0.00     0.020 A 
HETATM   18  C   UNL     1      42.681  -8.906   8.562  1.00  0.00     0.038 A 
HETATM   19  C   UNL     1      43.610  -8.559   9.547  1.00  0.00     0.068 A 
HETATM   20  C   UNL     1      44.754  -9.338   9.706  1.00  0.00     0.038 A 
HETATM   21  C   UNL     1      44.952 -10.462   8.897  1.00  0.00     0.020 A 
BRANCH  19  22
HETATM   22  O   UNL     1      43.290  -7.444  10.272  1.00  0.00    -0.356 OA
HETATM   23  C   UNL     1      42.829  -7.655  11.601  1.00  0.00     0.210 C 
ENDBRANCH  19  22
ENDBRANCH  13  16
ENDBRANCH   1  12
BRANCH   5  24
HETATM   24  C   UNL     1      40.486 -13.553   2.530  1.00  0.00     0.137 C 
BRANCH  24  25
HETATM   25  C   UNL     1      41.152 -12.748   1.406  1.00  0.00     0.059 C 
BRANCH  25  26
HETATM   26  C   UNL     1      40.662 -13.173   0.043  1.00  0.00    -0.057 A 
HETATM   27  C   UNL     1      40.913 -12.383  -1.087  1.00  0.00     0.007 A 
HETATM   28  C   UNL     1      40.437 -12.769  -2.341  1.00  0.00     0.001 A 
HETATM   29  C   UNL     1      39.711 -13.951  -2.480  1.00  0.00     0.000 A 
HETATM   30  C   UNL     1      39.464 -14.749  -1.364  1.00  0.00     0.001 A 
HETATM   31  C   UNL     1      39.935 -14.362  -0.108  1.00  0.00     0.007 A 
ENDBRANCH  25  26
ENDBRANCH  24  25
ENDBRANCH   5  24
TORSDOF 6
ENDMDL
MODEL 6
REMARK VINA RESULT:      -8.7      2.449      8.645
REMARK  6 active torsions:
REMARK  status: ('A' for Active; 'I' for Inactive)
REMARK    1  A    between atoms: O_2  and  C_3 
REMARK    2  A    between atoms: C_6  and  C_7 
REMARK       I    between atoms: C_7  and  N_8 
REMARK    3  A    between atoms: N_8  and  N_9 
REMARK    4  A    between atoms: N_13  and  C_14 
REMARK    5  A    between atoms: C_14  and  C_15 
REMARK    6  A    between atoms: C_15  and  C_16 
ROOT
HETATM    1  N   UNL     1      42.420 -15.643   1.980  1.00  0.00    -0.166 NA
HETATM    2  C   UNL     1      42.723 -15.193   3.154  1.00  0.00     0.157 A 
HETATM    3  C   UNL     1      42.618 -13.765   3.685  1.00  0.00     0.279 A 
HETATM    4  O   UNL     1      42.254 -12.819   3.017  1.00  0.00    -0.265 OA
HETATM    5  N   UNL     1      43.015 -13.830   5.011  1.00  0.00    -0.311 N 
HETATM    6  C   UNL     1      43.230 -15.999   4.256  1.00  0.00     0.027 A 
HETATM    7  C   UNL     1      43.384 -15.146   5.351  1.00  0.00     0.050 A 
HETATM    8  C   UNL     1      43.858 -15.644   6.550  1.00  0.00     0.031 A 
HETATM    9  C   UNL     1      44.182 -17.007   6.615  1.00  0.00     0.002 A 
HETATM   10  C   UNL     1      44.026 -17.849   5.498  1.00  0.00     0.001 A 
HETATM   11  C   UNL     1      43.538 -17.344   4.293  1.00  0.00     0.016 A 
ENDROOT
BRANCH   1  12
HETATM   12  N   UNL     1      41.966 -14.734   1.066  1.00  0.00    -0.242 N 
HETATM   13  C   UNL     1      40.660 -14.820   0.608  1.00  0.00     0.271 C 
HETATM   14  O   UNL     1      39.848 -15.659   0.992  1.00  0.00    -0.266 OA
HETATM   15  H   UNL     1      42.626 -14.052   0.697  1.00  0.00     0.192 HD
BRANCH  13  16
HETATM   16  C   UNL     1      40.244 -13.836  -0.440  1.00  0.00     0.033 A 
HETATM   17  C   UNL     1      40.719 -12.521  -0.503  1.00  0.00     0.020 A 
HETATM   18  C   UNL     1      40.290 -11.671  -1.529  1.00  0.00     0.038 A 
HETATM   19  C   UNL     1      39.384 -12.111  -2.498  1.00  0.00     0.068 A 
HETATM   20  C   UNL     1      38.891 -13.412  -2.426  1.00  0.00     0.038 A 
HETATM   21  C   UNL     1      39.319 -14.266  -1.403  1.00  0.00     0.020 A 
BRANCH  19  22
HETATM   22  O   UNL     1      39.058 -11.180  -3.446  1.00  0.00    -0.356 OA
HETATM   23  C   UNL     1      37.986 -10.298  -3.136  1.00  0.00     0.210 C 
ENDBRANCH  19  22
ENDBRANCH  13  16
ENDBRANCH   1  12
BRANCH   5  24
HETATM   24  C   UNL     1      43.074 -12.685   5.895  1.00  0.00     0.137 C 
BRANCH  24  25
HETATM   25  C   UNL     1      44.401 -11.925   5.776  1.00  0.00     0.059 C 
BRANCH  25  26
HETATM   26  C   UNL     1      44.731 -11.166   7.039  1.00  0.00    -0.057 A 
HETATM   27  C   UNL     1      45.950 -10.487   7.169  1.00  0.00     0.007 A 
HETATM   28  C   UNL     1      46.259  -9.807   8.349  1.00  0.00     0.001 A 
HETATM   29  C   UNL     1      45.351  -9.793   9.406  1.00  0.00     0.000 A 
HETATM   30  C   UNL     1      44.131 -10.457   9.284  1.00  0.00     0.001 A 
HETATM   31  C   UNL     1      43.823 -11.142   8.107  1.00  0.00     0.007 A 
ENDBRANCH  25  26
ENDBRANCH  24  25
ENDBRANCH   5  24
TORSDOF 6
ENDMDL
MODEL 7
REMARK VINA RESULT:      -8.5      3.356      9.654
REMARK  6 active torsions:
REMARK  status: ('A' for Active; 'I' for Inactive)
REMARK    1  A    between atoms: O_2  and  C_3 
REMARK    2  A    between atoms: C_6  and  C_7 
REMARK       I    between atoms: C_7  and  N_8 
REMARK    3  A    between atoms: N_8  and  N_9 
REMARK    4  A    between atoms: N_13  and  C_14 
REMARK    5  A    between atoms: C_14  and  C_15 
REMARK    6  A    between atoms: C_15  and  C_16 
ROOT
HETATM    1  N   UNL     1      42.485 -10.802   5.967  1.00  0.00    -0.166 NA
HETATM    2  C   UNL     1      42.857 -10.202   7.051  1.00  0.00     0.157 A 
HETATM    3  C   UNL     1      43.680 -10.755   8.212  1.00  0.00     0.279 A 
HETATM    4  O   UNL     1      44.074 -11.902   8.278  1.00  0.00    -0.265 OA
HETATM    5  N   UNL     1      43.842  -9.697   9.091  1.00  0.00    -0.311 N 
HETATM    6  C   UNL     1      42.565  -8.815   7.385  1.00  0.00     0.027 A 
HETATM    7  C   UNL     1      43.179  -8.550   8.610  1.00  0.00     0.050 A 
HETATM    8  C   UNL     1      43.067  -7.296   9.180  1.00  0.00     0.031 A 
HETATM    9  C   UNL     1      42.317  -6.327   8.497  1.00  0.00     0.002 A 
HETATM   10  C   UNL     1      41.699  -6.617   7.266  1.00  0.00     0.001 A 
HETATM   11  C   UNL     1      41.823  -7.881   6.690  1.00  0.00     0.016 A 
ENDROOT
BRANCH   1  12
HETATM   12  N   UNL     1      42.844 -12.113   5.829  1.00  0.00    -0.242 N 
HETATM   13  C   UNL     1      41.874 -13.099   5.924  1.00  0.00     0.271 C 
HETATM   14  O   UNL     1      40.678 -12.877   6.103  1.00  0.00    -0.266 OA
HETATM   15  H   UNL     1      43.832 -12.332   5.721  1.00  0.00     0.192 HD
BRANCH  13  16
HETATM   16  C   UNL     1      42.340 -14.518   5.829  1.00  0.00     0.033 A 
HETATM   17  C   UNL     1      42.843 -15.093   4.656  1.00  0.00     0.020 A 
HETATM   18  C   UNL     1      43.274 -16.425   4.659  1.00  0.00     0.038 A 
HETATM   19  C   UNL     1      43.206 -17.202   5.819  1.00  0.00     0.068 A 
HETATM   20  C   UNL     1      42.685 -16.641   6.983  1.00  0.00     0.038 A 
HETATM   21  C   UNL     1      42.255 -15.309   6.984  1.00  0.00     0.020 A 
BRANCH  19  22
HETATM   22  O   UNL     1      43.669 -18.482   5.682  1.00  0.00    -0.356 OA
HETATM   23  C   UNL     1      44.377 -18.783   4.486  1.00  0.00     0.210 C 
ENDBRANCH  19  22
ENDBRANCH  13  16
ENDBRANCH   1  12
BRANCH   5  24
HETATM   24  C   UNL     1      44.562  -9.788  10.344  1.00  0.00     0.137 C 
BRANCH  24  25
HETATM   25  C   UNL     1      43.763 -10.531  11.422  1.00  0.00     0.059 C 
BRANCH  25  26
HETATM   26  C   UNL     1      43.050  -9.579  12.352  1.00  0.00    -0.057 A 
HETATM   27  C   UNL     1      41.839  -9.940  12.958  1.00  0.00     0.007 A 
HETATM   28  C   UNL     1      41.173  -9.046  13.798  1.00  0.00     0.001 A 
HETATM   29  C   UNL     1      41.713  -7.785  14.047  1.00  0.00     0.000 A 
HETATM   30  C   UNL     1      42.923  -7.419  13.458  1.00  0.00     0.001 A 
HETATM   31  C   UNL     1      43.587  -8.311  12.613  1.00  0.00     0.007 A 
ENDBRANCH  25  26
ENDBRANCH  24  25
ENDBRANCH   5  24
TORSDOF 6
ENDMDL
MODEL 8
REMARK VINA RESULT:      -8.1      3.151      9.378
REMARK  6 active torsions:
REMARK  status: ('A' for Active; 'I' for Inactive)
REMARK    1  A    between atoms: O_2  and  C_3 
REMARK    2  A    between atoms: C_6  and  C_7 
REMARK       I    between atoms: C_7  and  N_8 
REMARK    3  A    between atoms: N_8  and  N_9 
REMARK    4  A    between atoms: N_13  and  C_14 
REMARK    5  A    between atoms: C_14  and  C_15 
REMARK    6  A    between atoms: C_15  and  C_16 
ROOT
HETATM    1  N   UNL     1      44.318 -12.746   7.241  1.00  0.00    -0.166 NA
HETATM    2  C   UNL     1      43.739 -11.592   7.154  1.00  0.00     0.157 A 
HETATM    3  C   UNL     1      42.775 -11.086   6.083  1.00  0.00     0.279 A 
HETATM    4  O   UNL     1      42.448 -11.730   5.107  1.00  0.00    -0.265 OA
HETATM    5  N   UNL     1      42.407  -9.812   6.484  1.00  0.00    -0.311 N 
HETATM    6  C   UNL     1      43.885 -10.506   8.113  1.00  0.00     0.027 A 
HETATM    7  C   UNL     1      43.066  -9.463   7.680  1.00  0.00     0.050 A 
HETATM    8  C   UNL     1      43.006  -8.288   8.404  1.00  0.00     0.031 A 
HETATM    9  C   UNL     1      43.794  -8.186   9.560  1.00  0.00     0.002 A 
HETATM   10  C   UNL     1      44.620  -9.247   9.977  1.00  0.00     0.001 A 
HETATM   11  C   UNL     1      44.670 -10.434   9.247  1.00  0.00     0.016 A 
ENDROOT
BRANCH   1  12
HETATM   12  N   UNL     1      44.069 -13.641   6.239  1.00  0.00    -0.242 N 
HETATM   13  C   UNL     1      43.542 -14.885   6.550  1.00  0.00     0.271 C 
HETATM   14  O   UNL     1      43.249 -15.245   7.688  1.00  0.00    -0.266 OA
HETATM   15  H   UNL     1      44.339 -13.388   5.290  1.00  0.00     0.192 HD
BRANCH  13  16
HETATM   16  C   UNL     1      43.353 -15.844   5.416  1.00  0.00     0.033 A 
HETATM   17  C   UNL     1      42.420 -15.657   4.389  1.00  0.00     0.020 A 
HETATM   18  C   UNL     1      42.322 -16.597   3.356  1.00  0.00     0.038 A 
HETATM   19  C   UNL     1      43.139 -17.730   3.331  1.00  0.00     0.068 A 
HETATM   20  C   UNL     1      44.053 -17.931   4.363  1.00  0.00     0.038 A 
HETATM   21  C   UNL     1      44.156 -16.994   5.398  1.00  0.00     0.020 A 
BRANCH  19  22
HETATM   22  O   UNL     1      42.943 -18.558   2.260  1.00  0.00    -0.356 OA
HETATM   23  C   UNL     1      43.487 -19.868   2.355  1.00  0.00     0.210 C 
ENDBRANCH  19  22
ENDBRANCH  13  16
ENDBRANCH   1  12
BRANCH   5  24
HETATM   24  C   UNL     1      41.502  -8.960   5.743  1.00  0.00     0.137 C 
BRANCH  24  25
HETATM   25  C   UNL     1      40.030  -9.303   6.010  1.00  0.00     0.059 C 
BRANCH  25  26
HETATM   26  C   UNL     1      39.590  -8.868   7.387  1.00  0.00    -0.057 A 
HETATM   27  C   UNL     1      39.416  -9.807   8.413  1.00  0.00     0.007 A 
HETATM   28  C   UNL     1      38.987  -9.401   9.678  1.00  0.00     0.001 A 
HETATM   29  C   UNL     1      38.735  -8.054   9.932  1.00  0.00     0.000 A 
HETATM   30  C   UNL     1      38.915  -7.110   8.922  1.00  0.00     0.001 A 
HETATM   31  C   UNL     1      39.339  -7.515   7.655  1.00  0.00     0.007 A 
ENDBRANCH  25  26
ENDBRANCH  24  25
ENDBRANCH   5  24
TORSDOF 6
ENDMDL
MODEL 9
REMARK VINA RESULT:      -8.1      2.425      5.897
REMARK  6 active torsions:
REMARK  status: ('A' for Active; 'I' for Inactive)
REMARK    1  A    between atoms: O_2  and  C_3 
REMARK    2  A    between atoms: C_6  and  C_7 
REMARK       I    between atoms: C_7  and  N_8 
REMARK    3  A    between atoms: N_8  and  N_9 
REMARK    4  A    between atoms: N_13  and  C_14 
REMARK    5  A    between atoms: C_14  and  C_15 
REMARK    6  A    between atoms: C_15  and  C_16 
ROOT
HETATM    1  N   UNL     1      42.020 -14.413   5.829  1.00  0.00    -0.166 NA
HETATM    2  C   UNL     1      41.763 -15.001   4.706  1.00  0.00     0.157 A 
HETATM    3  C   UNL     1      40.736 -14.619   3.643  1.00  0.00     0.279 A 
HETATM    4  O   UNL     1      39.967 -13.686   3.748  1.00  0.00    -0.265 OA
HETATM    5  N   UNL     1      40.900 -15.538   2.619  1.00  0.00    -0.311 N 
HETATM    6  C   UNL     1      42.444 -16.187   4.205  1.00  0.00     0.027 A 
HETATM    7  C   UNL     1      41.903 -16.470   2.950  1.00  0.00     0.050 A 
HETATM    8  C   UNL     1      42.364 -17.557   2.231  1.00  0.00     0.031 A 
HETATM    9  C   UNL     1      43.365 -18.352   2.809  1.00  0.00     0.002 A 
HETATM   10  C   UNL     1      43.893 -18.053   4.080  1.00  0.00     0.001 A 
HETATM   11  C   UNL     1      43.432 -16.949   4.797  1.00  0.00     0.016 A 
ENDROOT
BRANCH   1  12
HETATM   12  N   UNL     1      41.270 -13.314   6.140  1.00  0.00    -0.242 N 
HETATM   13  C   UNL     1      41.833 -12.051   6.034  1.00  0.00     0.271 C 
HETATM   14  O   UNL     1      42.979 -11.836   5.647  1.00  0.00    -0.266 OA
HETATM   15  H   UNL     1      40.330 -13.461   6.503  1.00  0.00     0.192 HD
BRANCH  13  16
HETATM   16  C   UNL     1      40.980 -10.893   6.451  1.00  0.00     0.033 A 
HETATM   17  C   UNL     1      39.621 -10.778   6.139  1.00  0.00     0.020 A 
HETATM   18  C   UNL     1      38.893  -9.668   6.584  1.00  0.00     0.038 A 
HETATM   19  C   UNL     1      39.503  -8.660   7.336  1.00  0.00     0.068 A 
HETATM   20  C   UNL     1      40.861  -8.760   7.629  1.00  0.00     0.038 A 
HETATM   21  C   UNL     1      41.592  -9.868   7.188  1.00  0.00     0.020 A 
BRANCH  19  22
HETATM   22  O   UNL     1      38.673  -7.640   7.711  1.00  0.00    -0.356 OA
HETATM   23  C   UNL     1      38.745  -7.222   9.069  1.00  0.00     0.210 C 
ENDBRANCH  19  22
ENDBRANCH  13  16
ENDBRANCH   1  12
BRANCH   5  24
HETATM   24  C   UNL     1      40.113 -15.546   1.405  1.00  0.00     0.137 C 
BRANCH  24  25
HETATM   25  C   UNL     1      40.739 -14.688   0.298  1.00  0.00     0.059 C 
BRANCH  25  26
HETATM   26  C   UNL     1      39.698 -14.142  -0.649  1.00  0.00    -0.057 A 
HETATM   27  C   UNL     1      39.116 -12.886  -0.428  1.00  0.00     0.007 A 
HETATM   28  C   UNL     1      38.137 -12.397  -1.295  1.00  0.00     0.001 A 
HETATM   29  C   UNL     1      37.735 -13.154  -2.394  1.00  0.00     0.000 A 
HETATM   30  C   UNL     1      38.315 -14.400  -2.629  1.00  0.00     0.001 A 
HETATM   31  C   UNL     1      39.290 -14.893  -1.760  1.00  0.00     0.007 A 
ENDBRANCH  25  26
ENDBRANCH  24  25
ENDBRANCH   5  24
TORSDOF 6
ENDMDL
MODEL 10
REMARK VINA RESULT:      -8.1     16.084     17.764
REMARK  6 active torsions:
REMARK  status: ('A' for Active; 'I' for Inactive)
REMARK    1  A    between atoms: O_2  and  C_3 
REMARK    2  A    between atoms: C_6  and  C_7 
REMARK       I    between atoms: C_7  and  N_8 
REMARK    3  A    between atoms: N_8  and  N_9 
REMARK    4  A    between atoms: N_13  and  C_14 
REMARK    5  A    between atoms: C_14  and  C_15 
REMARK    6  A    between atoms: C_15  and  C_16 
ROOT
HETATM    1  N   UNL     1      43.065 -29.501   0.499  1.00  0.00    -0.166 NA
HETATM    2  C   UNL     1      44.312 -29.193   0.658  1.00  0.00     0.157 A 
HETATM    3  C   UNL     1      45.146 -29.224   1.936  1.00  0.00     0.279 A 
HETATM    4  O   UNL     1      44.703 -29.520   3.027  1.00  0.00    -0.265 OA
HETATM    5  N   UNL     1      46.426 -28.855   1.555  1.00  0.00    -0.311 N 
HETATM    6  C   UNL     1      45.209 -28.754  -0.402  1.00  0.00     0.027 A 
HETATM    7  C   UNL     1      46.466 -28.570   0.176  1.00  0.00     0.050 A 
HETATM    8  C   UNL     1      47.527 -28.148  -0.603  1.00  0.00     0.031 A 
HETATM    9  C   UNL     1      47.289 -27.906  -1.964  1.00  0.00     0.002 A 
HETATM   10  C   UNL     1      46.011 -28.090  -2.526  1.00  0.00     0.001 A 
HETATM   11  C   UNL     1      44.946 -28.526  -1.738  1.00  0.00     0.016 A 
ENDROOT
BRANCH   1  12
HETATM   12  N   UNL     1      42.374 -29.884   1.613  1.00  0.00    -0.242 N 
HETATM   13  C   UNL     1      41.869 -31.173   1.694  1.00  0.00     0.271 C 
HETATM   14  O   UNL     1      42.022 -32.030   0.826  1.00  0.00    -0.266 OA
HETATM   15  H   UNL     1      42.194 -29.186   2.332  1.00  0.00     0.192 HD
BRANCH  13  16
HETATM   16  C   UNL     1      41.067 -31.511   2.911  1.00  0.00     0.033 A 
HETATM   17  C   UNL     1      41.275 -30.926   4.166  1.00  0.00     0.020 A 
HETATM   18  C   UNL     1      40.465 -31.288   5.249  1.00  0.00     0.038 A 
HETATM   19  C   UNL     1      39.447 -32.235   5.104  1.00  0.00     0.068 A 
HETATM   20  C   UNL     1      39.251 -32.836   3.862  1.00  0.00     0.038 A 
HETATM   21  C   UNL     1      40.057 -32.476   2.776  1.00  0.00     0.020 A 
BRANCH  19  22
HETATM   22  O   UNL     1      38.729 -32.486   6.240  1.00  0.00    -0.356 OA
HETATM   23  C   UNL     1      39.407 -32.316   7.478  1.00  0.00     0.210 C 
ENDBRANCH  19  22
ENDBRANCH  13  16
ENDBRANCH   1  12
BRANCH   5  24
HETATM   24  C   UNL     1      47.543 -28.745   2.469  1.00  0.00     0.137 C 
BRANCH  24  25
HETATM   25  C   UNL     1      48.712 -29.656   2.072  1.00  0.00     0.059 C 
BRANCH  25  26
HETATM   26  C   UNL     1      49.301 -30.369   3.266  1.00  0.00    -0.057 A 
HETATM   27  C   UNL     1      50.661 -30.236   3.581  1.00  0.00     0.007 A 
HETATM   28  C   UNL     1      51.203 -30.917   4.672  1.00  0.00     0.001 A 
HETATM   29  C   UNL     1      50.393 -31.730   5.463  1.00  0.00     0.000 A 
HETATM   30  C   UNL     1      49.038 -31.861   5.165  1.00  0.00     0.001 A 
HETATM   31  C   UNL     1      48.494 -31.185   4.070  1.00  0.00     0.007 A 
ENDBRANCH  25  26
ENDBRANCH  24  25
ENDBRANCH   5  24
TORSDOF 6
ENDMDL
