MODEL 1
REMARK VINA RESULT:      -7.8      0.000      0.000
REMARK  6 active torsions:
REMARK  status: ('A' for Active; 'I' for Inactive)
REMARK    1  A    between atoms: C_2  and  N_3 
REMARK    2  A    between atoms: C_2  and  C_21 
REMARK       I    between atoms: N_3  and  C_4 
REMARK       I    between atoms: C_4  and  N_5 
REMARK    3  A    between atoms: N_5  and  C_6 
REMARK    4  A    between atoms: C_6  and  C_7 
REMARK    5  A    between atoms: C_10  and  O_11 
REMARK    6  A    between atoms: O_11  and  C_12 
ROOT
HETATM    1  N   UNL     1      44.157 -10.976   8.349  1.00  0.00    -0.332 N 
HETATM    2  C   UNL     1      43.417 -10.968   7.206  1.00  0.00     0.317 C 
HETATM    3  N   UNL     1      43.544 -12.139   6.508  1.00  0.00    -0.339 N 
HETATM    4  O   UNL     1      42.717 -10.032   6.848  1.00  0.00    -0.247 OA
HETATM    5  H   UNL     1      44.929 -11.624   8.424  1.00  0.00     0.165 HD
HETATM    6  H   UNL     1      43.741 -12.955   7.066  1.00  0.00     0.164 HD
ENDROOT
BRANCH   3   7
HETATM    7  C   UNL     1      42.746 -12.332   5.321  1.00  0.00     0.162 C 
BRANCH   7   8
HETATM    8  C   UNL     1      42.820 -13.753   4.831  1.00  0.00    -0.040 A 
HETATM    9  C   UNL     1      42.889 -14.815   5.740  1.00  0.00     0.011 A 
HETATM   10  C   UNL     1      42.936 -16.141   5.291  1.00  0.00     0.037 A 
HETATM   11  C   UNL     1      42.919 -16.421   3.926  1.00  0.00     0.069 A 
HETATM   12  C   UNL     1      42.885 -15.361   3.017  1.00  0.00     0.037 A 
HETATM   13  C   UNL     1      42.838 -14.037   3.461  1.00  0.00     0.011 A 
BRANCH  11  14
HETATM   14  O   UNL     1      42.929 -17.661   3.352  1.00  0.00    -0.346 OA
BRANCH  14  15
HETATM   15  C   UNL     1      44.181 -18.266   3.001  1.00  0.00     0.129 C 
HETATM   16  C   UNL     1      44.898 -18.815   4.245  1.00  0.00     0.032 C 
HETATM   17  C   UNL     1      44.115 -19.944   4.915  1.00  0.00     0.002 C 
HETATM   18  C   UNL     1      43.808 -21.070   3.932  1.00  0.00     0.000 C 
HETATM   19  C   UNL     1      43.095 -20.552   2.688  1.00  0.00     0.002 C 
HETATM   20  C   UNL     1      43.871 -19.412   2.025  1.00  0.00     0.032 C 
ENDBRANCH  14  15
ENDBRANCH  11  14
ENDBRANCH   7   8
ENDBRANCH   3   7
BRANCH   1  21
HETATM   21  C   UNL     1      44.215  -9.824   9.242  1.00  0.00     0.155 C 
HETATM   22  C   UNL     1      45.654  -9.357   9.468  1.00  0.00     0.041 C 
BRANCH  21  23
HETATM   23  C   UNL     1      43.567 -10.200  10.549  1.00  0.00     0.169 A 
HETATM   24  N   UNL     1      43.969 -11.243  11.299  1.00  0.00    -0.156 NA
HETATM   25  N   UNL     1      43.126 -11.161  12.342  1.00  0.00    -0.270 N 
HETATM   26  H   UNL     1      43.195 -11.837  13.095  1.00  0.00     0.190 HD
HETATM   27  C   UNL     1      42.270 -10.115  12.205  1.00  0.00     0.227 A 
HETATM   28  N   UNL     1      42.521  -9.486  11.083  1.00  0.00    -0.223 NA
ENDBRANCH  21  23
ENDBRANCH   1  21
TORSDOF 6
ENDMDL
MODEL 2
REMARK VINA RESULT:      -7.7      1.844      2.238
REMARK  6 active torsions:
REMARK  status: ('A' for Active; 'I' for Inactive)
REMARK    1  A    between atoms: C_2  and  N_3 
REMARK    2  A    between atoms: C_2  and  C_21 
REMARK       I    between atoms: N_3  and  C_4 
REMARK       I    between atoms: C_4  and  N_5 
REMARK    3  A    between atoms: N_5  and  C_6 
REMARK    4  A    between atoms: C_6  and  C_7 
REMARK    5  A    between atoms: C_10  and  O_11 
REMARK    6  A    between atoms: O_11  and  C_12 
ROOT
HETATM    1  N   UNL     1      43.096 -11.111   7.443  1.00  0.00    -0.332 N 
HETATM    2  C   UNL     1      42.519 -11.430   6.252  1.00  0.00     0.317 C 
HETATM    3  N   UNL     1      41.557 -12.394   6.393  1.00  0.00    -0.339 N 
HETATM    4  O   UNL     1      42.816 -10.912   5.184  1.00  0.00    -0.247 OA
HETATM    5  H   UNL     1      43.035 -11.770   8.205  1.00  0.00     0.165 HD
HETATM    6  H   UNL     1      41.092 -12.412   7.287  1.00  0.00     0.164 HD
ENDROOT
BRANCH   3   7
HETATM    7  C   UNL     1      40.779 -12.775   5.239  1.00  0.00     0.162 C 
BRANCH   7   8
HETATM    8  C   UNL     1      41.233 -14.095   4.677  1.00  0.00    -0.040 A 
HETATM    9  C   UNL     1      42.045 -14.139   3.537  1.00  0.00     0.011 A 
HETATM   10  C   UNL     1      42.490 -15.363   3.021  1.00  0.00     0.037 A 
HETATM   11  C   UNL     1      42.126 -16.559   3.638  1.00  0.00     0.069 A 
HETATM   12  C   UNL     1      41.289 -16.518   4.755  1.00  0.00     0.037 A 
HETATM   13  C   UNL     1      40.842 -15.299   5.273  1.00  0.00     0.011 A 
BRANCH  11  14
HETATM   14  O   UNL     1      42.511 -17.815   3.263  1.00  0.00    -0.346 OA
BRANCH  14  15
HETATM   15  C   UNL     1      43.908 -18.129   3.179  1.00  0.00     0.129 C 
HETATM   16  C   UNL     1      44.525 -18.291   4.577  1.00  0.00     0.032 C 
HETATM   17  C   UNL     1      43.925 -19.470   5.342  1.00  0.00     0.002 C 
HETATM   18  C   UNL     1      44.044 -20.769   4.550  1.00  0.00     0.000 C 
HETATM   19  C   UNL     1      43.439 -20.636   3.157  1.00  0.00     0.002 C 
HETATM   20  C   UNL     1      44.028 -19.447   2.396  1.00  0.00     0.032 C 
ENDBRANCH  14  15
ENDBRANCH  11  14
ENDBRANCH   7   8
ENDBRANCH   3   7
BRANCH   1  21
HETATM   21  C   UNL     1      44.177 -10.136   7.544  1.00  0.00     0.155 C 
HETATM   22  C   UNL     1      45.439 -10.751   8.149  1.00  0.00     0.041 C 
BRANCH  21  23
HETATM   23  C   UNL     1      43.697  -8.977   8.378  1.00  0.00     0.169 A 
HETATM   24  N   UNL     1      42.584  -9.023   9.133  1.00  0.00    -0.156 NA
HETATM   25  N   UNL     1      42.587  -7.798   9.687  1.00  0.00    -0.270 N 
HETATM   26  H   UNL     1      41.845  -7.537  10.326  1.00  0.00     0.190 HD
HETATM   27  C   UNL     1      43.657  -7.072   9.273  1.00  0.00     0.227 A 
HETATM   28  N   UNL     1      44.380  -7.786   8.446  1.00  0.00    -0.223 NA
ENDBRANCH  21  23
ENDBRANCH   1  21
TORSDOF 6
ENDMDL
MODEL 3
REMARK VINA RESULT:      -7.6      2.208      3.659
REMARK  6 active torsions:
REMARK  status: ('A' for Active; 'I' for Inactive)
REMARK    1  A    between atoms: C_2  and  N_3 
REMARK    2  A    between atoms: C_2  and  C_21 
REMARK       I    between atoms: N_3  and  C_4 
REMARK       I    between atoms: C_4  and  N_5 
REMARK    3  A    between atoms: N_5  and  C_6 
REMARK    4  A    between atoms: C_6  and  C_7 
REMARK    5  A    between atoms: C_10  and  O_11 
REMARK    6  A    between atoms: O_11  and  C_12 
ROOT
HETATM    1  N   UNL     1      43.239  -9.949  10.649  1.00  0.00    -0.332 N 
HETATM    2  C   UNL     1      43.784  -9.698   9.427  1.00  0.00     0.317 C 
HETATM    3  N   UNL     1      44.555 -10.741   8.988  1.00  0.00    -0.339 N 
HETATM    4  O   UNL     1      43.601  -8.669   8.792  1.00  0.00    -0.247 OA
HETATM    5  H   UNL     1      43.665 -10.651  11.237  1.00  0.00     0.165 HD
HETATM    6  H   UNL     1      44.283 -11.651   9.327  1.00  0.00     0.164 HD
ENDROOT
BRANCH   3   7
HETATM    7  C   UNL     1      45.125 -10.677   7.665  1.00  0.00     0.162 C 
BRANCH   7   8
HETATM    8  C   UNL     1      44.406 -11.590   6.709  1.00  0.00    -0.040 A 
HETATM    9  C   UNL     1      44.225 -11.217   5.371  1.00  0.00     0.011 A 
HETATM   10  C   UNL     1      43.577 -12.072   4.470  1.00  0.00     0.037 A 
HETATM   11  C   UNL     1      43.098 -13.309   4.897  1.00  0.00     0.069 A 
HETATM   12  C   UNL     1      43.248 -13.668   6.238  1.00  0.00     0.037 A 
HETATM   13  C   UNL     1      43.894 -12.818   7.141  1.00  0.00     0.011 A 
BRANCH  11  14
HETATM   14  O   UNL     1      42.478 -14.250   4.124  1.00  0.00    -0.346 OA
BRANCH  14  15
HETATM   15  C   UNL     1      42.267 -15.567   4.650  1.00  0.00     0.129 C 
HETATM   16  C   UNL     1      40.903 -16.126   4.213  1.00  0.00     0.032 C 
HETATM   17  C   UNL     1      40.811 -16.311   2.699  1.00  0.00     0.002 C 
HETATM   18  C   UNL     1      41.942 -17.189   2.173  1.00  0.00     0.000 C 
HETATM   19  C   UNL     1      43.308 -16.657   2.592  1.00  0.00     0.002 C 
HETATM   20  C   UNL     1      43.397 -16.457   4.106  1.00  0.00     0.032 C 
ENDBRANCH  14  15
ENDBRANCH  11  14
ENDBRANCH   7   8
ENDBRANCH   3   7
BRANCH   1  21
HETATM   21  C   UNL     1      42.409  -8.970  11.343  1.00  0.00     0.155 C 
HETATM   22  C   UNL     1      43.140  -8.355  12.537  1.00  0.00     0.041 C 
BRANCH  21  23
HETATM   23  C   UNL     1      41.141  -9.650  11.789  1.00  0.00     0.169 A 
HETATM   24  N   UNL     1      40.113  -9.912  10.959  1.00  0.00    -0.156 NA
HETATM   25  N   UNL     1      39.252 -10.525  11.788  1.00  0.00    -0.270 N 
HETATM   26  H   UNL     1      38.360 -10.849  11.431  1.00  0.00     0.190 HD
HETATM   27  C   UNL     1      39.756 -10.617  13.045  1.00  0.00     0.227 A 
HETATM   28  N   UNL     1      40.948 -10.074  13.082  1.00  0.00    -0.223 NA
ENDBRANCH  21  23
ENDBRANCH   1  21
TORSDOF 6
ENDMDL
MODEL 4
REMARK VINA RESULT:      -7.4      2.582      2.898
REMARK  6 active torsions:
REMARK  status: ('A' for Active; 'I' for Inactive)
REMARK    1  A    between atoms: C_2  and  N_3 
REMARK    2  A    between atoms: C_2  and  C_21 
REMARK       I    between atoms: N_3  and  C_4 
REMARK       I    between atoms: C_4  and  N_5 
REMARK    3  A    between atoms: N_5  and  C_6 
REMARK    4  A    between atoms: C_6  and  C_7 
REMARK    5  A    between atoms: C_10  and  O_11 
REMARK    6  A    between atoms: O_11  and  C_12 
ROOT
HETATM    1  N   UNL     1      40.302 -10.193   7.951  1.00  0.00    -0.332 N 
HETATM    2  C   UNL     1      39.553 -10.978   7.130  1.00  0.00     0.317 C 
HETATM    3  N   UNL     1      40.331 -11.712   6.275  1.00  0.00    -0.339 N 
HETATM    4  O   UNL     1      38.331 -11.029   7.156  1.00  0.00    -0.247 OA
HETATM    5  H   UNL     1      41.248  -9.966   7.678  1.00  0.00     0.165 HD
HETATM    6  H   UNL     1      41.250 -11.943   6.620  1.00  0.00     0.164 HD
ENDROOT
BRANCH   3   7
HETATM    7  C   UNL     1      39.696 -12.671   5.404  1.00  0.00     0.162 C 
BRANCH   7   8
HETATM    8  C   UNL     1      40.513 -13.928   5.278  1.00  0.00    -0.040 A 
HETATM    9  C   UNL     1      41.529 -14.210   6.199  1.00  0.00     0.011 A 
HETATM   10  C   UNL     1      42.279 -15.389   6.101  1.00  0.00     0.037 A 
HETATM   11  C   UNL     1      42.025 -16.299   5.077  1.00  0.00     0.069 A 
HETATM   12  C   UNL     1      41.034 -16.003   4.138  1.00  0.00     0.037 A 
HETATM   13  C   UNL     1      40.284 -14.828   4.231  1.00  0.00     0.011 A 
BRANCH  11  14
HETATM   14  O   UNL     1      42.654 -17.496   4.880  1.00  0.00    -0.346 OA
BRANCH  14  15
HETATM   15  C   UNL     1      43.903 -17.529   4.176  1.00  0.00     0.129 C 
HETATM   16  C   UNL     1      44.691 -18.806   4.506  1.00  0.00     0.032 C 
HETATM   17  C   UNL     1      43.969 -20.070   4.039  1.00  0.00     0.002 C 
HETATM   18  C   UNL     1      43.644 -20.010   2.549  1.00  0.00     0.000 C 
HETATM   19  C   UNL     1      42.861 -18.750   2.195  1.00  0.00     0.002 C 
HETATM   20  C   UNL     1      43.576 -17.486   2.674  1.00  0.00     0.032 C 
ENDBRANCH  14  15
ENDBRANCH  11  14
ENDBRANCH   7   8
ENDBRANCH   3   7
BRANCH   1  21
HETATM   21  C   UNL     1      39.697  -9.290   8.924  1.00  0.00     0.155 C 
HETATM   22  C   UNL     1      39.958  -7.824   8.573  1.00  0.00     0.041 C 
BRANCH  21  23
HETATM   23  C   UNL     1      40.249  -9.617  10.287  1.00  0.00     0.169 A 
HETATM   24  N   UNL     1      39.531 -10.233  11.245  1.00  0.00    -0.156 NA
HETATM   25  N   UNL     1      40.432 -10.320  12.238  1.00  0.00    -0.270 N 
HETATM   26  H   UNL     1      40.168 -10.755  13.115  1.00  0.00     0.190 HD
HETATM   27  C   UNL     1      41.623  -9.780  11.874  1.00  0.00     0.227 A 
HETATM   28  N   UNL     1      41.543  -9.326  10.647  1.00  0.00    -0.223 NA
ENDBRANCH  21  23
ENDBRANCH   1  21
TORSDOF 6
ENDMDL
MODEL 5
REMARK VINA RESULT:      -7.4     17.233     20.481
REMARK  6 active torsions:
REMARK  status: ('A' for Active; 'I' for Inactive)
REMARK    1  A    between atoms: C_2  and  N_3 
REMARK    2  A    between atoms: C_2  and  C_21 
REMARK       I    between atoms: N_3  and  C_4 
REMARK       I    between atoms: C_4  and  N_5 
REMARK    3  A    between atoms: N_5  and  C_6 
REMARK    4  A    between atoms: C_6  and  C_7 
REMARK    5  A    between atoms: C_10  and  O_11 
REMARK    6  A    between atoms: O_11  and  C_12 
ROOT
HETATM    1  N   UNL     1      44.835 -30.452  -5.581  1.00  0.00    -0.332 N 
HETATM    2  C   UNL     1      44.564 -29.673  -4.499  1.00  0.00     0.317 C 
HETATM    3  N   UNL     1      45.451 -28.636  -4.382  1.00  0.00    -0.339 N 
HETATM    4  O   UNL     1      43.636 -29.867  -3.727  1.00  0.00    -0.247 OA
HETATM    5  H   UNL     1      45.763 -30.427  -5.980  1.00  0.00     0.165 HD
HETATM    6  H   UNL     1      45.849 -28.308  -5.249  1.00  0.00     0.164 HD
ENDROOT
BRANCH   3   7
HETATM    7  C   UNL     1      45.245 -27.657  -3.343  1.00  0.00     0.162 C 
BRANCH   7   8
HETATM    8  C   UNL     1      46.015 -28.003  -2.097  1.00  0.00    -0.040 A 
HETATM    9  C   UNL     1      47.389 -28.267  -2.162  1.00  0.00     0.011 A 
HETATM   10  C   UNL     1      48.116 -28.568  -1.003  1.00  0.00     0.037 A 
HETATM   11  C   UNL     1      47.478 -28.613   0.235  1.00  0.00     0.069 A 
HETATM   12  C   UNL     1      46.101 -28.383   0.296  1.00  0.00     0.037 A 
HETATM   13  C   UNL     1      45.371 -28.083  -0.857  1.00  0.00     0.011 A 
BRANCH  11  14
HETATM   14  O   UNL     1      48.066 -28.862   1.443  1.00  0.00    -0.346 OA
BRANCH  14  15
HETATM   15  C   UNL     1      48.089 -30.201   1.953  1.00  0.00     0.129 C 
HETATM   16  C   UNL     1      49.329 -30.962   1.458  1.00  0.00     0.032 C 
HETATM   17  C   UNL     1      50.630 -30.346   1.973  1.00  0.00     0.002 C 
HETATM   18  C   UNL     1      50.636 -30.244   3.495  1.00  0.00     0.000 C 
HETATM   19  C   UNL     1      49.414 -29.493   4.014  1.00  0.00     0.002 C 
HETATM   20  C   UNL     1      48.113 -30.100   3.487  1.00  0.00     0.032 C 
ENDBRANCH  14  15
ENDBRANCH  11  14
ENDBRANCH   7   8
ENDBRANCH   3   7
BRANCH   1  21
HETATM   21  C   UNL     1      44.051 -31.642  -5.895  1.00  0.00     0.155 C 
HETATM   22  C   UNL     1      44.507 -32.851  -5.077  1.00  0.00     0.041 C 
BRANCH  21  23
HETATM   23  C   UNL     1      44.176 -31.921  -7.370  1.00  0.00     0.169 A 
HETATM   24  N   UNL     1      43.128 -31.903  -8.215  1.00  0.00    -0.156 NA
HETATM   25  N   UNL     1      43.726 -32.182  -9.386  1.00  0.00    -0.270 N 
HETATM   26  H   UNL     1      43.168 -32.234 -10.231  1.00  0.00     0.190 HD
HETATM   27  C   UNL     1      45.063 -32.354  -9.229  1.00  0.00     0.227 A 
HETATM   28  N   UNL     1      45.382 -32.195  -7.968  1.00  0.00    -0.223 NA
ENDBRANCH  21  23
ENDBRANCH   1  21
TORSDOF 6
ENDMDL
MODEL 6
REMARK VINA RESULT:      -7.3      8.459     12.027
REMARK  6 active torsions:
REMARK  status: ('A' for Active; 'I' for Inactive)
REMARK    1  A    between atoms: C_2  and  N_3 
REMARK    2  A    between atoms: C_2  and  C_21 
REMARK       I    between atoms: N_3  and  C_4 
REMARK       I    between atoms: C_4  and  N_5 
REMARK    3  A    between atoms: N_5  and  C_6 
REMARK    4  A    between atoms: C_6  and  C_7 
REMARK    5  A    between atoms: C_10  and  O_11 
REMARK    6  A    between atoms: O_11  and  C_12 
ROOT
HETATM    1  N   UNL     1      41.780  -8.689  19.775  1.00  0.00    -0.332 N 
HETATM    2  C   UNL     1      40.920  -8.331  18.783  1.00  0.00     0.317 C 
HETATM    3  N   UNL     1      41.581  -7.878  17.673  1.00  0.00    -0.339 N 
HETATM    4  O   UNL     1      39.703  -8.412  18.867  1.00  0.00    -0.247 OA
HETATM    5  H   UNL     1      42.719  -8.316  19.763  1.00  0.00     0.165 HD
HETATM    6  H   UNL     1      42.502  -8.263  17.532  1.00  0.00     0.164 HD
ENDROOT
BRANCH   3   7
HETATM    7  C   UNL     1      40.818  -7.551  16.492  1.00  0.00     0.162 C 
BRANCH   7   8
HETATM    8  C   UNL     1      41.590  -7.849  15.236  1.00  0.00    -0.040 A 
HETATM    9  C   UNL     1      41.281  -8.975  14.463  1.00  0.00     0.011 A 
HETATM   10  C   UNL     1      41.980  -9.247  13.280  1.00  0.00     0.037 A 
HETATM   11  C   UNL     1      43.001  -8.397  12.857  1.00  0.00     0.069 A 
HETATM   12  C   UNL     1      43.333  -7.292  13.644  1.00  0.00     0.037 A 
HETATM   13  C   UNL     1      42.638  -7.018  14.826  1.00  0.00     0.011 A 
BRANCH  11  14
HETATM   14  O   UNL     1      43.741  -8.523  11.715  1.00  0.00    -0.346 OA
BRANCH  14  15
HETATM   15  C   UNL     1      43.175  -9.190  10.578  1.00  0.00     0.129 C 
HETATM   16  C   UNL     1      42.968  -8.214   9.410  1.00  0.00     0.032 C 
HETATM   17  C   UNL     1      44.288  -7.646   8.888  1.00  0.00     0.002 C 
HETATM   18  C   UNL     1      45.257  -8.756   8.494  1.00  0.00     0.000 C 
HETATM   19  C   UNL     1      45.481  -9.740   9.637  1.00  0.00     0.002 C 
HETATM   20  C   UNL     1      44.160 -10.298  10.169  1.00  0.00     0.032 C 
ENDBRANCH  14  15
ENDBRANCH  11  14
ENDBRANCH   7   8
ENDBRANCH   3   7
BRANCH   1  21
HETATM   21  C   UNL     1      41.312  -9.167  21.071  1.00  0.00     0.155 C 
HETATM   22  C   UNL     1      41.019  -8.010  22.028  1.00  0.00     0.041 C 
BRANCH  21  23
HETATM   23  C   UNL     1      42.360 -10.082  21.649  1.00  0.00     0.169 A 
HETATM   24  N   UNL     1      43.682  -9.883  21.492  1.00  0.00    -0.156 NA
HETATM   25  N   UNL     1      44.191 -10.917  22.183  1.00  0.00    -0.270 N 
HETATM   26  H   UNL     1      45.197 -11.028  22.245  1.00  0.00     0.190 HD
HETATM   27  C   UNL     1      43.209 -11.684  22.720  1.00  0.00     0.227 A 
HETATM   28  N   UNL     1      42.039 -11.186  22.403  1.00  0.00    -0.223 NA
ENDBRANCH  21  23
ENDBRANCH   1  21
TORSDOF 6
ENDMDL
MODEL 7
REMARK VINA RESULT:      -7.3      3.301      4.304
REMARK  6 active torsions:
REMARK  status: ('A' for Active; 'I' for Inactive)
REMARK    1  A    between atoms: C_2  and  N_3 
REMARK    2  A    between atoms: C_2  and  C_21 
REMARK       I    between atoms: N_3  and  C_4 
REMARK       I    between atoms: C_4  and  N_5 
REMARK    3  A    between atoms: N_5  and  C_6 
REMARK    4  A    between atoms: C_6  and  C_7 
REMARK    5  A    between atoms: C_10  and  O_11 
REMARK    6  A    between atoms: O_11  and  C_12 
ROOT
HETATM    1  N   UNL     1      42.839 -10.293  10.086  1.00  0.00    -0.332 N 
HETATM    2  C   UNL     1      43.524 -10.040   8.937  1.00  0.00     0.317 C 
HETATM    3  N   UNL     1      43.961 -11.191   8.339  1.00  0.00    -0.339 N 
HETATM    4  O   UNL     1      43.719  -8.920   8.487  1.00  0.00    -0.247 OA
HETATM    5  H   UNL     1      42.980 -11.179  10.551  1.00  0.00     0.165 HD
HETATM    6  H   UNL     1      43.395 -12.008   8.509  1.00  0.00     0.164 HD
ENDROOT
BRANCH   3   7
HETATM    7  C   UNL     1      44.620 -11.104   7.058  1.00  0.00     0.162 C 
BRANCH   7   8
HETATM    8  C   UNL     1      43.901 -11.912   6.012  1.00  0.00    -0.040 A 
HETATM    9  C   UNL     1      43.156 -13.041   6.374  1.00  0.00     0.011 A 
HETATM   10  C   UNL     1      42.466 -13.785   5.409  1.00  0.00     0.037 A 
HETATM   11  C   UNL     1      42.517 -13.412   4.067  1.00  0.00     0.069 A 
HETATM   12  C   UNL     1      43.287 -12.306   3.699  1.00  0.00     0.037 A 
HETATM   13  C   UNL     1      43.977 -11.561   4.659  1.00  0.00     0.011 A 
BRANCH  11  14
HETATM   14  O   UNL     1      41.871 -14.024   3.030  1.00  0.00    -0.346 OA
BRANCH  14  15
HETATM   15  C   UNL     1      40.451 -13.874   2.895  1.00  0.00     0.129 C 
HETATM   16  C   UNL     1      40.101 -12.954   1.715  1.00  0.00     0.032 C 
HETATM   17  C   UNL     1      40.541 -13.539   0.373  1.00  0.00     0.002 C 
HETATM   18  C   UNL     1      39.963 -14.934   0.155  1.00  0.00     0.000 C 
HETATM   19  C   UNL     1      40.297 -15.869   1.313  1.00  0.00     0.002 C 
HETATM   20  C   UNL     1      39.870 -15.278   2.658  1.00  0.00     0.032 C 
ENDBRANCH  14  15
ENDBRANCH  11  14
ENDBRANCH   7   8
ENDBRANCH   3   7
BRANCH   1  21
HETATM   21  C   UNL     1      42.307  -9.224  10.923  1.00  0.00     0.155 C 
HETATM   22  C   UNL     1      43.328  -8.759  11.963  1.00  0.00     0.041 C 
BRANCH  21  23
HETATM   23  C   UNL     1      41.054  -9.721  11.594  1.00  0.00     0.169 A 
HETATM   24  N   UNL     1      39.871  -9.829  10.960  1.00  0.00    -0.156 NA
HETATM   25  N   UNL     1      39.090 -10.320  11.937  1.00  0.00    -0.270 N 
HETATM   26  H   UNL     1      38.112 -10.512  11.746  1.00  0.00     0.190 HD
HETATM   27  C   UNL     1      39.787 -10.492  13.089  1.00  0.00     0.227 A 
HETATM   28  N   UNL     1      41.032 -10.123  12.908  1.00  0.00    -0.223 NA
ENDBRANCH  21  23
ENDBRANCH   1  21
TORSDOF 6
ENDMDL
MODEL 8
REMARK VINA RESULT:      -7.3      4.613      7.104
REMARK  6 active torsions:
REMARK  status: ('A' for Active; 'I' for Inactive)
REMARK    1  A    between atoms: C_2  and  N_3 
REMARK    2  A    between atoms: C_2  and  C_21 
REMARK       I    between atoms: N_3  and  C_4 
REMARK       I    between atoms: C_4  and  N_5 
REMARK    3  A    between atoms: N_5  and  C_6 
REMARK    4  A    between atoms: C_6  and  C_7 
REMARK    5  A    between atoms: C_10  and  O_11 
REMARK    6  A    between atoms: O_11  and  C_12 
ROOT
HETATM    1  N   UNL     1      38.751 -12.279   2.397  1.00  0.00    -0.332 N 
HETATM    2  C   UNL     1      39.723 -12.214   3.347  1.00  0.00     0.317 C 
HETATM    3  N   UNL     1      39.440 -13.011   4.423  1.00  0.00    -0.339 N 
HETATM    4  O   UNL     1      40.734 -11.532   3.249  1.00  0.00    -0.247 OA
HETATM    5  H   UNL     1      37.830 -12.598   2.664  1.00  0.00     0.165 HD
HETATM    6  H   UNL     1      38.878 -13.824   4.222  1.00  0.00     0.164 HD
ENDROOT
BRANCH   3   7
HETATM    7  C   UNL     1      40.418 -13.133   5.477  1.00  0.00     0.162 C 
BRANCH   7   8
HETATM    8  C   UNL     1      41.156 -14.442   5.396  1.00  0.00    -0.040 A 
HETATM    9  C   UNL     1      42.459 -14.555   5.898  1.00  0.00     0.011 A 
HETATM   10  C   UNL     1      43.143 -15.776   5.847  1.00  0.00     0.037 A 
HETATM   11  C   UNL     1      42.535 -16.899   5.289  1.00  0.00     0.069 A 
HETATM   12  C   UNL     1      41.249 -16.779   4.757  1.00  0.00     0.037 A 
HETATM   13  C   UNL     1      40.562 -15.563   4.806  1.00  0.00     0.011 A 
BRANCH  11  14
HETATM   14  O   UNL     1      43.071 -18.153   5.201  1.00  0.00    -0.346 OA
BRANCH  14  15
HETATM   15  C   UNL     1      44.300 -18.346   4.487  1.00  0.00     0.129 C 
HETATM   16  C   UNL     1      44.783 -19.801   4.601  1.00  0.00     0.032 C 
HETATM   17  C   UNL     1      43.815 -20.787   3.948  1.00  0.00     0.002 C 
HETATM   18  C   UNL     1      43.546 -20.424   2.491  1.00  0.00     0.000 C 
HETATM   19  C   UNL     1      43.064 -18.984   2.349  1.00  0.00     0.002 C 
HETATM   20  C   UNL     1      44.025 -17.998   3.014  1.00  0.00     0.032 C 
ENDBRANCH  14  15
ENDBRANCH  11  14
ENDBRANCH   7   8
ENDBRANCH   3   7
BRANCH   1  21
HETATM   21  C   UNL     1      38.809 -11.488   1.173  1.00  0.00     0.155 C 
HETATM   22  C   UNL     1      37.416 -11.057   0.711  1.00  0.00     0.041 C 
BRANCH  21  23
HETATM   23  C   UNL     1      39.493 -12.304   0.108  1.00  0.00     0.169 A 
HETATM   24  N   UNL     1      40.831 -12.361  -0.033  1.00  0.00    -0.156 NA
HETATM   25  N   UNL     1      40.953 -13.206  -1.071  1.00  0.00    -0.270 N 
HETATM   26  H   UNL     1      41.878 -13.448  -1.411  1.00  0.00     0.190 HD
HETATM   27  C   UNL     1      39.740 -13.624  -1.514  1.00  0.00     0.227 A 
HETATM   28  N   UNL     1      38.795 -13.074  -0.792  1.00  0.00    -0.223 NA
ENDBRANCH  21  23
ENDBRANCH   1  21
TORSDOF 6
ENDMDL
MODEL 9
REMARK VINA RESULT:      -7.2      2.459      4.182
REMARK  6 active torsions:
REMARK  status: ('A' for Active; 'I' for Inactive)
REMARK    1  A    between atoms: C_2  and  N_3 
REMARK    2  A    between atoms: C_2  and  C_21 
REMARK       I    between atoms: N_3  and  C_4 
REMARK       I    between atoms: C_4  and  N_5 
REMARK    3  A    between atoms: N_5  and  C_6 
REMARK    4  A    between atoms: C_6  and  C_7 
REMARK    5  A    between atoms: C_10  and  O_11 
REMARK    6  A    between atoms: O_11  and  C_12 
ROOT
HETATM    1  N   UNL     1      41.898  -9.800  11.177  1.00  0.00    -0.332 N 
HETATM    2  C   UNL     1      42.952 -10.293  10.472  1.00  0.00     0.317 C 
HETATM    3  N   UNL     1      42.923  -9.893   9.163  1.00  0.00    -0.339 N 
HETATM    4  O   UNL     1      43.826 -11.002  10.950  1.00  0.00    -0.247 OA
HETATM    5  H   UNL     1      41.075  -9.497  10.675  1.00  0.00     0.165 HD
HETATM    6  H   UNL     1      42.475  -9.005   8.993  1.00  0.00     0.164 HD
ENDROOT
BRANCH   3   7
HETATM    7  C   UNL     1      44.024 -10.248   8.301  1.00  0.00     0.162 C 
BRANCH   7   8
HETATM    8  C   UNL     1      43.611 -11.256   7.264  1.00  0.00    -0.040 A 
HETATM    9  C   UNL     1      42.689 -10.911   6.267  1.00  0.00     0.011 A 
HETATM   10  C   UNL     1      42.317 -11.837   5.284  1.00  0.00     0.037 A 
HETATM   11  C   UNL     1      42.858 -13.121   5.289  1.00  0.00     0.069 A 
HETATM   12  C   UNL     1      43.751 -13.477   6.302  1.00  0.00     0.037 A 
HETATM   13  C   UNL     1      44.126 -12.557   7.284  1.00  0.00     0.011 A 
BRANCH  11  14
HETATM   14  O   UNL     1      42.609 -14.110   4.379  1.00  0.00    -0.346 OA
BRANCH  14  15
HETATM   15  C   UNL     1      42.402 -15.453   4.836  1.00  0.00     0.129 C 
HETATM   16  C   UNL     1      40.974 -15.930   4.526  1.00  0.00     0.032 C 
HETATM   17  C   UNL     1      40.701 -16.003   3.023  1.00  0.00     0.002 C 
HETATM   18  C   UNL     1      41.725 -16.880   2.311  1.00  0.00     0.000 C 
HETATM   19  C   UNL     1      43.152 -16.429   2.602  1.00  0.00     0.002 C 
HETATM   20  C   UNL     1      43.422 -16.341   4.105  1.00  0.00     0.032 C 
ENDBRANCH  14  15
ENDBRANCH  11  14
ENDBRANCH   7   8
ENDBRANCH   3   7
BRANCH   1  21
HETATM   21  C   UNL     1      41.689 -10.119  12.586  1.00  0.00     0.155 C 
HETATM   22  C   UNL     1      40.224 -10.441  12.881  1.00  0.00     0.041 C 
BRANCH  21  23
HETATM   23  C   UNL     1      42.155  -8.951  13.415  1.00  0.00     0.169 A 
HETATM   24  N   UNL     1      41.687  -8.690  14.649  1.00  0.00    -0.156 NA
HETATM   25  N   UNL     1      42.396  -7.596  14.977  1.00  0.00    -0.270 N 
HETATM   26  H   UNL     1      42.254  -7.162  15.882  1.00  0.00     0.190 HD
HETATM   27  C   UNL     1      43.240  -7.237  13.976  1.00  0.00     0.227 A 
HETATM   28  N   UNL     1      43.114  -8.072  12.974  1.00  0.00    -0.223 NA
ENDBRANCH  21  23
ENDBRANCH   1  21
TORSDOF 6
ENDMDL
MODEL 10
REMARK VINA RESULT:      -7.2      2.881     10.246
REMARK  6 active torsions:
REMARK  status: ('A' for Active; 'I' for Inactive)
REMARK    1  A    between atoms: C_2  and  N_3 
REMARK    2  A    between atoms: C_2  and  C_21 
REMARK       I    between atoms: N_3  and  C_4 
REMARK       I    between atoms: C_4  and  N_5 
REMARK    3  A    between atoms: N_5  and  C_6 
REMARK    4  A    between atoms: C_6  and  C_7 
REMARK    5  A    between atoms: C_10  and  O_11 
REMARK    6  A    between atoms: O_11  and  C_12 
ROOT
HETATM    1  N   UNL     1      43.759 -14.437   6.347  1.00  0.00    -0.332 N 
HETATM    2  C   UNL     1      43.680 -13.079   6.310  1.00  0.00     0.317 C 
HETATM    3  N   UNL     1      44.805 -12.488   6.820  1.00  0.00    -0.339 N 
HETATM    4  O   UNL     1      42.723 -12.458   5.867  1.00  0.00    -0.247 OA
HETATM    5  H   UNL     1      44.409 -14.869   6.988  1.00  0.00     0.165 HD
HETATM    6  H   UNL     1      45.654 -13.023   6.725  1.00  0.00     0.164 HD
ENDROOT
BRANCH   3   7
HETATM    7  C   UNL     1      44.923 -11.051   6.763  1.00  0.00     0.162 C 
BRANCH   7   8
HETATM    8  C   UNL     1      44.516 -10.411   8.063  1.00  0.00    -0.040 A 
HETATM    9  C   UNL     1      43.221  -9.905   8.230  1.00  0.00     0.011 A 
HETATM   10  C   UNL     1      42.828  -9.328   9.444  1.00  0.00     0.037 A 
HETATM   11  C   UNL     1      43.727  -9.246  10.506  1.00  0.00     0.069 A 
HETATM   12  C   UNL     1      45.029  -9.720  10.330  1.00  0.00     0.037 A 
HETATM   13  C   UNL     1      45.426 -10.296   9.120  1.00  0.00     0.011 A 
BRANCH  11  14
HETATM   14  O   UNL     1      43.471  -8.740  11.749  1.00  0.00    -0.346 OA
BRANCH  14  15
HETATM   15  C   UNL     1      42.257  -8.012  11.977  1.00  0.00     0.129 C 
HETATM   16  C   UNL     1      41.274  -8.827  12.832  1.00  0.00     0.032 C 
HETATM   17  C   UNL     1      41.814  -9.098  14.237  1.00  0.00     0.002 C 
HETATM   18  C   UNL     1      42.196  -7.803  14.947  1.00  0.00     0.000 C 
HETATM   19  C   UNL     1      43.172  -6.974  14.119  1.00  0.00     0.002 C 
HETATM   20  C   UNL     1      42.639  -6.715  12.709  1.00  0.00     0.032 C 
ENDBRANCH  14  15
ENDBRANCH  11  14
ENDBRANCH   7   8
ENDBRANCH   3   7
BRANCH   1  21
HETATM   21  C   UNL     1      42.665 -15.290   5.894  1.00  0.00     0.155 C 
HETATM   22  C   UNL     1      41.835 -15.815   7.066  1.00  0.00     0.041 C 
BRANCH  21  23
HETATM   23  C   UNL     1      43.247 -16.430   5.101  1.00  0.00     0.169 A 
HETATM   24  N   UNL     1      43.101 -16.552   3.768  1.00  0.00    -0.156 NA
HETATM   25  N   UNL     1      43.791 -17.680   3.527  1.00  0.00    -0.270 N 
HETATM   26  H   UNL     1      43.860 -18.029   2.577  1.00  0.00     0.190 HD
HETATM   27  C   UNL     1      44.315 -18.192   4.669  1.00  0.00     0.227 A 
HETATM   28  N   UNL     1      43.991 -17.428   5.683  1.00  0.00    -0.223 NA
ENDBRANCH  21  23
ENDBRANCH   1  21
TORSDOF 6
ENDMDL
