MODEL 1
REMARK VINA RESULT:      -8.6      0.000      0.000
REMARK  3 active torsions:
REMARK  status: ('A' for Active; 'I' for Inactive)
REMARK    1  A    between atoms: C_11  and  N_12 
REMARK       I    between atoms: N_12  and  C_13 
REMARK    2  A    between atoms: C_13  and  C_14 
REMARK    3  A    between atoms: C_15  and  C_16 
ROOT
HETATM    1  N   UNL     1      41.354 -14.725   4.569  1.00  0.00    -0.352 N 
HETATM    2  C   UNL     1      41.178 -15.856   5.358  1.00  0.00     0.255 C 
HETATM    3  O   UNL     1      40.120 -16.470   5.389  1.00  0.00    -0.268 OA
HETATM    4  H   UNL     1      42.086 -14.117   4.922  1.00  0.00     0.163 HD
ENDROOT
BRANCH   2   5
HETATM    5  C   UNL     1      42.349 -16.239   6.127  1.00  0.00     0.080 A 
HETATM    6  C   UNL     1      43.384 -17.174   5.797  1.00  0.00     0.104 A 
HETATM    7  N   UNL     1      44.333 -17.184   6.749  1.00  0.00    -0.174 NA
HETATM    8  N   UNL     1      43.925 -16.301   7.661  1.00  0.00    -0.288 N 
HETATM    9  H   UNL     1      44.518 -16.145   8.470  1.00  0.00     0.188 HD
HETATM   10  C   UNL     1      42.737 -15.714   7.349  1.00  0.00     0.128 A 
BRANCH   6  11
HETATM   11  C   UNL     1      43.509 -18.070   4.642  1.00  0.00    -0.004 A 
HETATM   12  C   UNL     1      43.925 -19.399   4.832  1.00  0.00     0.017 A 
HETATM   13  C   UNL     1      44.022 -20.276   3.748  1.00  0.00     0.043 A 
HETATM   14  C   UNL     1      43.697 -19.828   2.475  1.00  0.00     0.116 A 
HETATM   15  F   UNL     1      43.786 -20.667   1.436  1.00  0.00    -0.206 F 
HETATM   16  C   UNL     1      43.273 -18.522   2.265  1.00  0.00     0.043 A 
HETATM   17  C   UNL     1      43.174 -17.644   3.348  1.00  0.00     0.017 A 
ENDBRANCH   6  11
ENDBRANCH   2   5
BRANCH   1  18
HETATM   18  C   UNL     1      40.236 -14.116   3.864  1.00  0.00     0.089 C 
HETATM   19  C   UNL     1      39.993 -14.655   2.445  1.00  0.00     0.063 C 
HETATM   20  C   UNL     1      41.034 -14.236   1.402  1.00  0.00     0.121 C 
HETATM   21  N   UNL     1      41.238 -12.736   1.468  1.00  0.00    -0.059 N 
HETATM   22  C   UNL     1      42.377 -14.962   1.527  1.00  0.00     0.046 C 
HETATM   23  C   UNL     1      40.483 -14.528  -0.009  1.00  0.00     0.046 C 
HETATM   24  C   UNL     1      41.378 -12.036   2.803  1.00  0.00     0.121 C 
HETATM   25  H   UNL     1      40.433 -12.308   0.986  1.00  0.00     0.279 HD
HETATM   26  H   UNL     1      42.042 -12.488   0.874  1.00  0.00     0.279 HD
HETATM   27  C   UNL     1      42.827 -12.123   3.296  1.00  0.00     0.046 C 
HETATM   28  C   UNL     1      41.071 -10.548   2.539  1.00  0.00     0.046 C 
HETATM   29  C   UNL     1      40.353 -12.589   3.810  1.00  0.00     0.063 C 
ENDBRANCH   1  18
TORSDOF 3
ENDMDL
MODEL 2
REMARK VINA RESULT:      -8.4      2.826      4.710
REMARK  3 active torsions:
REMARK  status: ('A' for Active; 'I' for Inactive)
REMARK    1  A    between atoms: C_11  and  N_12 
REMARK       I    between atoms: N_12  and  C_13 
REMARK    2  A    between atoms: C_13  and  C_14 
REMARK    3  A    between atoms: C_15  and  C_16 
ROOT
HETATM    1  N   UNL     1      41.987 -12.275   3.789  1.00  0.00    -0.352 N 
HETATM    2  C   UNL     1      42.224 -13.297   2.878  1.00  0.00     0.255 C 
HETATM    3  O   UNL     1      43.283 -13.398   2.272  1.00  0.00    -0.268 OA
HETATM    4  H   UNL     1      40.998 -12.081   3.903  1.00  0.00     0.163 HD
ENDROOT
BRANCH   2   5
HETATM    5  C   UNL     1      41.118 -14.226   2.717  1.00  0.00     0.080 A 
HETATM    6  C   UNL     1      41.077 -15.638   2.959  1.00  0.00     0.104 A 
HETATM    7  N   UNL     1      39.837 -16.116   2.759  1.00  0.00    -0.174 NA
HETATM    8  N   UNL     1      39.109 -15.061   2.394  1.00  0.00    -0.288 N 
HETATM    9  H   UNL     1      38.121 -15.206   2.207  1.00  0.00     0.188 HD
HETATM   10  C   UNL     1      39.825 -13.904   2.338  1.00  0.00     0.128 A 
BRANCH   6  11
HETATM   11  C   UNL     1      42.153 -16.557   3.346  1.00  0.00    -0.004 A 
HETATM   12  C   UNL     1      42.659 -16.525   4.657  1.00  0.00     0.017 A 
HETATM   13  C   UNL     1      43.662 -17.412   5.055  1.00  0.00     0.043 A 
HETATM   14  C   UNL     1      44.158 -18.336   4.144  1.00  0.00     0.116 A 
HETATM   15  F   UNL     1      45.118 -19.189   4.523  1.00  0.00    -0.206 F 
HETATM   16  C   UNL     1      43.666 -18.393   2.846  1.00  0.00     0.043 A 
HETATM   17  C   UNL     1      42.660 -17.508   2.448  1.00  0.00     0.017 A 
ENDBRANCH   6  11
ENDBRANCH   2   5
BRANCH   1  18
HETATM   18  C   UNL     1      42.926 -11.174   3.947  1.00  0.00     0.089 C 
HETATM   19  C   UNL     1      44.177 -11.503   4.776  1.00  0.00     0.063 C 
HETATM   20  C   UNL     1      43.937 -11.673   6.279  1.00  0.00     0.121 C 
HETATM   21  N   UNL     1      43.144 -10.491   6.799  1.00  0.00    -0.059 N 
HETATM   22  C   UNL     1      43.249 -12.986   6.662  1.00  0.00     0.046 C 
HETATM   23  C   UNL     1      45.292 -11.632   7.016  1.00  0.00     0.046 C 
HETATM   24  C   UNL     1      41.947  -9.970   6.032  1.00  0.00     0.121 C 
HETATM   25  H   UNL     1      43.809  -9.708   6.889  1.00  0.00     0.279 HD
HETATM   26  H   UNL     1      42.861 -10.688   7.770  1.00  0.00     0.279 HD
HETATM   27  C   UNL     1      40.701 -10.792   6.378  1.00  0.00     0.046 C 
HETATM   28  C   UNL     1      41.707  -8.534   6.541  1.00  0.00     0.046 C 
HETATM   29  C   UNL     1      42.254  -9.923   4.524  1.00  0.00     0.063 C 
ENDBRANCH   1  18
TORSDOF 3
ENDMDL
MODEL 3
REMARK VINA RESULT:      -8.2      2.057      3.334
REMARK  3 active torsions:
REMARK  status: ('A' for Active; 'I' for Inactive)
REMARK    1  A    between atoms: C_11  and  N_12 
REMARK       I    between atoms: N_12  and  C_13 
REMARK    2  A    between atoms: C_13  and  C_14 
REMARK    3  A    between atoms: C_15  and  C_16 
ROOT
HETATM    1  N   UNL     1      41.661 -12.626   3.052  1.00  0.00    -0.352 N 
HETATM    2  C   UNL     1      42.799 -13.309   3.466  1.00  0.00     0.255 C 
HETATM    3  O   UNL     1      43.789 -13.415   2.755  1.00  0.00    -0.268 OA
HETATM    4  H   UNL     1      40.825 -12.941   3.533  1.00  0.00     0.163 HD
ENDROOT
BRANCH   2   5
HETATM    5  C   UNL     1      42.707 -13.873   4.802  1.00  0.00     0.080 A 
HETATM    6  C   UNL     1      42.914 -15.226   5.230  1.00  0.00     0.104 A 
HETATM    7  N   UNL     1      42.807 -15.319   6.567  1.00  0.00    -0.174 NA
HETATM    8  N   UNL     1      42.533 -14.083   6.984  1.00  0.00    -0.288 N 
HETATM    9  H   UNL     1      42.427 -13.931   7.983  1.00  0.00     0.188 HD
HETATM   10  C   UNL     1      42.447 -13.178   5.971  1.00  0.00     0.128 A 
BRANCH   6  11
HETATM   11  C   UNL     1      43.185 -16.432   4.440  1.00  0.00    -0.004 A 
HETATM   12  C   UNL     1      42.519 -16.628   3.218  1.00  0.00     0.017 A 
HETATM   13  C   UNL     1      42.785 -17.756   2.437  1.00  0.00     0.043 A 
HETATM   14  C   UNL     1      43.720 -18.685   2.873  1.00  0.00     0.116 A 
HETATM   15  F   UNL     1      43.979 -19.765   2.124  1.00  0.00    -0.206 F 
HETATM   16  C   UNL     1      44.398 -18.506   4.072  1.00  0.00     0.043 A 
HETATM   17  C   UNL     1      44.135 -17.377   4.854  1.00  0.00     0.017 A 
ENDBRANCH   6  11
ENDBRANCH   2   5
BRANCH   1  18
HETATM   18  C   UNL     1      41.527 -12.142   1.686  1.00  0.00     0.089 C 
HETATM   19  C   UNL     1      40.415 -11.102   1.474  1.00  0.00     0.063 C 
HETATM   20  C   UNL     1      38.987 -11.650   1.546  1.00  0.00     0.121 C 
HETATM   21  N   UNL     1      38.871 -12.872   0.656  1.00  0.00    -0.059 N 
HETATM   22  C   UNL     1      38.510 -11.978   2.964  1.00  0.00     0.046 C 
HETATM   23  C   UNL     1      38.013 -10.606   0.962  1.00  0.00     0.046 C 
HETATM   24  C   UNL     1      39.948 -13.935   0.665  1.00  0.00     0.121 C 
HETATM   25  H   UNL     1      38.798 -12.524  -0.312  1.00  0.00     0.279 HD
HETATM   26  H   UNL     1      37.958 -13.317   0.829  1.00  0.00     0.279 HD
HETATM   27  C   UNL     1      39.712 -14.915   1.819  1.00  0.00     0.046 C 
HETATM   28  C   UNL     1      39.779 -14.724  -0.650  1.00  0.00     0.046 C 
HETATM   29  C   UNL     1      41.344 -13.287   0.685  1.00  0.00     0.063 C 
ENDBRANCH   1  18
TORSDOF 3
ENDMDL
MODEL 4
REMARK VINA RESULT:      -8.2      3.028      7.046
REMARK  3 active torsions:
REMARK  status: ('A' for Active; 'I' for Inactive)
REMARK    1  A    between atoms: C_11  and  N_12 
REMARK       I    between atoms: N_12  and  C_13 
REMARK    2  A    between atoms: C_13  and  C_14 
REMARK    3  A    between atoms: C_15  and  C_16 
ROOT
HETATM    1  N   UNL     1      40.966 -14.296   2.430  1.00  0.00    -0.352 N 
HETATM    2  C   UNL     1      40.127 -13.190   2.352  1.00  0.00     0.255 C 
HETATM    3  O   UNL     1      39.018 -13.177   2.868  1.00  0.00    -0.268 OA
HETATM    4  H   UNL     1      41.636 -14.328   1.669  1.00  0.00     0.163 HD
ENDROOT
BRANCH   2   5
HETATM    5  C   UNL     1      40.683 -12.067   1.617  1.00  0.00     0.080 A 
HETATM    6  C   UNL     1      40.500 -11.705   0.241  1.00  0.00     0.104 A 
HETATM    7  N   UNL     1      41.128 -10.548  -0.030  1.00  0.00    -0.174 NA
HETATM    8  N   UNL     1      41.701 -10.182   1.117  1.00  0.00    -0.288 N 
HETATM    9  H   UNL     1      42.222  -9.310   1.131  1.00  0.00     0.188 HD
HETATM   10  C   UNL     1      41.480 -11.059   2.134  1.00  0.00     0.128 A 
BRANCH   6  11
HETATM   11  C   UNL     1      39.783 -12.407  -0.828  1.00  0.00    -0.004 A 
HETATM   12  C   UNL     1      40.464 -13.341  -1.628  1.00  0.00     0.017 A 
HETATM   13  C   UNL     1      39.792 -14.042  -2.633  1.00  0.00     0.043 A 
HETATM   14  C   UNL     1      38.438 -13.814  -2.836  1.00  0.00     0.116 A 
HETATM   15  F   UNL     1      37.791 -14.486  -3.796  1.00  0.00    -0.206 F 
HETATM   16  C   UNL     1      37.741 -12.904  -2.051  1.00  0.00     0.043 A 
HETATM   17  C   UNL     1      38.412 -12.204  -1.044  1.00  0.00     0.017 A 
ENDBRANCH   6  11
ENDBRANCH   2   5
BRANCH   1  18
HETATM   18  C   UNL     1      40.502 -15.557   2.990  1.00  0.00     0.089 C 
HETATM   19  C   UNL     1      40.698 -15.703   4.507  1.00  0.00     0.063 C 
HETATM   20  C   UNL     1      42.147 -15.898   4.962  1.00  0.00     0.121 C 
HETATM   21  N   UNL     1      42.787 -17.003   4.145  1.00  0.00    -0.059 N 
HETATM   22  C   UNL     1      43.002 -14.628   4.901  1.00  0.00     0.046 C 
HETATM   23  C   UNL     1      42.158 -16.390   6.424  1.00  0.00     0.046 C 
HETATM   24  C   UNL     1      42.591 -17.063   2.646  1.00  0.00     0.121 C 
HETATM   25  H   UNL     1      42.439 -17.893   4.532  1.00  0.00     0.279 HD
HETATM   26  H   UNL     1      43.796 -17.021   4.353  1.00  0.00     0.279 HD
HETATM   27  C   UNL     1      43.595 -16.143   1.944  1.00  0.00     0.046 C 
HETATM   28  C   UNL     1      42.926 -18.511   2.230  1.00  0.00     0.046 C 
HETATM   29  C   UNL     1      41.125 -16.765   2.283  1.00  0.00     0.063 C 
ENDBRANCH   1  18
TORSDOF 3
ENDMDL
MODEL 5
REMARK VINA RESULT:      -8.1     14.101     16.066
REMARK  3 active torsions:
REMARK  status: ('A' for Active; 'I' for Inactive)
REMARK    1  A    between atoms: C_11  and  N_12 
REMARK       I    between atoms: N_12  and  C_13 
REMARK    2  A    between atoms: C_13  and  C_14 
REMARK    3  A    between atoms: C_15  and  C_16 
ROOT
HETATM    1  N   UNL     1      46.438 -30.899   1.602  1.00  0.00    -0.352 N 
HETATM    2  C   UNL     1      45.201 -31.450   1.288  1.00  0.00     0.255 C 
HETATM    3  O   UNL     1      45.076 -32.620   0.952  1.00  0.00    -0.268 OA
HETATM    4  H   UNL     1      46.457 -29.893   1.474  1.00  0.00     0.163 HD
ENDROOT
BRANCH   2   5
HETATM    5  C   UNL     1      44.087 -30.524   1.398  1.00  0.00     0.080 A 
HETATM    6  C   UNL     1      43.569 -29.609   0.422  1.00  0.00     0.104 A 
HETATM    7  N   UNL     1      42.477 -28.984   0.895  1.00  0.00    -0.174 NA
HETATM    8  N   UNL     1      42.302 -29.465   2.125  1.00  0.00    -0.288 N 
HETATM    9  H   UNL     1      41.506 -29.127   2.659  1.00  0.00     0.188 HD
HETATM   10  C   UNL     1      43.242 -30.381   2.486  1.00  0.00     0.128 A 
BRANCH   6  11
HETATM   11  C   UNL     1      44.067 -29.283  -0.918  1.00  0.00    -0.004 A 
HETATM   12  C   UNL     1      43.802 -30.153  -1.991  1.00  0.00     0.017 A 
HETATM   13  C   UNL     1      44.242 -29.846  -3.281  1.00  0.00     0.043 A 
HETATM   14  C   UNL     1      44.941 -28.667  -3.502  1.00  0.00     0.116 A 
HETATM   15  F   UNL     1      45.361 -28.369  -4.738  1.00  0.00    -0.206 F 
HETATM   16  C   UNL     1      45.204 -27.787  -2.460  1.00  0.00     0.043 A 
HETATM   17  C   UNL     1      44.763 -28.092  -1.169  1.00  0.00     0.017 A 
ENDBRANCH   6  11
ENDBRANCH   2   5
BRANCH   1  18
HETATM   18  C   UNL     1      47.671 -31.643   1.389  1.00  0.00     0.089 C 
HETATM   19  C   UNL     1      48.729 -31.474   2.491  1.00  0.00     0.063 C 
HETATM   20  C   UNL     1      49.419 -30.107   2.528  1.00  0.00     0.121 C 
HETATM   21  N   UNL     1      49.910 -29.752   1.138  1.00  0.00    -0.059 N 
HETATM   22  C   UNL     1      48.549 -28.978   3.089  1.00  0.00     0.046 C 
HETATM   23  C   UNL     1      50.679 -30.199   3.413  1.00  0.00     0.046 C 
HETATM   24  C   UNL     1      49.024 -29.971  -0.069  1.00  0.00     0.121 C 
HETATM   25  H   UNL     1      50.771 -30.298   0.984  1.00  0.00     0.279 HD
HETATM   26  H   UNL     1      50.234 -28.775   1.145  1.00  0.00     0.279 HD
HETATM   27  C   UNL     1      48.071 -28.784  -0.246  1.00  0.00     0.046 C 
HETATM   28  C   UNL     1      49.966 -29.990  -1.291  1.00  0.00     0.046 C 
HETATM   29  C   UNL     1      48.305 -31.328   0.030  1.00  0.00     0.063 C 
ENDBRANCH   1  18
TORSDOF 3
ENDMDL
MODEL 6
REMARK VINA RESULT:      -8.0      3.023      6.803
REMARK  3 active torsions:
REMARK  status: ('A' for Active; 'I' for Inactive)
REMARK    1  A    between atoms: C_11  and  N_12 
REMARK       I    between atoms: N_12  and  C_13 
REMARK    2  A    between atoms: C_13  and  C_14 
REMARK    3  A    between atoms: C_15  and  C_16 
ROOT
HETATM    1  N   UNL     1      41.009 -14.345   2.619  1.00  0.00    -0.352 N 
HETATM    2  C   UNL     1      40.142 -13.273   2.452  1.00  0.00     0.255 C 
HETATM    3  O   UNL     1      38.979 -13.309   2.832  1.00  0.00    -0.268 OA
HETATM    4  H   UNL     1      41.765 -14.340   1.942  1.00  0.00     0.163 HD
ENDROOT
BRANCH   2   5
HETATM    5  C   UNL     1      40.734 -12.118   1.798  1.00  0.00     0.080 A 
HETATM    6  C   UNL     1      41.766 -11.241   2.267  1.00  0.00     0.104 A 
HETATM    7  N   UNL     1      42.082 -10.337   1.325  1.00  0.00    -0.174 NA
HETATM    8  N   UNL     1      41.283 -10.610   0.293  1.00  0.00    -0.288 N 
HETATM    9  H   UNL     1      41.374 -10.041  -0.543  1.00  0.00     0.188 HD
HETATM   10  C   UNL     1      40.444 -11.658   0.524  1.00  0.00     0.128 A 
BRANCH   6  11
HETATM   11  C   UNL     1      42.449 -11.202   3.565  1.00  0.00    -0.004 A 
HETATM   12  C   UNL     1      43.803 -11.568   3.651  1.00  0.00     0.017 A 
HETATM   13  C   UNL     1      44.479 -11.510   4.873  1.00  0.00     0.043 A 
HETATM   14  C   UNL     1      43.805 -11.080   6.008  1.00  0.00     0.116 A 
HETATM   15  F   UNL     1      44.451 -11.020   7.179  1.00  0.00    -0.206 F 
HETATM   16  C   UNL     1      42.469 -10.702   5.944  1.00  0.00     0.043 A 
HETATM   17  C   UNL     1      41.792 -10.759   4.723  1.00  0.00     0.017 A 
ENDBRANCH   6  11
ENDBRANCH   2   5
BRANCH   1  18
HETATM   18  C   UNL     1      40.534 -15.631   3.108  1.00  0.00     0.089 C 
HETATM   19  C   UNL     1      40.723 -15.861   4.615  1.00  0.00     0.063 C 
HETATM   20  C   UNL     1      42.170 -16.092   5.062  1.00  0.00     0.121 C 
HETATM   21  N   UNL     1      42.804 -17.155   4.189  1.00  0.00    -0.059 N 
HETATM   22  C   UNL     1      43.034 -14.827   5.073  1.00  0.00     0.046 C 
HETATM   23  C   UNL     1      42.172 -16.662   6.496  1.00  0.00     0.046 C 
HETATM   24  C   UNL     1      42.612 -17.133   2.688  1.00  0.00     0.121 C 
HETATM   25  H   UNL     1      42.448 -18.063   4.525  1.00  0.00     0.279 HD
HETATM   26  H   UNL     1      43.812 -17.193   4.398  1.00  0.00     0.279 HD
HETATM   27  C   UNL     1      43.626 -16.183   2.040  1.00  0.00     0.046 C 
HETATM   28  C   UNL     1      42.938 -18.558   2.195  1.00  0.00     0.046 C 
HETATM   29  C   UNL     1      41.150 -16.803   2.337  1.00  0.00     0.063 C 
ENDBRANCH   1  18
TORSDOF 3
ENDMDL
MODEL 7
REMARK VINA RESULT:      -8.0      3.387      6.694
REMARK  3 active torsions:
REMARK  status: ('A' for Active; 'I' for Inactive)
REMARK    1  A    between atoms: C_11  and  N_12 
REMARK       I    between atoms: N_12  and  C_13 
REMARK    2  A    between atoms: C_13  and  C_14 
REMARK    3  A    between atoms: C_15  and  C_16 
ROOT
HETATM    1  N   UNL     1      40.831 -14.135   4.519  1.00  0.00    -0.352 N 
HETATM    2  C   UNL     1      40.207 -13.188   5.323  1.00  0.00     0.255 C 
HETATM    3  O   UNL     1      39.649 -13.488   6.370  1.00  0.00    -0.268 OA
HETATM    4  H   UNL     1      40.891 -13.840   3.550  1.00  0.00     0.163 HD
ENDROOT
BRANCH   2   5
HETATM    5  C   UNL     1      40.281 -11.828   4.815  1.00  0.00     0.080 A 
HETATM    6  C   UNL     1      41.352 -10.880   4.915  1.00  0.00     0.104 A 
HETATM    7  N   UNL     1      41.051  -9.755   4.245  1.00  0.00    -0.174 NA
HETATM    8  N   UNL     1      39.834  -9.961   3.741  1.00  0.00    -0.288 N 
HETATM    9  H   UNL     1      39.421  -9.224   3.177  1.00  0.00     0.188 HD
HETATM   10  C   UNL     1      39.317 -11.179   4.062  1.00  0.00     0.128 A 
BRANCH   6  11
HETATM   11  C   UNL     1      42.630 -10.978   5.628  1.00  0.00    -0.004 A 
HETATM   12  C   UNL     1      42.666 -10.809   7.023  1.00  0.00     0.017 A 
HETATM   13  C   UNL     1      43.869 -10.927   7.723  1.00  0.00     0.043 A 
HETATM   14  C   UNL     1      45.037 -11.220   7.032  1.00  0.00     0.116 A 
HETATM   15  F   UNL     1      46.191 -11.336   7.701  1.00  0.00    -0.206 F 
HETATM   16  C   UNL     1      45.024 -11.401   5.655  1.00  0.00     0.043 A 
HETATM   17  C   UNL     1      43.821 -11.285   4.953  1.00  0.00     0.017 A 
ENDBRANCH   6  11
ENDBRANCH   2   5
BRANCH   1  18
HETATM   18  C   UNL     1      40.711 -15.558   4.799  1.00  0.00     0.089 C 
HETATM   19  C   UNL     1      41.434 -16.032   6.069  1.00  0.00     0.063 C 
HETATM   20  C   UNL     1      42.963 -16.057   5.978  1.00  0.00     0.121 C 
HETATM   21  N   UNL     1      43.380 -16.789   4.717  1.00  0.00    -0.059 N 
HETATM   22  C   UNL     1      43.619 -14.674   6.032  1.00  0.00     0.046 C 
HETATM   23  C   UNL     1      43.527 -16.881   7.154  1.00  0.00     0.046 C 
HETATM   24  C   UNL     1      42.682 -16.516   3.403  1.00  0.00     0.121 C 
HETATM   25  H   UNL     1      43.273 -17.795   4.914  1.00  0.00     0.279 HD
HETATM   26  H   UNL     1      44.396 -16.669   4.590  1.00  0.00     0.279 HD
HETATM   27  C   UNL     1      43.289 -15.280   2.729  1.00  0.00     0.046 C 
HETATM   28  C   UNL     1      42.987 -17.728   2.499  1.00  0.00     0.046 C 
HETATM   29  C   UNL     1      41.160 -16.417   3.612  1.00  0.00     0.063 C 
ENDBRANCH   1  18
TORSDOF 3
ENDMDL
MODEL 8
REMARK VINA RESULT:      -7.7      2.944      6.600
REMARK  3 active torsions:
REMARK  status: ('A' for Active; 'I' for Inactive)
REMARK    1  A    between atoms: C_11  and  N_12 
REMARK       I    between atoms: N_12  and  C_13 
REMARK    2  A    between atoms: C_13  and  C_14 
REMARK    3  A    between atoms: C_15  and  C_16 
ROOT
HETATM    1  N   UNL     1      41.432 -13.187   3.686  1.00  0.00    -0.352 N 
HETATM    2  C   UNL     1      41.376 -12.063   2.869  1.00  0.00     0.255 C 
HETATM    3  O   UNL     1      42.366 -11.617   2.306  1.00  0.00    -0.268 OA
HETATM    4  H   UNL     1      40.682 -13.206   4.369  1.00  0.00     0.163 HD
ENDROOT
BRANCH   2   5
HETATM    5  C   UNL     1      40.051 -11.479   2.744  1.00  0.00     0.080 A 
HETATM    6  C   UNL     1      39.054 -11.701   1.738  1.00  0.00     0.104 A 
HETATM    7  N   UNL     1      37.931 -11.022   2.027  1.00  0.00    -0.174 NA
HETATM    8  N   UNL     1      38.194 -10.380   3.166  1.00  0.00    -0.288 N 
HETATM    9  H   UNL     1      37.456  -9.810   3.571  1.00  0.00     0.188 HD
HETATM   10  C   UNL     1      39.452 -10.604   3.635  1.00  0.00     0.128 A 
BRANCH   6  11
HETATM   11  C   UNL     1      39.118 -12.504   0.512  1.00  0.00    -0.004 A 
HETATM   12  C   UNL     1      39.871 -13.691   0.493  1.00  0.00     0.017 A 
HETATM   13  C   UNL     1      39.921 -14.484  -0.656  1.00  0.00     0.043 A 
HETATM   14  C   UNL     1      39.214 -14.095  -1.786  1.00  0.00     0.116 A 
HETATM   15  F   UNL     1      39.257 -14.855  -2.887  1.00  0.00    -0.206 F 
HETATM   16  C   UNL     1      38.454 -12.932  -1.788  1.00  0.00     0.043 A 
HETATM   17  C   UNL     1      38.402 -12.139  -0.638  1.00  0.00     0.017 A 
ENDBRANCH   6  11
ENDBRANCH   2   5
BRANCH   1  18
HETATM   18  C   UNL     1      42.705 -13.794   4.046  1.00  0.00     0.089 C 
HETATM   19  C   UNL     1      43.077 -15.047   3.237  1.00  0.00     0.063 C 
HETATM   20  C   UNL     1      42.253 -16.298   3.559  1.00  0.00     0.121 C 
HETATM   21  N   UNL     1      42.228 -16.513   5.059  1.00  0.00    -0.059 N 
HETATM   22  C   UNL     1      40.826 -16.272   3.002  1.00  0.00     0.046 C 
HETATM   23  C   UNL     1      42.957 -17.535   2.964  1.00  0.00     0.046 C 
HETATM   24  C   UNL     1      41.989 -15.351   5.999  1.00  0.00     0.121 C 
HETATM   25  H   UNL     1      43.140 -16.923   5.312  1.00  0.00     0.279 HD
HETATM   26  H   UNL     1      41.553 -17.261   5.272  1.00  0.00     0.279 HD
HETATM   27  C   UNL     1      40.486 -15.089   6.144  1.00  0.00     0.046 C 
HETATM   28  C   UNL     1      42.512 -15.804   7.378  1.00  0.00     0.046 C 
HETATM   29  C   UNL     1      42.787 -14.116   5.541  1.00  0.00     0.063 C 
ENDBRANCH   1  18
TORSDOF 3
ENDMDL
MODEL 9
REMARK VINA RESULT:      -7.6      3.038      4.460
REMARK  3 active torsions:
REMARK  status: ('A' for Active; 'I' for Inactive)
REMARK    1  A    between atoms: C_11  and  N_12 
REMARK       I    between atoms: N_12  and  C_13 
REMARK    2  A    between atoms: C_13  and  C_14 
REMARK    3  A    between atoms: C_15  and  C_16 
ROOT
HETATM    1  N   UNL     1      42.224 -12.393   6.291  1.00  0.00    -0.352 N 
HETATM    2  C   UNL     1      43.302 -13.235   6.536  1.00  0.00     0.255 C 
HETATM    3  O   UNL     1      44.454 -12.823   6.579  1.00  0.00    -0.268 OA
HETATM    4  H   UNL     1      41.428 -12.888   5.901  1.00  0.00     0.163 HD
ENDROOT
BRANCH   2   5
HETATM    5  C   UNL     1      42.942 -14.628   6.739  1.00  0.00     0.080 A 
HETATM    6  C   UNL     1      42.466 -15.589   5.787  1.00  0.00     0.104 A 
HETATM    7  N   UNL     1      42.320 -16.794   6.364  1.00  0.00    -0.174 NA
HETATM    8  N   UNL     1      42.677 -16.619   7.637  1.00  0.00    -0.288 N 
HETATM    9  H   UNL     1      42.652 -17.426   8.253  1.00  0.00     0.188 HD
HETATM   10  C   UNL     1      43.045 -15.340   7.923  1.00  0.00     0.128 A 
BRANCH   6  11
HETATM   11  C   UNL     1      42.123 -15.419   4.371  1.00  0.00    -0.004 A 
HETATM   12  C   UNL     1      43.041 -14.807   3.500  1.00  0.00     0.017 A 
HETATM   13  C   UNL     1      42.746 -14.663   2.142  1.00  0.00     0.043 A 
HETATM   14  C   UNL     1      41.536 -15.135   1.651  1.00  0.00     0.116 A 
HETATM   15  F   UNL     1      41.252 -15.000   0.350  1.00  0.00    -0.206 F 
HETATM   16  C   UNL     1      40.618 -15.752   2.491  1.00  0.00     0.043 A 
HETATM   17  C   UNL     1      40.913 -15.899   3.850  1.00  0.00     0.017 A 
ENDBRANCH   6  11
ENDBRANCH   2   5
BRANCH   1  18
HETATM   18  C   UNL     1      42.424 -11.003   5.909  1.00  0.00     0.089 C 
HETATM   19  C   UNL     1      41.518  -9.995   6.634  1.00  0.00     0.063 C 
HETATM   20  C   UNL     1      40.045 -10.023   6.214  1.00  0.00     0.121 C 
HETATM   21  N   UNL     1      39.951  -9.966   4.702  1.00  0.00    -0.059 N 
HETATM   22  C   UNL     1      39.261 -11.224   6.750  1.00  0.00     0.046 C 
HETATM   23  C   UNL     1      39.347  -8.749   6.731  1.00  0.00     0.046 C 
HETATM   24  C   UNL     1      40.861 -10.816   3.842  1.00  0.00     0.121 C 
HETATM   25  H   UNL     1      40.115  -8.983   4.435  1.00  0.00     0.279 HD
HETATM   26  H   UNL     1      38.973 -10.137   4.428  1.00  0.00     0.279 HD
HETATM   27  C   UNL     1      40.280 -12.227   3.694  1.00  0.00     0.046 C 
HETATM   28  C   UNL     1      40.854 -10.167   2.442  1.00  0.00     0.046 C 
HETATM   29  C   UNL     1      42.297 -10.799   4.396  1.00  0.00     0.063 C 
ENDBRANCH   1  18
TORSDOF 3
ENDMDL
MODEL 10
REMARK VINA RESULT:      -7.6      3.252      5.311
REMARK  3 active torsions:
REMARK  status: ('A' for Active; 'I' for Inactive)
REMARK    1  A    between atoms: C_11  and  N_12 
REMARK       I    between atoms: N_12  and  C_13 
REMARK    2  A    between atoms: C_13  and  C_14 
REMARK    3  A    between atoms: C_15  and  C_16 
ROOT
HETATM    1  N   UNL     1      39.718 -11.694   0.200  1.00  0.00    -0.352 N 
HETATM    2  C   UNL     1      39.823 -12.169   1.502  1.00  0.00     0.255 C 
HETATM    3  O   UNL     1      38.927 -12.811   2.036  1.00  0.00    -0.268 OA
HETATM    4  H   UNL     1      40.311 -10.887   0.035  1.00  0.00     0.163 HD
ENDROOT
BRANCH   2   5
HETATM    5  C   UNL     1      41.076 -11.843   2.161  1.00  0.00     0.080 A 
HETATM    6  C   UNL     1      42.142 -12.714   2.564  1.00  0.00     0.104 A 
HETATM    7  N   UNL     1      43.163 -12.005   3.075  1.00  0.00    -0.174 NA
HETATM    8  N   UNL     1      42.772 -10.732   3.015  1.00  0.00    -0.288 N 
HETATM    9  H   UNL     1      43.418 -10.020   3.344  1.00  0.00     0.188 HD
HETATM   10  C   UNL     1      41.526 -10.574   2.490  1.00  0.00     0.128 A 
BRANCH   6  11
HETATM   11  C   UNL     1      42.232 -14.177   2.510  1.00  0.00    -0.004 A 
HETATM   12  C   UNL     1      41.308 -14.959   3.223  1.00  0.00     0.017 A 
HETATM   13  C   UNL     1      41.359 -16.354   3.161  1.00  0.00     0.043 A 
HETATM   14  C   UNL     1      42.329 -16.969   2.381  1.00  0.00     0.116 A 
HETATM   15  F   UNL     1      42.378 -18.305   2.317  1.00  0.00    -0.206 F 
HETATM   16  C   UNL     1      43.246 -16.216   1.659  1.00  0.00     0.043 A 
HETATM   17  C   UNL     1      43.195 -14.820   1.719  1.00  0.00     0.017 A 
ENDBRANCH   6  11
ENDBRANCH   2   5
BRANCH   1  18
HETATM   18  C   UNL     1      38.470 -11.793  -0.541  1.00  0.00     0.089 C 
HETATM   19  C   UNL     1      38.249 -13.133  -1.261  1.00  0.00     0.063 C 
HETATM   20  C   UNL     1      39.135 -13.367  -2.488  1.00  0.00     0.121 C 
HETATM   21  N   UNL     1      39.067 -12.157  -3.397  1.00  0.00    -0.059 N 
HETATM   22  C   UNL     1      40.592 -13.703  -2.157  1.00  0.00     0.046 C 
HETATM   23  C   UNL     1      38.566 -14.546  -3.305  1.00  0.00     0.046 C 
HETATM   24  C   UNL     1      39.153 -10.759  -2.825  1.00  0.00     0.121 C 
HETATM   25  H   UNL     1      38.171 -12.221  -3.904  1.00  0.00     0.279 HD
HETATM   26  H   UNL     1      39.777 -12.262  -4.136  1.00  0.00     0.279 HD
HETATM   27  C   UNL     1      40.619 -10.361  -2.623  1.00  0.00     0.046 C 
HETATM   28  C   UNL     1      38.566  -9.821  -3.900  1.00  0.00     0.046 C 
HETATM   29  C   UNL     1      38.304 -10.648  -1.545  1.00  0.00     0.063 C 
ENDBRANCH   1  18
TORSDOF 3
ENDMDL
