MODEL 1
REMARK VINA RESULT:      -9.2      0.000      0.000
REMARK  7 active torsions:
REMARK  status: ('A' for Active; 'I' for Inactive)
REMARK    1  A    between atoms: C_3  and  N_4 
REMARK       I    between atoms: N_4  and  C_5 
REMARK    2  A    between atoms: C_5  and  C_6 
REMARK       I    between atoms: C_6  and  N_7 
REMARK    3  A    between atoms: N_7  and  C_8 
REMARK    4  A    between atoms: C_8  and  C_9 
REMARK    5  A    between atoms: C_9  and  C_10 
REMARK    6  A    between atoms: C_12  and  O_13 
REMARK    7  A    between atoms: N_20  and  C_21 
ROOT
HETATM    1  N   UNL     1      43.190 -12.870   7.314  1.00  0.00    -0.302 N 
HETATM    2  C   UNL     1      43.970 -11.771   7.048  1.00  0.00     0.315 C 
HETATM    3  O   UNL     1      44.396 -11.325   5.993  1.00  0.00    -0.262 OA
HETATM    4  H   UNL     1      42.987 -13.043   8.292  1.00  0.00     0.171 HD
ENDROOT
BRANCH   2   5
HETATM    5  C   UNL     1      44.333 -11.034   8.353  1.00  0.00     0.309 C 
HETATM    6  N   UNL     1      43.256 -10.476   9.006  1.00  0.00    -0.353 N 
HETATM    7  H   UNL     1      42.371 -10.505   8.504  1.00  0.00     0.162 HD
HETATM    8  O   UNL     1      45.502 -10.982   8.711  1.00  0.00    -0.262 OA
BRANCH   6   9
HETATM    9  C   UNL     1      43.428  -9.655  10.184  1.00  0.00     0.128 C 
BRANCH   9  10
HETATM   10  C   UNL     1      42.632 -10.184  11.376  1.00  0.00     0.058 C 
BRANCH  10  11
HETATM   11  C   UNL     1      42.659  -9.219  12.535  1.00  0.00    -0.054 A 
HETATM   12  C   UNL     1      41.814  -9.402  13.640  1.00  0.00     0.043 A 
HETATM   13  C   UNL     1      41.833  -8.482  14.686  1.00  0.00     0.066 A 
HETATM   14  C   UNL     1      42.678  -7.380  14.653  1.00  0.00     0.036 A 
HETATM   15  C   UNL     1      43.519  -7.189  13.558  1.00  0.00     0.003 A 
HETATM   16  C   UNL     1      43.508  -8.102  12.502  1.00  0.00     0.007 A 
BRANCH  13  17
HETATM   17  O   UNL     1      41.025  -8.627  15.775  1.00  0.00    -0.361 OA
HETATM   18  H   UNL     1      41.335  -8.030  16.474  1.00  0.00     0.217 HD
ENDBRANCH  13  17
ENDBRANCH  10  11
ENDBRANCH   9  10
ENDBRANCH   6   9
ENDBRANCH   2   5
BRANCH   1  19
HETATM   19  C   UNL     1      42.672 -13.737   6.383  1.00  0.00     0.158 A 
HETATM   20  C   UNL     1      41.381 -13.619   5.815  1.00  0.00     0.003 A 
HETATM   21  C   UNL     1      40.341 -12.591   6.059  1.00  0.00     0.054 C 
HETATM   22  C   UNL     1      41.304 -14.672   4.927  1.00  0.00     0.129 A 
HETATM   23  N   UNL     1      42.477 -15.385   5.017  1.00  0.00    -0.241 N 
HETATM   24  N   UNL     1      43.329 -14.777   5.881  1.00  0.00    -0.149 NA
BRANCH  23  25
HETATM   25  C   UNL     1      42.899 -16.553   4.312  1.00  0.00     0.079 A 
HETATM   26  C   UNL     1      42.447 -16.930   3.038  1.00  0.00     0.062 A 
HETATM   27 CL   UNL     1      41.160 -16.176   2.162  1.00  0.00    -0.082 Cl
HETATM   28  C   UNL     1      42.980 -18.074   2.419  1.00  0.00     0.026 A 
HETATM   29  C   UNL     1      43.943 -18.856   3.055  1.00  0.00     0.002 A 
HETATM   30  C   UNL     1      44.372 -18.512   4.330  1.00  0.00     0.002 A 
HETATM   31  C   UNL     1      43.851 -17.377   4.955  1.00  0.00     0.033 A 
ENDBRANCH  23  25
ENDBRANCH   1  19
TORSDOF 7
ENDMDL
MODEL 2
REMARK VINA RESULT:      -9.2      0.821      1.231
REMARK  7 active torsions:
REMARK  status: ('A' for Active; 'I' for Inactive)
REMARK    1  A    between atoms: C_3  and  N_4 
REMARK       I    between atoms: N_4  and  C_5 
REMARK    2  A    between atoms: C_5  and  C_6 
REMARK       I    between atoms: C_6  and  N_7 
REMARK    3  A    between atoms: N_7  and  C_8 
REMARK    4  A    between atoms: C_8  and  C_9 
REMARK    5  A    between atoms: C_9  and  C_10 
REMARK    6  A    between atoms: C_12  and  O_13 
REMARK    7  A    between atoms: N_20  and  C_21 
ROOT
HETATM    1  N   UNL     1      43.161 -13.100   7.138  1.00  0.00    -0.302 N 
HETATM    2  C   UNL     1      43.774 -11.925   6.778  1.00  0.00     0.315 C 
HETATM    3  O   UNL     1      44.021 -11.451   5.678  1.00  0.00    -0.262 OA
HETATM    4  H   UNL     1      43.095 -13.277   8.134  1.00  0.00     0.171 HD
ENDROOT
BRANCH   2   5
HETATM    5  C   UNL     1      44.200 -11.128   8.028  1.00  0.00     0.309 C 
HETATM    6  N   UNL     1      43.167 -10.473   8.660  1.00  0.00    -0.353 N 
HETATM    7  H   UNL     1      42.272 -10.484   8.174  1.00  0.00     0.162 HD
HETATM    8  O   UNL     1      45.377 -11.118   8.365  1.00  0.00    -0.262 OA
BRANCH   6   9
HETATM    9  C   UNL     1      43.404  -9.590   9.781  1.00  0.00     0.128 C 
BRANCH   9  10
HETATM   10  C   UNL     1      43.459 -10.346  11.108  1.00  0.00     0.058 C 
BRANCH  10  11
HETATM   11  C   UNL     1      42.824  -9.555  12.225  1.00  0.00    -0.054 A 
HETATM   12  C   UNL     1      43.449  -8.408  12.735  1.00  0.00     0.043 A 
HETATM   13  C   UNL     1      42.860  -7.709  13.788  1.00  0.00     0.066 A 
HETATM   14  C   UNL     1      41.660  -8.135  14.345  1.00  0.00     0.036 A 
HETATM   15  C   UNL     1      41.035  -9.275  13.846  1.00  0.00     0.003 A 
HETATM   16  C   UNL     1      41.615  -9.985  12.793  1.00  0.00     0.007 A 
BRANCH  13  17
HETATM   17  O   UNL     1      43.439  -6.590  14.311  1.00  0.00    -0.361 OA
HETATM   18  H   UNL     1      44.337  -6.509  13.954  1.00  0.00     0.217 HD
ENDBRANCH  13  17
ENDBRANCH  10  11
ENDBRANCH   9  10
ENDBRANCH   6   9
ENDBRANCH   2   5
BRANCH   1  19
HETATM   19  C   UNL     1      42.641 -14.036   6.278  1.00  0.00     0.158 A 
HETATM   20  C   UNL     1      41.296 -14.054   5.838  1.00  0.00     0.003 A 
HETATM   21  C   UNL     1      40.191 -13.120   6.164  1.00  0.00     0.054 C 
HETATM   22  C   UNL     1      41.234 -15.133   4.980  1.00  0.00     0.129 A 
HETATM   23  N   UNL     1      42.473 -15.731   4.967  1.00  0.00    -0.241 N 
HETATM   24  N   UNL     1      43.342 -15.023   5.733  1.00  0.00    -0.149 NA
BRANCH  23  25
HETATM   25  C   UNL     1      42.934 -16.874   4.245  1.00  0.00     0.079 A 
HETATM   26  C   UNL     1      42.540 -17.214   2.942  1.00  0.00     0.062 A 
HETATM   27 CL   UNL     1      41.285 -16.442   2.036  1.00  0.00    -0.082 Cl
HETATM   28  C   UNL     1      43.109 -18.334   2.312  1.00  0.00     0.026 A 
HETATM   29  C   UNL     1      44.050 -19.128   2.964  1.00  0.00     0.002 A 
HETATM   30  C   UNL     1      44.422 -18.821   4.266  1.00  0.00     0.002 A 
HETATM   31  C   UNL     1      43.865 -17.710   4.903  1.00  0.00     0.033 A 
ENDBRANCH  23  25
ENDBRANCH   1  19
TORSDOF 7
ENDMDL
MODEL 3
REMARK VINA RESULT:      -9.1      3.410     10.600
REMARK  7 active torsions:
REMARK  status: ('A' for Active; 'I' for Inactive)
REMARK    1  A    between atoms: C_3  and  N_4 
REMARK       I    between atoms: N_4  and  C_5 
REMARK    2  A    between atoms: C_5  and  C_6 
REMARK       I    between atoms: C_6  and  N_7 
REMARK    3  A    between atoms: N_7  and  C_8 
REMARK    4  A    between atoms: C_8  and  C_9 
REMARK    5  A    between atoms: C_9  and  C_10 
REMARK    6  A    between atoms: C_12  and  O_13 
REMARK    7  A    between atoms: N_20  and  C_21 
ROOT
HETATM    1  N   UNL     1      43.660 -12.491   7.260  1.00  0.00    -0.302 N 
HETATM    2  C   UNL     1      43.166 -12.569   5.980  1.00  0.00     0.315 C 
HETATM    3  O   UNL     1      42.959 -11.702   5.144  1.00  0.00    -0.262 OA
HETATM    4  H   UNL     1      43.716 -13.366   7.767  1.00  0.00     0.171 HD
ENDROOT
BRANCH   2   5
HETATM    5  C   UNL     1      42.832 -14.030   5.615  1.00  0.00     0.309 C 
HETATM    6  N   UNL     1      43.267 -14.956   6.537  1.00  0.00    -0.353 N 
HETATM    7  H   UNL     1      43.857 -14.595   7.283  1.00  0.00     0.162 HD
HETATM    8  O   UNL     1      42.236 -14.270   4.573  1.00  0.00    -0.262 OA
BRANCH   6   9
HETATM    9  C   UNL     1      43.137 -16.377   6.300  1.00  0.00     0.128 C 
BRANCH   9  10
HETATM   10  C   UNL     1      44.365 -16.959   5.601  1.00  0.00     0.058 C 
BRANCH  10  11
HETATM   11  C   UNL     1      43.977 -17.885   4.474  1.00  0.00    -0.054 A 
HETATM   12  C   UNL     1      44.204 -19.266   4.571  1.00  0.00     0.043 A 
HETATM   13  C   UNL     1      43.865 -20.099   3.507  1.00  0.00     0.066 A 
HETATM   14  C   UNL     1      43.307 -19.582   2.344  1.00  0.00     0.036 A 
HETATM   15  C   UNL     1      43.081 -18.211   2.239  1.00  0.00     0.003 A 
HETATM   16  C   UNL     1      43.417 -17.365   3.297  1.00  0.00     0.007 A 
BRANCH  13  17
HETATM   17  O   UNL     1      44.073 -21.446   3.565  1.00  0.00    -0.361 OA
HETATM   18  H   UNL     1      44.750 -21.628   4.235  1.00  0.00     0.217 HD
ENDBRANCH  13  17
ENDBRANCH  10  11
ENDBRANCH   9  10
ENDBRANCH   6   9
ENDBRANCH   2   5
BRANCH   1  19
HETATM   19  C   UNL     1      44.077 -11.347   7.895  1.00  0.00     0.158 A 
HETATM   20  C   UNL     1      45.314 -10.705   7.652  1.00  0.00     0.003 A 
HETATM   21  C   UNL     1      46.392 -11.077   6.704  1.00  0.00     0.054 C 
HETATM   22  C   UNL     1      45.292  -9.602   8.480  1.00  0.00     0.129 A 
HETATM   23  N   UNL     1      44.118  -9.636   9.195  1.00  0.00    -0.241 N 
HETATM   24  N   UNL     1      43.358 -10.688   8.797  1.00  0.00    -0.149 NA
BRANCH  23  25
HETATM   25  C   UNL     1      43.613  -8.729  10.177  1.00  0.00     0.079 A 
HETATM   26  C   UNL     1      42.917  -7.544   9.893  1.00  0.00     0.062 A 
HETATM   27 CL   UNL     1      42.708  -6.850   8.322  1.00  0.00    -0.082 Cl
HETATM   28  C   UNL     1      42.415  -6.760  10.947  1.00  0.00     0.026 A 
HETATM   29  C   UNL     1      42.610  -7.130  12.276  1.00  0.00     0.002 A 
HETATM   30  C   UNL     1      43.327  -8.282  12.569  1.00  0.00     0.002 A 
HETATM   31  C   UNL     1      43.829  -9.070  11.532  1.00  0.00     0.033 A 
ENDBRANCH  23  25
ENDBRANCH   1  19
TORSDOF 7
ENDMDL
MODEL 4
REMARK VINA RESULT:      -8.9      1.425      1.781
REMARK  7 active torsions:
REMARK  status: ('A' for Active; 'I' for Inactive)
REMARK    1  A    between atoms: C_3  and  N_4 
REMARK       I    between atoms: N_4  and  C_5 
REMARK    2  A    between atoms: C_5  and  C_6 
REMARK       I    between atoms: C_6  and  N_7 
REMARK    3  A    between atoms: N_7  and  C_8 
REMARK    4  A    between atoms: C_8  and  C_9 
REMARK    5  A    between atoms: C_9  and  C_10 
REMARK    6  A    between atoms: C_12  and  O_13 
REMARK    7  A    between atoms: N_20  and  C_21 
ROOT
HETATM    1  N   UNL     1      42.783 -11.994   6.884  1.00  0.00    -0.302 N 
HETATM    2  C   UNL     1      44.102 -11.703   7.130  1.00  0.00     0.315 C 
HETATM    3  O   UNL     1      45.129 -12.268   6.783  1.00  0.00    -0.262 OA
HETATM    4  H   UNL     1      42.105 -11.373   7.309  1.00  0.00     0.171 HD
ENDROOT
BRANCH   2   5
HETATM    5  C   UNL     1      44.225 -10.439   8.005  1.00  0.00     0.309 C 
HETATM    6  N   UNL     1      43.204 -10.281   8.915  1.00  0.00    -0.353 N 
HETATM    7  H   UNL     1      42.430 -10.936   8.831  1.00  0.00     0.162 HD
HETATM    8  O   UNL     1      45.172  -9.681   7.841  1.00  0.00    -0.262 OA
BRANCH   6   9
HETATM    9  C   UNL     1      43.101  -9.096   9.739  1.00  0.00     0.128 C 
BRANCH   9  10
HETATM   10  C   UNL     1      43.835  -9.253  11.069  1.00  0.00     0.058 C 
BRANCH  10  11
HETATM   11  C   UNL     1      42.891  -9.150  12.242  1.00  0.00    -0.054 A 
HETATM   12  C   UNL     1      41.799 -10.022  12.362  1.00  0.00     0.043 A 
HETATM   13  C   UNL     1      40.923  -9.890  13.437  1.00  0.00     0.066 A 
HETATM   14  C   UNL     1      41.111  -8.902  14.396  1.00  0.00     0.036 A 
HETATM   15  C   UNL     1      42.192  -8.030  14.282  1.00  0.00     0.003 A 
HETATM   16  C   UNL     1      43.077  -8.150  13.209  1.00  0.00     0.007 A 
BRANCH  13  17
HETATM   17  O   UNL     1      39.850 -10.719  13.585  1.00  0.00    -0.361 OA
HETATM   18  H   UNL     1      40.005 -11.294  14.351  1.00  0.00     0.217 HD
ENDBRANCH  13  17
ENDBRANCH  10  11
ENDBRANCH   9  10
ENDBRANCH   6   9
ENDBRANCH   2   5
BRANCH   1  19
HETATM   19  C   UNL     1      42.315 -13.037   6.123  1.00  0.00     0.158 A 
HETATM   20  C   UNL     1      40.958 -13.215   5.760  1.00  0.00     0.003 A 
HETATM   21  C   UNL     1      39.785 -12.367   6.081  1.00  0.00     0.054 C 
HETATM   22  C   UNL     1      40.961 -14.357   4.986  1.00  0.00     0.129 A 
HETATM   23  N   UNL     1      42.250 -14.836   4.947  1.00  0.00    -0.241 N 
HETATM   24  N   UNL     1      43.082 -13.993   5.611  1.00  0.00    -0.149 NA
BRANCH  23  25
HETATM   25  C   UNL     1      42.785 -15.982   4.283  1.00  0.00     0.079 A 
HETATM   26  C   UNL     1      43.259 -17.135   4.928  1.00  0.00     0.062 A 
HETATM   27 CL   UNL     1      43.472 -17.319   6.635  1.00  0.00    -0.082 Cl
HETATM   28  C   UNL     1      43.709 -18.225   4.164  1.00  0.00     0.026 A 
HETATM   29  C   UNL     1      43.711 -18.178   2.771  1.00  0.00     0.002 A 
HETATM   30  C   UNL     1      43.277 -17.030   2.124  1.00  0.00     0.002 A 
HETATM   31  C   UNL     1      42.826 -15.941   2.871  1.00  0.00     0.033 A 
ENDBRANCH  23  25
ENDBRANCH   1  19
TORSDOF 7
ENDMDL
MODEL 5
REMARK VINA RESULT:      -8.4      3.213     10.449
REMARK  7 active torsions:
REMARK  status: ('A' for Active; 'I' for Inactive)
REMARK    1  A    between atoms: C_3  and  N_4 
REMARK       I    between atoms: N_4  and  C_5 
REMARK    2  A    between atoms: C_5  and  C_6 
REMARK       I    between atoms: C_6  and  N_7 
REMARK    3  A    between atoms: N_7  and  C_8 
REMARK    4  A    between atoms: C_8  and  C_9 
REMARK    5  A    between atoms: C_9  and  C_10 
REMARK    6  A    between atoms: C_12  and  O_13 
REMARK    7  A    between atoms: N_20  and  C_21 
ROOT
HETATM    1  N   UNL     1      43.080 -10.611   8.513  1.00  0.00    -0.302 N 
HETATM    2  C   UNL     1      44.356 -10.675   8.008  1.00  0.00     0.315 C 
HETATM    3  O   UNL     1      45.313  -9.928   8.146  1.00  0.00    -0.262 OA
HETATM    4  H   UNL     1      42.453 -11.355   8.228  1.00  0.00     0.171 HD
ENDROOT
BRANCH   2   5
HETATM    5  C   UNL     1      44.527 -11.925   7.121  1.00  0.00     0.309 C 
HETATM    6  N   UNL     1      43.526 -12.860   7.263  1.00  0.00    -0.353 N 
HETATM    7  H   UNL     1      42.859 -12.685   8.012  1.00  0.00     0.162 HD
HETATM    8  O   UNL     1      45.501 -12.014   6.385  1.00  0.00    -0.262 OA
BRANCH   6   9
HETATM    9  C   UNL     1      43.585 -14.140   6.592  1.00  0.00     0.128 C 
BRANCH   9  10
HETATM   10  C   UNL     1      42.889 -14.110   5.232  1.00  0.00     0.058 C 
BRANCH  10  11
HETATM   11  C   UNL     1      43.101 -15.395   4.470  1.00  0.00    -0.054 A 
HETATM   12  C   UNL     1      43.472 -16.571   5.137  1.00  0.00     0.043 A 
HETATM   13  C   UNL     1      43.692 -17.740   4.410  1.00  0.00     0.066 A 
HETATM   14  C   UNL     1      43.551 -17.758   3.027  1.00  0.00     0.036 A 
HETATM   15  C   UNL     1      43.185 -16.593   2.357  1.00  0.00     0.003 A 
HETATM   16  C   UNL     1      42.963 -15.415   3.073  1.00  0.00     0.007 A 
BRANCH  13  17
HETATM   17  O   UNL     1      44.056 -18.902   5.024  1.00  0.00    -0.361 OA
HETATM   18  H   UNL     1      43.531 -19.003   5.834  1.00  0.00     0.217 HD
ENDBRANCH  13  17
ENDBRANCH  10  11
ENDBRANCH   9  10
ENDBRANCH   6   9
ENDBRANCH   2   5
BRANCH   1  19
HETATM   19  C   UNL     1      42.593  -9.643   9.355  1.00  0.00     0.158 A 
HETATM   20  C   UNL     1      41.933  -8.468   8.923  1.00  0.00     0.003 A 
HETATM   21  C   UNL     1      41.613  -8.027   7.544  1.00  0.00     0.054 C 
HETATM   22  C   UNL     1      41.601  -7.816  10.093  1.00  0.00     0.129 A 
HETATM   23  N   UNL     1      42.089  -8.559  11.142  1.00  0.00    -0.241 N 
HETATM   24  N   UNL     1      42.658  -9.702  10.681  1.00  0.00    -0.149 NA
BRANCH  23  25
HETATM   25  C   UNL     1      42.011  -8.326  12.549  1.00  0.00     0.079 A 
HETATM   26  C   UNL     1      41.127  -8.976  13.424  1.00  0.00     0.062 A 
HETATM   27 CL   UNL     1      39.837 -10.029  12.954  1.00  0.00    -0.082 Cl
HETATM   28  C   UNL     1      41.183  -8.705  14.802  1.00  0.00     0.026 A 
HETATM   29  C   UNL     1      42.094  -7.784  15.319  1.00  0.00     0.002 A 
HETATM   30  C   UNL     1      42.949  -7.110  14.459  1.00  0.00     0.002 A 
HETATM   31  C   UNL     1      42.904  -7.372  13.088  1.00  0.00     0.033 A 
ENDBRANCH  23  25
ENDBRANCH   1  19
TORSDOF 7
ENDMDL
MODEL 6
REMARK VINA RESULT:      -8.4      2.989      3.814
REMARK  7 active torsions:
REMARK  status: ('A' for Active; 'I' for Inactive)
REMARK    1  A    between atoms: C_3  and  N_4 
REMARK       I    between atoms: N_4  and  C_5 
REMARK    2  A    between atoms: C_5  and  C_6 
REMARK       I    between atoms: C_6  and  N_7 
REMARK    3  A    between atoms: N_7  and  C_8 
REMARK    4  A    between atoms: C_8  and  C_9 
REMARK    5  A    between atoms: C_9  and  C_10 
REMARK    6  A    between atoms: C_12  and  O_13 
REMARK    7  A    between atoms: N_20  and  C_21 
ROOT
HETATM    1  N   UNL     1      41.584 -12.609   4.861  1.00  0.00    -0.302 N 
HETATM    2  C   UNL     1      40.772 -12.208   5.894  1.00  0.00     0.315 C 
HETATM    3  O   UNL     1      39.828 -12.762   6.436  1.00  0.00    -0.262 OA
HETATM    4  H   UNL     1      42.296 -11.946   4.575  1.00  0.00     0.171 HD
ENDROOT
BRANCH   2   5
HETATM    5  C   UNL     1      41.180 -10.806   6.393  1.00  0.00     0.309 C 
HETATM    6  N   UNL     1      40.510 -10.391   7.522  1.00  0.00    -0.353 N 
HETATM    7  H   UNL     1      39.746 -10.990   7.829  1.00  0.00     0.162 HD
HETATM    8  O   UNL     1      42.028 -10.170   5.780  1.00  0.00    -0.262 OA
BRANCH   6   9
HETATM    9  C   UNL     1      40.686  -9.060   8.060  1.00  0.00     0.128 C 
BRANCH   9  10
HETATM   10  C   UNL     1      41.084  -9.084   9.535  1.00  0.00     0.058 C 
BRANCH  10  11
HETATM   11  C   UNL     1      42.575  -9.238   9.707  1.00  0.00    -0.054 A 
HETATM   12  C   UNL     1      43.467  -8.593   8.837  1.00  0.00     0.043 A 
HETATM   13  C   UNL     1      44.840  -8.773   8.996  1.00  0.00     0.066 A 
HETATM   14  C   UNL     1      45.343  -9.587  10.004  1.00  0.00     0.036 A 
HETATM   15  C   UNL     1      44.463 -10.233  10.870  1.00  0.00     0.003 A 
HETATM   16  C   UNL     1      43.085 -10.063  10.721  1.00  0.00     0.007 A 
BRANCH  13  17
HETATM   17  O   UNL     1      45.737  -8.164   8.168  1.00  0.00    -0.361 OA
HETATM   18  H   UNL     1      46.413  -7.727   8.710  1.00  0.00     0.217 HD
ENDBRANCH  13  17
ENDBRANCH  10  11
ENDBRANCH   9  10
ENDBRANCH   6   9
ENDBRANCH   2   5
BRANCH   1  19
HETATM   19  C   UNL     1      41.514 -13.810   4.199  1.00  0.00     0.158 A 
HETATM   20  C   UNL     1      40.503 -14.150   3.269  1.00  0.00     0.003 A 
HETATM   21  C   UNL     1      39.351 -13.342   2.801  1.00  0.00     0.054 C 
HETATM   22  C   UNL     1      40.846 -15.417   2.844  1.00  0.00     0.129 A 
HETATM   23  N   UNL     1      41.973 -15.801   3.532  1.00  0.00    -0.241 N 
HETATM   24  N   UNL     1      42.401 -14.789   4.330  1.00  0.00    -0.149 NA
BRANCH  23  25
HETATM   25  C   UNL     1      42.726 -17.012   3.460  1.00  0.00     0.079 A 
HETATM   26  C   UNL     1      43.644 -17.447   4.430  1.00  0.00     0.062 A 
HETATM   27 CL   UNL     1      44.187 -16.524   5.788  1.00  0.00    -0.082 Cl
HETATM   28  C   UNL     1      44.284 -18.689   4.277  1.00  0.00     0.026 A 
HETATM   29  C   UNL     1      44.037 -19.496   3.167  1.00  0.00     0.002 A 
HETATM   30  C   UNL     1      43.158 -19.060   2.185  1.00  0.00     0.002 A 
HETATM   31  C   UNL     1      42.515 -17.829   2.326  1.00  0.00     0.033 A 
ENDBRANCH  23  25
ENDBRANCH   1  19
TORSDOF 7
ENDMDL
MODEL 7
REMARK VINA RESULT:      -8.2      2.459      3.049
REMARK  7 active torsions:
REMARK  status: ('A' for Active; 'I' for Inactive)
REMARK    1  A    between atoms: C_3  and  N_4 
REMARK       I    between atoms: N_4  and  C_5 
REMARK    2  A    between atoms: C_5  and  C_6 
REMARK       I    between atoms: C_6  and  N_7 
REMARK    3  A    between atoms: N_7  and  C_8 
REMARK    4  A    between atoms: C_8  and  C_9 
REMARK    5  A    between atoms: C_9  and  C_10 
REMARK    6  A    between atoms: C_12  and  O_13 
REMARK    7  A    between atoms: N_20  and  C_21 
ROOT
HETATM    1  N   UNL     1      42.224 -11.443   6.668  1.00  0.00    -0.302 N 
HETATM    2  C   UNL     1      43.374 -12.083   7.059  1.00  0.00     0.315 C 
HETATM    3  O   UNL     1      43.801 -13.199   6.800  1.00  0.00    -0.262 OA
HETATM    4  H   UNL     1      42.086 -10.512   7.044  1.00  0.00     0.171 HD
ENDROOT
BRANCH   2   5
HETATM    5  C   UNL     1      44.210 -11.179   7.989  1.00  0.00     0.309 C 
HETATM    6  N   UNL     1      43.466 -10.286   8.727  1.00  0.00    -0.353 N 
HETATM    7  H   UNL     1      42.476 -10.236   8.494  1.00  0.00     0.162 HD
HETATM    8  O   UNL     1      45.428 -11.296   8.008  1.00  0.00    -0.262 OA
BRANCH   6   9
HETATM    9  C   UNL     1      44.094  -9.289   9.565  1.00  0.00     0.128 C 
BRANCH   9  10
HETATM   10  C   UNL     1      44.399  -9.821  10.965  1.00  0.00     0.058 C 
BRANCH  10  11
HETATM   11  C   UNL     1      43.304  -9.474  11.943  1.00  0.00    -0.054 A 
HETATM   12  C   UNL     1      42.260 -10.374  12.199  1.00  0.00     0.043 A 
HETATM   13  C   UNL     1      41.243 -10.021  13.084  1.00  0.00     0.066 A 
HETATM   14  C   UNL     1      41.245  -8.784  13.718  1.00  0.00     0.036 A 
HETATM   15  C   UNL     1      42.277  -7.883  13.466  1.00  0.00     0.003 A 
HETATM   16  C   UNL     1      43.301  -8.224  12.580  1.00  0.00     0.007 A 
BRANCH  13  17
HETATM   17  O   UNL     1      40.211 -10.870  13.357  1.00  0.00    -0.361 OA
HETATM   18  H   UNL     1      39.379 -10.376  13.303  1.00  0.00     0.217 HD
ENDBRANCH  13  17
ENDBRANCH  10  11
ENDBRANCH   9  10
ENDBRANCH   6   9
ENDBRANCH   2   5
BRANCH   1  19
HETATM   19  C   UNL     1      41.265 -11.949   5.825  1.00  0.00     0.158 A 
HETATM   20  C   UNL     1      39.875 -11.730   5.975  1.00  0.00     0.003 A 
HETATM   21  C   UNL     1      39.158 -10.941   7.005  1.00  0.00     0.054 C 
HETATM   22  C   UNL     1      39.310 -12.391   4.905  1.00  0.00     0.129 A 
HETATM   23  N   UNL     1      40.325 -12.998   4.202  1.00  0.00    -0.241 N 
HETATM   24  N   UNL     1      41.526 -12.684   4.750  1.00  0.00    -0.149 NA
BRANCH  23  25
HETATM   25  C   UNL     1      40.275 -13.797   3.018  1.00  0.00     0.079 A 
HETATM   26  C   UNL     1      40.327 -15.199   2.993  1.00  0.00     0.062 A 
HETATM   27 CL   UNL     1      40.658 -16.220   4.349  1.00  0.00    -0.082 Cl
HETATM   28  C   UNL     1      40.209 -15.879   1.768  1.00  0.00     0.026 A 
HETATM   29  C   UNL     1      40.058 -15.183   0.569  1.00  0.00     0.002 A 
HETATM   30  C   UNL     1      40.039 -13.796   0.579  1.00  0.00     0.002 A 
HETATM   31  C   UNL     1      40.154 -13.109   1.789  1.00  0.00     0.033 A 
ENDBRANCH  23  25
ENDBRANCH   1  19
TORSDOF 7
ENDMDL
MODEL 8
REMARK VINA RESULT:      -8.0      4.246     10.750
REMARK  7 active torsions:
REMARK  status: ('A' for Active; 'I' for Inactive)
REMARK    1  A    between atoms: C_3  and  N_4 
REMARK       I    between atoms: N_4  and  C_5 
REMARK    2  A    between atoms: C_5  and  C_6 
REMARK       I    between atoms: C_6  and  N_7 
REMARK    3  A    between atoms: N_7  and  C_8 
REMARK    4  A    between atoms: C_8  and  C_9 
REMARK    5  A    between atoms: C_9  and  C_10 
REMARK    6  A    between atoms: C_12  and  O_13 
REMARK    7  A    between atoms: N_20  and  C_21 
ROOT
HETATM    1  N   UNL     1      41.500 -12.355   5.866  1.00  0.00    -0.302 N 
HETATM    2  C   UNL     1      40.317 -13.052   5.908  1.00  0.00     0.315 C 
HETATM    3  O   UNL     1      39.163 -12.670   6.036  1.00  0.00    -0.262 OA
HETATM    4  H   UNL     1      42.340 -12.915   5.773  1.00  0.00     0.171 HD
ENDROOT
BRANCH   2   5
HETATM    5  C   UNL     1      40.574 -14.567   5.772  1.00  0.00     0.309 C 
HETATM    6  N   UNL     1      41.299 -14.919   4.656  1.00  0.00    -0.353 N 
HETATM    7  H   UNL     1      41.480 -14.170   3.990  1.00  0.00     0.162 HD
HETATM    8  O   UNL     1      40.130 -15.332   6.618  1.00  0.00    -0.262 OA
BRANCH   6   9
HETATM    9  C   UNL     1      41.536 -16.304   4.313  1.00  0.00     0.128 C 
BRANCH   9  10
HETATM   10  C   UNL     1      42.838 -16.491   3.537  1.00  0.00     0.058 C 
BRANCH  10  11
HETATM   11  C   UNL     1      43.267 -17.938   3.510  1.00  0.00    -0.054 A 
HETATM   12  C   UNL     1      43.097 -18.714   2.354  1.00  0.00     0.043 A 
HETATM   13  C   UNL     1      43.473 -20.056   2.361  1.00  0.00     0.066 A 
HETATM   14  C   UNL     1      44.014 -20.642   3.499  1.00  0.00     0.036 A 
HETATM   15  C   UNL     1      44.183 -19.878   4.652  1.00  0.00     0.003 A 
HETATM   16  C   UNL     1      43.809 -18.533   4.660  1.00  0.00     0.007 A 
BRANCH  13  17
HETATM   17  O   UNL     1      43.321 -20.842   1.257  1.00  0.00    -0.361 OA
HETATM   18  H   UNL     1      42.441 -20.685   0.882  1.00  0.00     0.217 HD
ENDBRANCH  13  17
ENDBRANCH  10  11
ENDBRANCH   9  10
ENDBRANCH   6   9
ENDBRANCH   2   5
BRANCH   1  19
HETATM   19  C   UNL     1      41.636 -10.991   5.938  1.00  0.00     0.158 A 
HETATM   20  C   UNL     1      41.568 -10.123   4.823  1.00  0.00     0.003 A 
HETATM   21  C   UNL     1      41.336 -10.449   3.395  1.00  0.00     0.054 C 
HETATM   22  C   UNL     1      41.728  -8.863   5.363  1.00  0.00     0.129 A 
HETATM   23  N   UNL     1      41.924  -9.008   6.716  1.00  0.00    -0.241 N 
HETATM   24  N   UNL     1      41.822 -10.315   7.067  1.00  0.00    -0.149 NA
BRANCH  23  25
HETATM   25  C   UNL     1      42.135  -8.019   7.726  1.00  0.00     0.079 A 
HETATM   26  C   UNL     1      43.342  -7.816   8.412  1.00  0.00     0.062 A 
HETATM   27 CL   UNL     1      44.738  -8.833   8.317  1.00  0.00    -0.082 Cl
HETATM   28  C   UNL     1      43.446  -6.770   9.346  1.00  0.00     0.026 A 
HETATM   29  C   UNL     1      42.362  -5.937   9.619  1.00  0.00     0.002 A 
HETATM   30  C   UNL     1      41.153  -6.151   8.972  1.00  0.00     0.002 A 
HETATM   31  C   UNL     1      41.038  -7.185   8.041  1.00  0.00     0.033 A 
ENDBRANCH  23  25
ENDBRANCH   1  19
TORSDOF 7
ENDMDL
MODEL 9
REMARK VINA RESULT:      -7.8      3.826     10.448
REMARK  7 active torsions:
REMARK  status: ('A' for Active; 'I' for Inactive)
REMARK    1  A    between atoms: C_3  and  N_4 
REMARK       I    between atoms: N_4  and  C_5 
REMARK    2  A    between atoms: C_5  and  C_6 
REMARK       I    between atoms: C_6  and  N_7 
REMARK    3  A    between atoms: N_7  and  C_8 
REMARK    4  A    between atoms: C_8  and  C_9 
REMARK    5  A    between atoms: C_9  and  C_10 
REMARK    6  A    between atoms: C_12  and  O_13 
REMARK    7  A    between atoms: N_20  and  C_21 
ROOT
HETATM    1  N   UNL     1      42.886 -10.570   7.806  1.00  0.00    -0.302 N 
HETATM    2  C   UNL     1      42.266  -9.827   6.831  1.00  0.00     0.315 C 
HETATM    3  O   UNL     1      41.949  -8.647   6.800  1.00  0.00    -0.262 OA
HETATM    4  H   UNL     1      43.020 -11.552   7.595  1.00  0.00     0.171 HD
ENDROOT
BRANCH   2   5
HETATM    5  C   UNL     1      41.940 -10.704   5.604  1.00  0.00     0.309 C 
HETATM    6  N   UNL     1      42.824 -10.562   4.558  1.00  0.00    -0.353 N 
HETATM    7  H   UNL     1      43.514  -9.820   4.658  1.00  0.00     0.162 HD
HETATM    8  O   UNL     1      40.956 -11.431   5.627  1.00  0.00    -0.262 OA
BRANCH   6   9
HETATM    9  C   UNL     1      42.608 -11.224   3.290  1.00  0.00     0.128 C 
BRANCH   9  10
HETATM   10  C   UNL     1      43.460 -12.483   3.145  1.00  0.00     0.058 C 
BRANCH  10  11
HETATM   11  C   UNL     1      42.647 -13.650   2.641  1.00  0.00    -0.054 A 
HETATM   12  C   UNL     1      41.258 -13.690   2.829  1.00  0.00     0.043 A 
HETATM   13  C   UNL     1      40.530 -14.791   2.382  1.00  0.00     0.066 A 
HETATM   14  C   UNL     1      41.161 -15.857   1.751  1.00  0.00     0.036 A 
HETATM   15  C   UNL     1      42.541 -15.826   1.563  1.00  0.00     0.003 A 
HETATM   16  C   UNL     1      43.282 -14.730   2.008  1.00  0.00     0.007 A 
BRANCH  13  17
HETATM   17  O   UNL     1      39.178 -14.865   2.548  1.00  0.00    -0.361 OA
HETATM   18  H   UNL     1      38.859 -15.686   2.143  1.00  0.00     0.217 HD
ENDBRANCH  13  17
ENDBRANCH  10  11
ENDBRANCH   9  10
ENDBRANCH   6   9
ENDBRANCH   2   5
BRANCH   1  19
HETATM   19  C   UNL     1      43.331 -10.102   9.017  1.00  0.00     0.158 A 
HETATM   20  C   UNL     1      44.696  -9.985   9.375  1.00  0.00     0.003 A 
HETATM   21  C   UNL     1      45.903 -10.307   8.577  1.00  0.00     0.054 C 
HETATM   22  C   UNL     1      44.669  -9.453  10.647  1.00  0.00     0.129 A 
HETATM   23  N   UNL     1      43.351  -9.316  11.018  1.00  0.00    -0.241 N 
HETATM   24  N   UNL     1      42.537  -9.675   9.993  1.00  0.00    -0.149 NA
BRANCH  23  25
HETATM   25  C   UNL     1      42.784  -8.813  12.229  1.00  0.00     0.079 A 
HETATM   26  C   UNL     1      41.557  -9.223  12.772  1.00  0.00     0.062 A 
HETATM   27 CL   UNL     1      40.407 -10.258  11.997  1.00  0.00    -0.082 Cl
HETATM   28  C   UNL     1      41.129  -8.697  14.003  1.00  0.00     0.026 A 
HETATM   29  C   UNL     1      41.895  -7.758  14.692  1.00  0.00     0.002 A 
HETATM   30  C   UNL     1      43.094  -7.320  14.147  1.00  0.00     0.002 A 
HETATM   31  C   UNL     1      43.531  -7.835  12.926  1.00  0.00     0.033 A 
ENDBRANCH  23  25
ENDBRANCH   1  19
TORSDOF 7
ENDMDL
MODEL 10
REMARK VINA RESULT:      -7.8      6.070      9.253
REMARK  7 active torsions:
REMARK  status: ('A' for Active; 'I' for Inactive)
REMARK    1  A    between atoms: C_3  and  N_4 
REMARK       I    between atoms: N_4  and  C_5 
REMARK    2  A    between atoms: C_5  and  C_6 
REMARK       I    between atoms: C_6  and  N_7 
REMARK    3  A    between atoms: N_7  and  C_8 
REMARK    4  A    between atoms: C_8  and  C_9 
REMARK    5  A    between atoms: C_9  and  C_10 
REMARK    6  A    between atoms: C_12  and  O_13 
REMARK    7  A    between atoms: N_20  and  C_21 
ROOT
HETATM    1  N   UNL     1      41.231 -12.454   3.042  1.00  0.00    -0.302 N 
HETATM    2  C   UNL     1      42.116 -11.407   2.954  1.00  0.00     0.315 C 
HETATM    3  O   UNL     1      43.248 -11.271   3.394  1.00  0.00    -0.262 OA
HETATM    4  H   UNL     1      40.329 -12.309   2.604  1.00  0.00     0.171 HD
ENDROOT
BRANCH   2   5
HETATM    5  C   UNL     1      41.497 -10.239   2.158  1.00  0.00     0.309 C 
HETATM    6  N   UNL     1      41.629 -10.353   0.792  1.00  0.00    -0.353 N 
HETATM    7  H   UNL     1      42.216 -11.119   0.467  1.00  0.00     0.162 HD
HETATM    8  O   UNL     1      40.959  -9.318   2.758  1.00  0.00    -0.262 OA
BRANCH   6   9
HETATM    9  C   UNL     1      41.207  -9.296  -0.100  1.00  0.00     0.128 C 
BRANCH   9  10
HETATM   10  C   UNL     1      42.138  -9.152  -1.303  1.00  0.00     0.058 C 
BRANCH  10  11
HETATM   11  C   UNL     1      42.374  -7.703  -1.653  1.00  0.00    -0.054 A 
HETATM   12  C   UNL     1      43.630  -7.112  -1.450  1.00  0.00     0.043 A 
HETATM   13  C   UNL     1      43.818  -5.765  -1.752  1.00  0.00     0.066 A 
HETATM   14  C   UNL     1      42.776  -4.992  -2.251  1.00  0.00     0.036 A 
HETATM   15  C   UNL     1      41.525  -5.571  -2.452  1.00  0.00     0.003 A 
HETATM   16  C   UNL     1      41.323  -6.919  -2.152  1.00  0.00     0.007 A 
BRANCH  13  17
HETATM   17  O   UNL     1      45.025  -5.157  -1.567  1.00  0.00    -0.361 OA
HETATM   18  H   UNL     1      44.880  -4.203  -1.467  1.00  0.00     0.217 HD
ENDBRANCH  13  17
ENDBRANCH  10  11
ENDBRANCH   9  10
ENDBRANCH   6   9
ENDBRANCH   2   5
BRANCH   1  19
HETATM   19  C   UNL     1      41.465 -13.657   3.661  1.00  0.00     0.158 A 
HETATM   20  C   UNL     1      40.956 -14.012   4.933  1.00  0.00     0.003 A 
HETATM   21  C   UNL     1      40.092 -13.227   5.848  1.00  0.00     0.054 C 
HETATM   22  C   UNL     1      41.413 -15.297   5.135  1.00  0.00     0.129 A 
HETATM   23  N   UNL     1      42.185 -15.645   4.051  1.00  0.00    -0.241 N 
HETATM   24  N   UNL     1      42.173 -14.647   3.130  1.00  0.00    -0.149 NA
BRANCH  23  25
HETATM   25  C   UNL     1      42.881 -16.860   3.769  1.00  0.00     0.079 A 
HETATM   26  C   UNL     1      43.884 -17.417   4.577  1.00  0.00     0.062 A 
HETATM   27 CL   UNL     1      44.608 -16.657   5.952  1.00  0.00    -0.082 Cl
HETATM   28  C   UNL     1      44.457 -18.651   4.225  1.00  0.00     0.026 A 
HETATM   29  C   UNL     1      44.060 -19.329   3.074  1.00  0.00     0.002 A 
HETATM   30  C   UNL     1      43.093 -18.771   2.249  1.00  0.00     0.002 A 
HETATM   31  C   UNL     1      42.515 -17.546   2.588  1.00  0.00     0.033 A 
ENDBRANCH  23  25
ENDBRANCH   1  19
TORSDOF 7
ENDMDL
