MODEL 1
REMARK VINA RESULT:      -8.2      0.000      0.000
REMARK  9 active torsions:
REMARK  status: ('A' for Active; 'I' for Inactive)
REMARK    1  A    between atoms: C_2  and  C_3 
REMARK    2  A    between atoms: C_3  and  O_4 
REMARK    3  A    between atoms: O_4  and  C_5 
REMARK    4  A    between atoms: C_8  and  C_9 
REMARK    5  A    between atoms: C_13  and  C_14 
REMARK       I    between atoms: C_14  and  N_15 
REMARK    6  A    between atoms: N_15  and  N_16 
REMARK    7  A    between atoms: C_17  and  C_18 
REMARK    8  A    between atoms: C_21  and  C_22 
REMARK    9  A    between atoms: C_22  and  O_23 
ROOT
HETATM    1  C   UNL     1      43.453  -8.956  11.124  1.00  0.00     0.089 A 
HETATM    2  N   UNL     1      43.585  -8.036  10.157  1.00  0.00    -0.174 NA
HETATM    3  N   UNL     1      43.995  -8.727   9.084  1.00  0.00    -0.272 N 
HETATM    4  H   UNL     1      44.161  -8.234   8.211  1.00  0.00     0.189 HD
HETATM    5  C   UNL     1      44.110 -10.074   9.295  1.00  0.00     0.121 A 
HETATM    6  C   UNL     1      43.792 -10.247  10.627  1.00  0.00     0.071 A 
ENDROOT
BRANCH   5   7
HETATM    7  C   UNL     1      44.471 -10.968   8.222  1.00  0.00     0.289 C 
HETATM    8  N   UNL     1      43.583 -12.013   8.019  1.00  0.00    -0.242 N 
HETATM    9  H   UNL     1      42.760 -12.104   8.599  1.00  0.00     0.192 HD
HETATM   10  O   UNL     1      45.481 -10.776   7.549  1.00  0.00    -0.264 OA
BRANCH   8  11
HETATM   11  N   UNL     1      43.730 -12.841   6.943  1.00  0.00    -0.184 NA
HETATM   12  C   UNL     1      43.425 -14.081   7.144  1.00  0.00     0.150 C 
BRANCH  12  13
HETATM   13  C   UNL     1      43.483 -15.080   6.057  1.00  0.00    -0.017 A 
HETATM   14  C   UNL     1      42.950 -14.796   4.797  1.00  0.00     0.014 A 
HETATM   15  C   UNL     1      42.981 -15.768   3.793  1.00  0.00     0.018 A 
HETATM   16  C   UNL     1      43.543 -17.028   4.044  1.00  0.00     0.039 A 
HETATM   17  C   UNL     1      44.084 -17.301   5.310  1.00  0.00     0.018 A 
HETATM   18  C   UNL     1      44.053 -16.328   6.316  1.00  0.00     0.014 A 
BRANCH  16  19
HETATM   19  C   UNL     1      43.533 -18.034   2.946  1.00  0.00     0.292 C 
HETATM   20  O   UNL     1      42.848 -17.928   1.940  1.00  0.00    -0.259 OA
BRANCH  19  21
HETATM   21  O   UNL     1      44.370 -19.063   3.232  1.00  0.00    -0.323 OA
HETATM   22  C   UNL     1      43.760 -20.351   3.128  1.00  0.00     0.213 C 
ENDBRANCH  19  21
ENDBRANCH  16  19
ENDBRANCH  12  13
ENDBRANCH   8  11
ENDBRANCH   5   7
BRANCH   1  23
HETATM   23  C   UNL     1      42.980  -8.605  12.465  1.00  0.00    -0.005 A 
HETATM   24  C   UNL     1      43.504  -7.489  13.131  1.00  0.00     0.016 A 
HETATM   25  C   UNL     1      43.021  -7.108  14.389  1.00  0.00     0.037 A 
HETATM   26  C   UNL     1      42.006  -7.842  15.001  1.00  0.00     0.068 A 
HETATM   27  C   UNL     1      41.503  -8.975  14.358  1.00  0.00     0.037 A 
HETATM   28  C   UNL     1      41.980  -9.353  13.099  1.00  0.00     0.016 A 
BRANCH  26  29
HETATM   29  O   UNL     1      41.436  -7.568  16.213  1.00  0.00    -0.351 OA
BRANCH  29  30
HETATM   30  C   UNL     1      40.926  -6.247  16.398  1.00  0.00     0.175 C 
BRANCH  30  31
HETATM   31  C   UNL     1      39.409  -6.346  16.529  1.00  0.00     0.022 C 
HETATM   32  C   UNL     1      38.702  -5.921  15.256  1.00  0.00     0.007 C 
ENDBRANCH  30  31
ENDBRANCH  29  30
ENDBRANCH  26  29
ENDBRANCH   1  23
TORSDOF 9
ENDMDL
MODEL 2
REMARK VINA RESULT:      -8.1      1.333     12.602
REMARK  9 active torsions:
REMARK  status: ('A' for Active; 'I' for Inactive)
REMARK    1  A    between atoms: C_2  and  C_3 
REMARK    2  A    between atoms: C_3  and  O_4 
REMARK    3  A    between atoms: O_4  and  C_5 
REMARK    4  A    between atoms: C_8  and  C_9 
REMARK    5  A    between atoms: C_13  and  C_14 
REMARK       I    between atoms: C_14  and  N_15 
REMARK    6  A    between atoms: N_15  and  N_16 
REMARK    7  A    between atoms: C_17  and  C_18 
REMARK    8  A    between atoms: C_21  and  C_22 
REMARK    9  A    between atoms: C_22  and  O_23 
ROOT
HETATM    1  C   UNL     1      43.534 -13.220   5.724  1.00  0.00     0.089 A 
HETATM    2  N   UNL     1      43.898 -12.077   5.121  1.00  0.00    -0.174 NA
HETATM    3  N   UNL     1      44.120 -11.219   6.126  1.00  0.00    -0.272 N 
HETATM    4  H   UNL     1      44.416 -10.271   5.912  1.00  0.00     0.189 HD
HETATM    5  C   UNL     1      43.948 -11.757   7.372  1.00  0.00     0.121 A 
HETATM    6  C   UNL     1      43.536 -13.054   7.138  1.00  0.00     0.071 A 
ENDROOT
BRANCH   5   7
HETATM    7  C   UNL     1      44.218 -10.986   8.561  1.00  0.00     0.289 C 
HETATM    8  N   UNL     1      43.096 -10.424   9.151  1.00  0.00    -0.242 N 
HETATM    9  H   UNL     1      42.181 -10.569   8.748  1.00  0.00     0.192 HD
HETATM   10  O   UNL     1      45.361 -10.874   8.998  1.00  0.00    -0.264 OA
BRANCH   8  11
HETATM   11  N   UNL     1      43.197  -9.797  10.360  1.00  0.00    -0.184 NA
HETATM   12  C   UNL     1      42.092  -9.673  11.021  1.00  0.00     0.150 C 
BRANCH  12  13
HETATM   13  C   UNL     1      42.059  -9.067  12.367  1.00  0.00    -0.017 A 
HETATM   14  C   UNL     1      41.073  -9.429  13.290  1.00  0.00     0.014 A 
HETATM   15  C   UNL     1      41.037  -8.815  14.545  1.00  0.00     0.018 A 
HETATM   16  C   UNL     1      41.983  -7.837  14.884  1.00  0.00     0.039 A 
HETATM   17  C   UNL     1      42.974  -7.488  13.954  1.00  0.00     0.018 A 
HETATM   18  C   UNL     1      43.011  -8.100  12.697  1.00  0.00     0.014 A 
BRANCH  16  19
HETATM   19  C   UNL     1      41.887  -7.202  16.227  1.00  0.00     0.292 C 
HETATM   20  O   UNL     1      41.612  -7.816  17.246  1.00  0.00    -0.259 OA
BRANCH  19  21
HETATM   21  O   UNL     1      42.133  -5.870  16.145  1.00  0.00    -0.323 OA
HETATM   22  C   UNL     1      40.956  -5.072  16.002  1.00  0.00     0.213 C 
ENDBRANCH  19  21
ENDBRANCH  16  19
ENDBRANCH  12  13
ENDBRANCH   8  11
ENDBRANCH   5   7
BRANCH   1  23
HETATM   23  C   UNL     1      43.237 -14.435   4.961  1.00  0.00    -0.005 A 
HETATM   24  C   UNL     1      43.003 -14.364   3.581  1.00  0.00     0.016 A 
HETATM   25  C   UNL     1      42.773 -15.523   2.829  1.00  0.00     0.037 A 
HETATM   26  C   UNL     1      42.772 -16.771   3.449  1.00  0.00     0.068 A 
HETATM   27  C   UNL     1      42.971 -16.845   4.830  1.00  0.00     0.037 A 
HETATM   28  C   UNL     1      43.207 -15.690   5.581  1.00  0.00     0.016 A 
BRANCH  26  29
HETATM   29  O   UNL     1      42.580 -17.975   2.831  1.00  0.00    -0.351 OA
BRANCH  29  30
HETATM   30  C   UNL     1      43.749 -18.659   2.382  1.00  0.00     0.175 C 
BRANCH  30  31
HETATM   31  C   UNL     1      43.405 -20.140   2.256  1.00  0.00     0.022 C 
HETATM   32  C   UNL     1      43.782 -20.917   3.504  1.00  0.00     0.007 C 
ENDBRANCH  30  31
ENDBRANCH  29  30
ENDBRANCH  26  29
ENDBRANCH   1  23
TORSDOF 9
ENDMDL
MODEL 3
REMARK VINA RESULT:      -7.8      1.566     12.618
REMARK  9 active torsions:
REMARK  status: ('A' for Active; 'I' for Inactive)
REMARK    1  A    between atoms: C_2  and  C_3 
REMARK    2  A    between atoms: C_3  and  O_4 
REMARK    3  A    between atoms: O_4  and  C_5 
REMARK    4  A    between atoms: C_8  and  C_9 
REMARK    5  A    between atoms: C_13  and  C_14 
REMARK       I    between atoms: C_14  and  N_15 
REMARK    6  A    between atoms: N_15  and  N_16 
REMARK    7  A    between atoms: C_17  and  C_18 
REMARK    8  A    between atoms: C_21  and  C_22 
REMARK    9  A    between atoms: C_22  and  O_23 
ROOT
HETATM    1  C   UNL     1      44.160 -12.636   6.607  1.00  0.00     0.089 A 
HETATM    2  N   UNL     1      45.271 -11.933   6.340  1.00  0.00    -0.174 NA
HETATM    3  N   UNL     1      45.275 -10.948   7.249  1.00  0.00    -0.272 N 
HETATM    4  H   UNL     1      46.037 -10.276   7.248  1.00  0.00     0.189 HD
HETATM    5  C   UNL     1      44.228 -10.990   8.128  1.00  0.00     0.121 A 
HETATM    6  C   UNL     1      43.468 -12.065   7.713  1.00  0.00     0.071 A 
ENDROOT
BRANCH   5   7
HETATM    7  C   UNL     1      44.126 -10.044   9.213  1.00  0.00     0.289 C 
HETATM    8  N   UNL     1      43.635 -10.575  10.396  1.00  0.00    -0.242 N 
HETATM    9  H   UNL     1      43.382 -11.552  10.451  1.00  0.00     0.192 HD
HETATM   10  O   UNL     1      44.475  -8.876   9.069  1.00  0.00    -0.264 OA
BRANCH   8  11
HETATM   11  N   UNL     1      43.630  -9.823  11.536  1.00  0.00    -0.184 NA
HETATM   12  C   UNL     1      42.466  -9.443  11.951  1.00  0.00     0.150 C 
BRANCH  12  13
HETATM   13  C   UNL     1      42.302  -8.672  13.200  1.00  0.00    -0.017 A 
HETATM   14  C   UNL     1      43.178  -7.630  13.517  1.00  0.00     0.014 A 
HETATM   15  C   UNL     1      43.029  -6.938  14.722  1.00  0.00     0.018 A 
HETATM   16  C   UNL     1      42.004  -7.282  15.615  1.00  0.00     0.039 A 
HETATM   17  C   UNL     1      41.124  -8.323  15.284  1.00  0.00     0.018 A 
HETATM   18  C   UNL     1      41.273  -9.018  14.078  1.00  0.00     0.014 A 
BRANCH  16  19
HETATM   19  C   UNL     1      41.901  -6.525  16.893  1.00  0.00     0.292 C 
HETATM   20  O   UNL     1      41.665  -5.328  16.951  1.00  0.00    -0.259 OA
BRANCH  19  21
HETATM   21  O   UNL     1      42.117  -7.344  17.953  1.00  0.00    -0.323 OA
HETATM   22  C   UNL     1      41.512  -6.891  19.166  1.00  0.00     0.213 C 
ENDBRANCH  19  21
ENDBRANCH  16  19
ENDBRANCH  12  13
ENDBRANCH   8  11
ENDBRANCH   5   7
BRANCH   1  23
HETATM   23  C   UNL     1      43.805 -13.838   5.848  1.00  0.00    -0.005 A 
HETATM   24  C   UNL     1      44.046 -15.110   6.384  1.00  0.00     0.016 A 
HETATM   25  C   UNL     1      43.661 -16.267   5.695  1.00  0.00     0.037 A 
HETATM   26  C   UNL     1      43.030 -16.167   4.456  1.00  0.00     0.068 A 
HETATM   27  C   UNL     1      42.818 -14.903   3.901  1.00  0.00     0.037 A 
HETATM   28  C   UNL     1      43.196 -13.746   4.590  1.00  0.00     0.016 A 
BRANCH  26  29
HETATM   29  O   UNL     1      42.590 -17.211   3.692  1.00  0.00    -0.351 OA
BRANCH  29  30
HETATM   30  C   UNL     1      43.591 -18.022   3.076  1.00  0.00     0.175 C 
BRANCH  30  31
HETATM   31  C   UNL     1      42.885 -19.063   2.214  1.00  0.00     0.022 C 
HETATM   32  C   UNL     1      43.689 -20.345   2.103  1.00  0.00     0.007 C 
ENDBRANCH  30  31
ENDBRANCH  29  30
ENDBRANCH  26  29
ENDBRANCH   1  23
TORSDOF 9
ENDMDL
MODEL 4
REMARK VINA RESULT:      -7.4      3.944      5.046
REMARK  9 active torsions:
REMARK  status: ('A' for Active; 'I' for Inactive)
REMARK    1  A    between atoms: C_2  and  C_3 
REMARK    2  A    between atoms: C_3  and  O_4 
REMARK    3  A    between atoms: O_4  and  C_5 
REMARK    4  A    between atoms: C_8  and  C_9 
REMARK    5  A    between atoms: C_13  and  C_14 
REMARK       I    between atoms: C_14  and  N_15 
REMARK    6  A    between atoms: N_15  and  N_16 
REMARK    7  A    between atoms: C_17  and  C_18 
REMARK    8  A    between atoms: C_21  and  C_22 
REMARK    9  A    between atoms: C_22  and  O_23 
ROOT
HETATM    1  C   UNL     1      43.793 -10.524   8.613  1.00  0.00     0.089 A 
HETATM    2  N   UNL     1      44.858 -11.307   8.382  1.00  0.00    -0.174 NA
HETATM    3  N   UNL     1      44.738 -11.671   7.097  1.00  0.00    -0.272 N 
HETATM    4  H   UNL     1      45.445 -12.274   6.685  1.00  0.00     0.189 HD
HETATM    5  C   UNL     1      43.653 -11.136   6.460  1.00  0.00     0.121 A 
HETATM    6  C   UNL     1      43.001 -10.407   7.435  1.00  0.00     0.071 A 
ENDROOT
BRANCH   5   7
HETATM    7  C   UNL     1      43.421 -11.371   5.056  1.00  0.00     0.289 C 
HETATM    8  N   UNL     1      42.113 -11.704   4.736  1.00  0.00    -0.242 N 
HETATM    9  H   UNL     1      41.410 -11.764   5.460  1.00  0.00     0.192 HD
HETATM   10  O   UNL     1      44.328 -11.257   4.236  1.00  0.00    -0.264 OA
BRANCH   8  11
HETATM   11  N   UNL     1      41.731 -11.805   3.429  1.00  0.00    -0.184 NA
HETATM   12  C   UNL     1      41.672 -13.007   2.954  1.00  0.00     0.150 C 
BRANCH  12  13
HETATM   13  C   UNL     1      41.221 -13.273   1.573  1.00  0.00    -0.017 A 
HETATM   14  C   UNL     1      41.364 -12.306   0.575  1.00  0.00     0.014 A 
HETATM   15  C   UNL     1      40.896 -12.565  -0.716  1.00  0.00     0.018 A 
HETATM   16  C   UNL     1      40.282 -13.789  -1.016  1.00  0.00     0.039 A 
HETATM   17  C   UNL     1      40.152 -14.758  -0.010  1.00  0.00     0.018 A 
HETATM   18  C   UNL     1      40.619 -14.500   1.284  1.00  0.00     0.014 A 
BRANCH  16  19
HETATM   19  C   UNL     1      39.785 -14.005  -2.403  1.00  0.00     0.292 C 
HETATM   20  O   UNL     1      40.328 -13.543  -3.395  1.00  0.00    -0.259 OA
BRANCH  19  21
HETATM   21  O   UNL     1      38.660 -14.764  -2.395  1.00  0.00    -0.323 OA
HETATM   22  C   UNL     1      37.994 -14.824  -3.657  1.00  0.00     0.213 C 
ENDBRANCH  19  21
ENDBRANCH  16  19
ENDBRANCH  12  13
ENDBRANCH   8  11
ENDBRANCH   5   7
BRANCH   1  23
HETATM   23  C   UNL     1      43.573  -9.883   9.912  1.00  0.00    -0.005 A 
HETATM   24  C   UNL     1      43.416  -8.493   9.997  1.00  0.00     0.016 A 
HETATM   25  C   UNL     1      43.149  -7.871  11.223  1.00  0.00     0.037 A 
HETATM   26  C   UNL     1      43.038  -8.634  12.384  1.00  0.00     0.068 A 
HETATM   27  C   UNL     1      43.226 -10.016  12.312  1.00  0.00     0.037 A 
HETATM   28  C   UNL     1      43.487 -10.639  11.087  1.00  0.00     0.016 A 
BRANCH  26  29
HETATM   29  O   UNL     1      42.764  -8.156  13.635  1.00  0.00    -0.351 OA
BRANCH  29  30
HETATM   30  C   UNL     1      41.871  -8.931  14.436  1.00  0.00     0.175 C 
BRANCH  30  31
HETATM   31  C   UNL     1      41.362  -8.040  15.565  1.00  0.00     0.022 C 
HETATM   32  C   UNL     1      42.302  -6.880  15.838  1.00  0.00     0.007 C 
ENDBRANCH  30  31
ENDBRANCH  29  30
ENDBRANCH  26  29
ENDBRANCH   1  23
TORSDOF 9
ENDMDL
MODEL 5
REMARK VINA RESULT:      -7.2      9.708     13.674
REMARK  9 active torsions:
REMARK  status: ('A' for Active; 'I' for Inactive)
REMARK    1  A    between atoms: C_2  and  C_3 
REMARK    2  A    between atoms: C_3  and  O_4 
REMARK    3  A    between atoms: O_4  and  C_5 
REMARK    4  A    between atoms: C_8  and  C_9 
REMARK    5  A    between atoms: C_13  and  C_14 
REMARK       I    between atoms: C_14  and  N_15 
REMARK    6  A    between atoms: N_15  and  N_16 
REMARK    7  A    between atoms: C_17  and  C_18 
REMARK    8  A    between atoms: C_21  and  C_22 
REMARK    9  A    between atoms: C_22  and  O_23 
ROOT
HETATM    1  C   UNL     1      41.064 -15.419   1.503  1.00  0.00     0.089 A 
HETATM    2  N   UNL     1      39.851 -15.822   1.097  1.00  0.00    -0.174 NA
HETATM    3  N   UNL     1      39.435 -14.860   0.262  1.00  0.00    -0.272 N 
HETATM    4  H   UNL     1      38.526 -14.948  -0.183  1.00  0.00     0.189 HD
HETATM    5  C   UNL     1      40.339 -13.850   0.074  1.00  0.00     0.121 A 
HETATM    6  C   UNL     1      41.399 -14.175   0.897  1.00  0.00     0.071 A 
ENDROOT
BRANCH   5   7
HETATM    7  C   UNL     1      40.075 -12.775  -0.850  1.00  0.00     0.289 C 
HETATM    8  N   UNL     1      41.205 -12.240  -1.451  1.00  0.00    -0.242 N 
HETATM    9  H   UNL     1      42.122 -12.605  -1.230  1.00  0.00     0.192 HD
HETATM   10  O   UNL     1      38.927 -12.403  -1.079  1.00  0.00    -0.264 OA
BRANCH   8  11
HETATM   11  N   UNL     1      41.080 -11.322  -2.453  1.00  0.00    -0.184 NA
HETATM   12  C   UNL     1      41.359 -10.100  -2.132  1.00  0.00     0.150 C 
BRANCH  12  13
HETATM   13  C   UNL     1      41.322  -9.009  -3.126  1.00  0.00    -0.017 A 
HETATM   14  C   UNL     1      40.452  -9.066  -4.219  1.00  0.00     0.014 A 
HETATM   15  C   UNL     1      40.460  -8.042  -5.169  1.00  0.00     0.018 A 
HETATM   16  C   UNL     1      41.336  -6.956  -5.033  1.00  0.00     0.039 A 
HETATM   17  C   UNL     1      42.199  -6.902  -3.928  1.00  0.00     0.018 A 
HETATM   18  C   UNL     1      42.193  -7.928  -2.976  1.00  0.00     0.014 A 
BRANCH  16  19
HETATM   19  C   UNL     1      41.316  -5.901  -6.084  1.00  0.00     0.292 C 
HETATM   20  O   UNL     1      40.417  -5.778  -6.900  1.00  0.00    -0.259 OA
BRANCH  19  21
HETATM   21  O   UNL     1      42.427  -5.125  -6.004  1.00  0.00    -0.323 OA
HETATM   22  C   UNL     1      43.321  -5.279  -7.108  1.00  0.00     0.213 C 
ENDBRANCH  19  21
ENDBRANCH  16  19
ENDBRANCH  12  13
ENDBRANCH   8  11
ENDBRANCH   5   7
BRANCH   1  23
HETATM   23  C   UNL     1      41.883 -16.226   2.411  1.00  0.00    -0.005 A 
HETATM   24  C   UNL     1      42.921 -17.023   1.908  1.00  0.00     0.016 A 
HETATM   25  C   UNL     1      43.748 -17.756   2.767  1.00  0.00     0.037 A 
HETATM   26  C   UNL     1      43.547 -17.704   4.145  1.00  0.00     0.068 A 
HETATM   27  C   UNL     1      42.494 -16.938   4.651  1.00  0.00     0.037 A 
HETATM   28  C   UNL     1      41.670 -16.201   3.795  1.00  0.00     0.016 A 
BRANCH  26  29
HETATM   29  O   UNL     1      44.290 -18.354   5.090  1.00  0.00    -0.351 OA
BRANCH  29  30
HETATM   30  C   UNL     1      43.609 -19.324   5.886  1.00  0.00     0.175 C 
BRANCH  30  31
HETATM   31  C   UNL     1      44.176 -20.697   5.537  1.00  0.00     0.022 C 
HETATM   32  C   UNL     1      43.888 -21.078   4.097  1.00  0.00     0.007 C 
ENDBRANCH  30  31
ENDBRANCH  29  30
ENDBRANCH  26  29
ENDBRANCH   1  23
TORSDOF 9
ENDMDL
MODEL 6
REMARK VINA RESULT:      -7.1      3.032      3.682
REMARK  9 active torsions:
REMARK  status: ('A' for Active; 'I' for Inactive)
REMARK    1  A    between atoms: C_2  and  C_3 
REMARK    2  A    between atoms: C_3  and  O_4 
REMARK    3  A    between atoms: O_4  and  C_5 
REMARK    4  A    between atoms: C_8  and  C_9 
REMARK    5  A    between atoms: C_13  and  C_14 
REMARK       I    between atoms: C_14  and  N_15 
REMARK    6  A    between atoms: N_15  and  N_16 
REMARK    7  A    between atoms: C_17  and  C_18 
REMARK    8  A    between atoms: C_21  and  C_22 
REMARK    9  A    between atoms: C_22  and  O_23 
ROOT
HETATM    1  C   UNL     1      42.761  -9.389  11.335  1.00  0.00     0.089 A 
HETATM    2  N   UNL     1      43.631 -10.400  11.192  1.00  0.00    -0.174 NA
HETATM    3  N   UNL     1      43.598 -10.694   9.885  1.00  0.00    -0.272 N 
HETATM    4  H   UNL     1      44.190 -11.440   9.529  1.00  0.00     0.189 HD
HETATM    5  C   UNL     1      42.765  -9.895   9.151  1.00  0.00     0.121 A 
HETATM    6  C   UNL     1      42.182  -9.054  10.078  1.00  0.00     0.071 A 
ENDROOT
BRANCH   5   7
HETATM    7  C   UNL     1      42.671 -10.033   7.718  1.00  0.00     0.289 C 
HETATM    8  N   UNL     1      42.862 -11.324   7.249  1.00  0.00    -0.242 N 
HETATM    9  H   UNL     1      43.050 -12.079   7.895  1.00  0.00     0.192 HD
HETATM   10  O   UNL     1      42.419  -9.066   7.003  1.00  0.00    -0.264 OA
BRANCH   8  11
HETATM   11  N   UNL     1      42.652 -11.614   5.932  1.00  0.00    -0.184 NA
HETATM   12  C   UNL     1      41.757 -12.516   5.692  1.00  0.00     0.150 C 
BRANCH  12  13
HETATM   13  C   UNL     1      41.385 -12.892   4.314  1.00  0.00    -0.017 A 
HETATM   14  C   UNL     1      40.048 -13.102   3.966  1.00  0.00     0.014 A 
HETATM   15  C   UNL     1      39.720 -13.494   2.665  1.00  0.00     0.018 A 
HETATM   16  C   UNL     1      40.726 -13.679   1.706  1.00  0.00     0.039 A 
HETATM   17  C   UNL     1      42.065 -13.457   2.062  1.00  0.00     0.018 A 
HETATM   18  C   UNL     1      42.394 -13.065   3.364  1.00  0.00     0.014 A 
BRANCH  16  19
HETATM   19  C   UNL     1      40.324 -14.115   0.340  1.00  0.00     0.292 C 
HETATM   20  O   UNL     1      39.833 -15.207   0.097  1.00  0.00    -0.259 OA
BRANCH  19  21
HETATM   21  O   UNL     1      40.592 -13.145  -0.570  1.00  0.00    -0.323 OA
HETATM   22  C   UNL     1      39.425 -12.559  -1.151  1.00  0.00     0.213 C 
ENDBRANCH  19  21
ENDBRANCH  16  19
ENDBRANCH  12  13
ENDBRANCH   8  11
ENDBRANCH   5   7
BRANCH   1  23
HETATM   23  C   UNL     1      42.531  -8.745  12.631  1.00  0.00    -0.005 A 
HETATM   24  C   UNL     1      41.494  -9.187  13.466  1.00  0.00     0.016 A 
HETATM   25  C   UNL     1      41.297  -8.620  14.731  1.00  0.00     0.037 A 
HETATM   26  C   UNL     1      42.134  -7.600  15.179  1.00  0.00     0.068 A 
HETATM   27  C   UNL     1      43.148  -7.132  14.339  1.00  0.00     0.037 A 
HETATM   28  C   UNL     1      43.350  -7.701  13.077  1.00  0.00     0.016 A 
BRANCH  26  29
HETATM   29  O   UNL     1      42.062  -6.976  16.393  1.00  0.00    -0.351 OA
BRANCH  29  30
HETATM   30  C   UNL     1      40.885  -7.213  17.166  1.00  0.00     0.175 C 
BRANCH  30  31
HETATM   31  C   UNL     1      40.063  -5.928  17.174  1.00  0.00     0.022 C 
HETATM   32  C   UNL     1      38.906  -5.992  16.194  1.00  0.00     0.007 C 
ENDBRANCH  30  31
ENDBRANCH  29  30
ENDBRANCH  26  29
ENDBRANCH   1  23
TORSDOF 9
ENDMDL
MODEL 7
REMARK VINA RESULT:      -7.0      9.323     14.163
REMARK  9 active torsions:
REMARK  status: ('A' for Active; 'I' for Inactive)
REMARK    1  A    between atoms: C_2  and  C_3 
REMARK    2  A    between atoms: C_3  and  O_4 
REMARK    3  A    between atoms: O_4  and  C_5 
REMARK    4  A    between atoms: C_8  and  C_9 
REMARK    5  A    between atoms: C_13  and  C_14 
REMARK       I    between atoms: C_14  and  N_15 
REMARK    6  A    between atoms: N_15  and  N_16 
REMARK    7  A    between atoms: C_17  and  C_18 
REMARK    8  A    between atoms: C_21  and  C_22 
REMARK    9  A    between atoms: C_22  and  O_23 
ROOT
HETATM    1  C   UNL     1      41.219 -14.853   1.102  1.00  0.00     0.089 A 
HETATM    2  N   UNL     1      41.604 -13.599   0.821  1.00  0.00    -0.174 NA
HETATM    3  N   UNL     1      40.897 -13.263  -0.267  1.00  0.00    -0.272 N 
HETATM    4  H   UNL     1      41.018 -12.338  -0.671  1.00  0.00     0.189 HD
HETATM    5  C   UNL     1      40.035 -14.233  -0.699  1.00  0.00     0.121 A 
HETATM    6  C   UNL     1      40.247 -15.294   0.159  1.00  0.00     0.071 A 
ENDROOT
BRANCH   5   7
HETATM    7  C   UNL     1      39.149 -14.002  -1.814  1.00  0.00     0.289 C 
HETATM    8  N   UNL     1      37.935 -13.423  -1.475  1.00  0.00    -0.242 N 
HETATM    9  H   UNL     1      37.729 -13.197  -0.511  1.00  0.00     0.192 HD
HETATM   10  O   UNL     1      39.485 -14.289  -2.960  1.00  0.00    -0.264 OA
BRANCH   8  11
HETATM   11  N   UNL     1      37.072 -13.018  -2.452  1.00  0.00    -0.184 NA
HETATM   12  C   UNL     1      36.725 -11.772  -2.411  1.00  0.00     0.150 C 
BRANCH  12  13
HETATM   13  C   UNL     1      35.841 -11.180  -3.436  1.00  0.00    -0.017 A 
HETATM   14  C   UNL     1      34.771 -11.908  -3.964  1.00  0.00     0.014 A 
HETATM   15  C   UNL     1      33.970 -11.342  -4.960  1.00  0.00     0.018 A 
HETATM   16  C   UNL     1      34.234 -10.049  -5.433  1.00  0.00     0.039 A 
HETATM   17  C   UNL     1      35.304  -9.323  -4.889  1.00  0.00     0.018 A 
HETATM   18  C   UNL     1      36.108  -9.887  -3.893  1.00  0.00     0.014 A 
BRANCH  16  19
HETATM   19  C   UNL     1      33.360  -9.502  -6.508  1.00  0.00     0.292 C 
HETATM   20  O   UNL     1      33.637  -8.509  -7.162  1.00  0.00    -0.259 OA
BRANCH  19  21
HETATM   21  O   UNL     1      32.235 -10.249  -6.636  1.00  0.00    -0.323 OA
HETATM   22  C   UNL     1      31.957 -10.651  -7.979  1.00  0.00     0.213 C 
ENDBRANCH  19  21
ENDBRANCH  16  19
ENDBRANCH  12  13
ENDBRANCH   8  11
ENDBRANCH   5   7
BRANCH   1  23
HETATM   23  C   UNL     1      41.742 -15.580   2.261  1.00  0.00    -0.005 A 
HETATM   24  C   UNL     1      41.033 -15.587   3.470  1.00  0.00     0.016 A 
HETATM   25  C   UNL     1      41.490 -16.323   4.570  1.00  0.00     0.037 A 
HETATM   26  C   UNL     1      42.668 -17.063   4.476  1.00  0.00     0.068 A 
HETATM   27  C   UNL     1      43.397 -17.033   3.285  1.00  0.00     0.037 A 
HETATM   28  C   UNL     1      42.938 -16.303   2.184  1.00  0.00     0.016 A 
BRANCH  26  29
HETATM   29  O   UNL     1      43.212 -17.834   5.464  1.00  0.00    -0.351 OA
BRANCH  29  30
HETATM   30  C   UNL     1      44.307 -18.673   5.092  1.00  0.00     0.175 C 
BRANCH  30  31
HETATM   31  C   UNL     1      43.894 -20.120   5.346  1.00  0.00     0.022 C 
HETATM   32  C   UNL     1      43.848 -20.929   4.063  1.00  0.00     0.007 C 
ENDBRANCH  30  31
ENDBRANCH  29  30
ENDBRANCH  26  29
ENDBRANCH   1  23
TORSDOF 9
ENDMDL
MODEL 8
REMARK VINA RESULT:      -7.0      2.226     12.608
REMARK  9 active torsions:
REMARK  status: ('A' for Active; 'I' for Inactive)
REMARK    1  A    between atoms: C_2  and  C_3 
REMARK    2  A    between atoms: C_3  and  O_4 
REMARK    3  A    between atoms: O_4  and  C_5 
REMARK    4  A    between atoms: C_8  and  C_9 
REMARK    5  A    between atoms: C_13  and  C_14 
REMARK       I    between atoms: C_14  and  N_15 
REMARK    6  A    between atoms: N_15  and  N_16 
REMARK    7  A    between atoms: C_17  and  C_18 
REMARK    8  A    between atoms: C_21  and  C_22 
REMARK    9  A    between atoms: C_22  and  O_23 
ROOT
HETATM    1  C   UNL     1      42.020 -12.109   5.054  1.00  0.00     0.089 A 
HETATM    2  N   UNL     1      41.093 -11.314   4.499  1.00  0.00    -0.174 NA
HETATM    3  N   UNL     1      40.948 -10.304   5.368  1.00  0.00    -0.272 N 
HETATM    4  H   UNL     1      40.288  -9.560   5.158  1.00  0.00     0.189 HD
HETATM    5  C   UNL     1      41.766 -10.382   6.461  1.00  0.00     0.121 A 
HETATM    6  C   UNL     1      42.455 -11.566   6.297  1.00  0.00     0.071 A 
ENDROOT
BRANCH   5   7
HETATM    7  C   UNL     1      41.785  -9.335   7.455  1.00  0.00     0.289 C 
HETATM    8  N   UNL     1      41.060  -9.618   8.603  1.00  0.00    -0.242 N 
HETATM    9  H   UNL     1      40.573 -10.499   8.696  1.00  0.00     0.192 HD
HETATM   10  O   UNL     1      42.419  -8.300   7.272  1.00  0.00    -0.264 OA
BRANCH   8  11
HETATM   11  N   UNL     1      41.120  -8.776   9.677  1.00  0.00    -0.184 NA
HETATM   12  C   UNL     1      41.293  -9.345  10.825  1.00  0.00     0.150 C 
BRANCH  12  13
HETATM   13  C   UNL     1      41.432  -8.557  12.067  1.00  0.00    -0.017 A 
HETATM   14  C   UNL     1      42.668  -8.448  12.710  1.00  0.00     0.014 A 
HETATM   15  C   UNL     1      42.770  -7.729  13.904  1.00  0.00     0.018 A 
HETATM   16  C   UNL     1      41.639  -7.116  14.462  1.00  0.00     0.039 A 
HETATM   17  C   UNL     1      40.404  -7.223  13.803  1.00  0.00     0.018 A 
HETATM   18  C   UNL     1      40.301  -7.943  12.608  1.00  0.00     0.014 A 
BRANCH  16  19
HETATM   19  C   UNL     1      41.800  -6.378  15.745  1.00  0.00     0.292 C 
HETATM   20  O   UNL     1      41.609  -5.178  15.862  1.00  0.00    -0.259 OA
BRANCH  19  21
HETATM   21  O   UNL     1      42.192  -7.220  16.735  1.00  0.00    -0.323 OA
HETATM   22  C   UNL     1      41.110  -7.832  17.437  1.00  0.00     0.213 C 
ENDBRANCH  19  21
ENDBRANCH  16  19
ENDBRANCH  12  13
ENDBRANCH   8  11
ENDBRANCH   5   7
BRANCH   1  23
HETATM   23  C   UNL     1      42.496 -13.323   4.388  1.00  0.00    -0.005 A 
HETATM   24  C   UNL     1      42.666 -14.509   5.115  1.00  0.00     0.016 A 
HETATM   25  C   UNL     1      43.066 -15.693   4.482  1.00  0.00     0.037 A 
HETATM   26  C   UNL     1      43.303 -15.705   3.108  1.00  0.00     0.068 A 
HETATM   27  C   UNL     1      43.168 -14.519   2.383  1.00  0.00     0.037 A 
HETATM   28  C   UNL     1      42.764 -13.338   3.013  1.00  0.00     0.016 A 
BRANCH  26  29
HETATM   29  O   UNL     1      43.678 -16.791   2.368  1.00  0.00    -0.351 OA
BRANCH  29  30
HETATM   30  C   UNL     1      42.832 -17.939   2.439  1.00  0.00     0.175 C 
BRANCH  30  31
HETATM   31  C   UNL     1      43.703 -19.141   2.794  1.00  0.00     0.022 C 
HETATM   32  C   UNL     1      43.379 -20.348   1.933  1.00  0.00     0.007 C 
ENDBRANCH  30  31
ENDBRANCH  29  30
ENDBRANCH  26  29
ENDBRANCH   1  23
TORSDOF 9
ENDMDL
MODEL 9
REMARK VINA RESULT:      -6.7     20.037     23.912
REMARK  9 active torsions:
REMARK  status: ('A' for Active; 'I' for Inactive)
REMARK    1  A    between atoms: C_2  and  C_3 
REMARK    2  A    between atoms: C_3  and  O_4 
REMARK    3  A    between atoms: O_4  and  C_5 
REMARK    4  A    between atoms: C_8  and  C_9 
REMARK    5  A    between atoms: C_13  and  C_14 
REMARK       I    between atoms: C_14  and  N_15 
REMARK    6  A    between atoms: N_15  and  N_16 
REMARK    7  A    between atoms: C_17  and  C_18 
REMARK    8  A    between atoms: C_21  and  C_22 
REMARK    9  A    between atoms: C_22  and  O_23 
ROOT
HETATM    1  C   UNL     1      45.214 -29.395  -1.530  1.00  0.00     0.089 A 
HETATM    2  N   UNL     1      45.097 -28.081  -1.287  1.00  0.00    -0.174 NA
HETATM    3  N   UNL     1      45.655 -27.908  -0.080  1.00  0.00    -0.272 N 
HETATM    4  H   UNL     1      45.688 -26.975   0.321  1.00  0.00     0.189 HD
HETATM    5  C   UNL     1      46.165 -29.051   0.471  1.00  0.00     0.121 A 
HETATM    6  C   UNL     1      45.863 -30.043  -0.441  1.00  0.00     0.071 A 
ENDROOT
BRANCH   5   7
HETATM    7  C   UNL     1      46.863 -29.023   1.733  1.00  0.00     0.289 C 
HETATM    8  N   UNL     1      47.159 -30.272   2.256  1.00  0.00    -0.242 N 
HETATM    9  H   UNL     1      46.889 -31.111   1.760  1.00  0.00     0.192 HD
HETATM   10  O   UNL     1      47.172 -27.959   2.262  1.00  0.00    -0.264 OA
BRANCH   8  11
HETATM   11  N   UNL     1      47.945 -30.383   3.367  1.00  0.00    -0.184 NA
HETATM   12  C   UNL     1      48.791 -31.361   3.360  1.00  0.00     0.150 C 
BRANCH  12  13
HETATM   13  C   UNL     1      49.744 -31.571   4.469  1.00  0.00    -0.017 A 
HETATM   14  C   UNL     1      50.896 -30.788   4.579  1.00  0.00     0.014 A 
HETATM   15  C   UNL     1      51.804 -31.027   5.614  1.00  0.00     0.018 A 
HETATM   16  C   UNL     1      51.565 -32.049   6.544  1.00  0.00     0.039 A 
HETATM   17  C   UNL     1      50.401 -32.824   6.431  1.00  0.00     0.018 A 
HETATM   18  C   UNL     1      49.492 -32.586   5.394  1.00  0.00     0.014 A 
BRANCH  16  19
HETATM   19  C   UNL     1      52.574 -32.274   7.616  1.00  0.00     0.292 C 
HETATM   20  O   UNL     1      52.555 -33.235   8.370  1.00  0.00    -0.259 OA
BRANCH  19  21
HETATM   21  O   UNL     1      53.485 -31.268   7.635  1.00  0.00    -0.323 OA
HETATM   22  C   UNL     1      54.840 -31.713   7.553  1.00  0.00     0.213 C 
ENDBRANCH  19  21
ENDBRANCH  16  19
ENDBRANCH  12  13
ENDBRANCH   8  11
ENDBRANCH   5   7
BRANCH   1  23
HETATM   23  C   UNL     1      44.751 -29.993  -2.785  1.00  0.00    -0.005 A 
HETATM   24  C   UNL     1      44.397 -29.177  -3.869  1.00  0.00     0.016 A 
HETATM   25  C   UNL     1      44.007 -29.734  -5.093  1.00  0.00     0.037 A 
HETATM   26  C   UNL     1      43.964 -31.119  -5.250  1.00  0.00     0.068 A 
HETATM   27  C   UNL     1      44.283 -31.937  -4.164  1.00  0.00     0.037 A 
HETATM   28  C   UNL     1      44.678 -31.382  -2.942  1.00  0.00     0.016 A 
BRANCH  26  29
HETATM   29  O   UNL     1      43.620 -31.787  -6.391  1.00  0.00    -0.351 OA
BRANCH  29  30
HETATM   30  C   UNL     1      44.405 -31.519  -7.553  1.00  0.00     0.175 C 
BRANCH  30  31
HETATM   31  C   UNL     1      45.366 -32.688  -7.748  1.00  0.00     0.022 C 
HETATM   32  C   UNL     1      46.750 -32.380  -7.208  1.00  0.00     0.007 C 
ENDBRANCH  30  31
ENDBRANCH  29  30
ENDBRANCH  26  29
ENDBRANCH   1  23
TORSDOF 9
ENDMDL
MODEL 10
REMARK VINA RESULT:      -6.6     20.044     23.395
REMARK  9 active torsions:
REMARK  status: ('A' for Active; 'I' for Inactive)
REMARK    1  A    between atoms: C_2  and  C_3 
REMARK    2  A    between atoms: C_3  and  O_4 
REMARK    3  A    between atoms: O_4  and  C_5 
REMARK    4  A    between atoms: C_8  and  C_9 
REMARK    5  A    between atoms: C_13  and  C_14 
REMARK       I    between atoms: C_14  and  N_15 
REMARK    6  A    between atoms: N_15  and  N_16 
REMARK    7  A    between atoms: C_17  and  C_18 
REMARK    8  A    between atoms: C_21  and  C_22 
REMARK    9  A    between atoms: C_22  and  O_23 
ROOT
HETATM    1  C   UNL     1      46.586 -28.739  -0.509  1.00  0.00     0.089 A 
HETATM    2  N   UNL     1      47.420 -27.690  -0.440  1.00  0.00    -0.174 NA
HETATM    3  N   UNL     1      47.981 -27.783   0.774  1.00  0.00    -0.272 N 
HETATM    4  H   UNL     1      48.664 -27.086   1.059  1.00  0.00     0.189 HD
HETATM    5  C   UNL     1      47.575 -28.870   1.499  1.00  0.00     0.121 A 
HETATM    6  C   UNL     1      46.642 -29.495   0.697  1.00  0.00     0.071 A 
ENDROOT
BRANCH   5   7
HETATM    7  C   UNL     1      48.139 -29.154   2.796  1.00  0.00     0.289 C 
HETATM    8  N   UNL     1      47.951 -30.456   3.234  1.00  0.00    -0.242 N 
HETATM    9  H   UNL     1      47.454 -31.121   2.658  1.00  0.00     0.192 HD
HETATM   10  O   UNL     1      48.748 -28.292   3.425  1.00  0.00    -0.264 OA
BRANCH   8  11
HETATM   11  N   UNL     1      48.563 -30.892   4.374  1.00  0.00    -0.184 NA
HETATM   12  C   UNL     1      49.781 -31.304   4.235  1.00  0.00     0.150 C 
BRANCH  12  13
HETATM   13  C   UNL     1      50.585 -31.751   5.389  1.00  0.00    -0.017 A 
HETATM   14  C   UNL     1      50.110 -32.744   6.250  1.00  0.00     0.014 A 
HETATM   15  C   UNL     1      50.870 -33.127   7.359  1.00  0.00     0.018 A 
HETATM   16  C   UNL     1      52.107 -32.519   7.614  1.00  0.00     0.039 A 
HETATM   17  C   UNL     1      52.581 -31.530   6.738  1.00  0.00     0.018 A 
HETATM   18  C   UNL     1      51.821 -31.146   5.629  1.00  0.00     0.014 A 
BRANCH  16  19
HETATM   19  C   UNL     1      52.868 -32.951   8.819  1.00  0.00     0.292 C 
HETATM   20  O   UNL     1      52.377 -33.600   9.730  1.00  0.00    -0.259 OA
BRANCH  19  21
HETATM   21  O   UNL     1      54.151 -32.514   8.756  1.00  0.00    -0.323 OA
HETATM   22  C   UNL     1      54.563 -31.763   9.900  1.00  0.00     0.213 C 
ENDBRANCH  19  21
ENDBRANCH  16  19
ENDBRANCH  12  13
ENDBRANCH   8  11
ENDBRANCH   5   7
BRANCH   1  23
HETATM   23  C   UNL     1      45.798 -29.021  -1.711  1.00  0.00    -0.005 A 
HETATM   24  C   UNL     1      45.767 -28.103  -2.769  1.00  0.00     0.016 A 
HETATM   25  C   UNL     1      45.065 -28.383  -3.948  1.00  0.00     0.037 A 
HETATM   26  C   UNL     1      44.379 -29.589  -4.083  1.00  0.00     0.068 A 
HETATM   27  C   UNL     1      44.378 -30.494  -3.020  1.00  0.00     0.037 A 
HETATM   28  C   UNL     1      45.083 -30.218  -1.845  1.00  0.00     0.016 A 
BRANCH  26  29
HETATM   29  O   UNL     1      43.673 -29.991  -5.182  1.00  0.00    -0.351 OA
BRANCH  29  30
HETATM   30  C   UNL     1      43.894 -31.328  -5.632  1.00  0.00     0.175 C 
BRANCH  30  31
HETATM   31  C   UNL     1      44.639 -31.257  -6.961  1.00  0.00     0.022 C 
HETATM   32  C   UNL     1      43.860 -31.920  -8.082  1.00  0.00     0.007 C 
ENDBRANCH  30  31
ENDBRANCH  29  30
ENDBRANCH  26  29
ENDBRANCH   1  23
TORSDOF 9
ENDMDL
