MODEL 1
REMARK VINA RESULT:      -8.5      0.000      0.000
REMARK  3 active torsions:
REMARK  status: ('A' for Active; 'I' for Inactive)
REMARK    1  A    between atoms: C_7  and  C_8 
REMARK       I    between atoms: C_8  and  N_9 
REMARK    2  A    between atoms: N_9  and  C_10 
REMARK    3  A    between atoms: C_11  and  O_12 
ROOT
HETATM    1  C   UNL     1      43.089 -13.650   3.354  1.00  0.00     0.252 C 
HETATM    2  N   UNL     1      43.408 -13.036   4.544  1.00  0.00    -0.346 N 
HETATM    3  O   UNL     1      42.720 -13.021   2.368  1.00  0.00    -0.268 OA
HETATM    4  H   UNL     1      43.549 -13.578   5.383  1.00  0.00     0.163 HD
ENDROOT
BRANCH   1   5
HETATM    5  C   UNL     1      43.202 -15.138   3.297  1.00  0.00     0.033 A 
HETATM    6  C   UNL     1      43.245 -15.742   2.035  1.00  0.00     0.019 A 
HETATM    7  C   UNL     1      43.395 -17.126   1.892  1.00  0.00     0.031 A 
HETATM    8  C   UNL     1      43.504 -17.887   3.060  1.00  0.00     0.043 A 
HETATM    9  C   UNL     1      43.464 -17.328   4.336  1.00  0.00    -0.001 A 
HETATM   10  N   UNL     1      43.674 -19.242   3.215  1.00  0.00    -0.359 N 
HETATM   11  C   UNL     1      43.604 -18.401   5.277  1.00  0.00    -0.027 A 
HETATM   12  C   UNL     1      43.317 -15.928   4.455  1.00  0.00     0.031 A 
HETATM   13  C   UNL     1      43.605 -18.294   6.762  1.00  0.00     0.051 C 
HETATM   14  C   UNL     1      43.740 -19.570   4.546  1.00  0.00     0.012 A 
HETATM   15  C   UNL     1      43.936 -20.972   4.994  1.00  0.00     0.068 C 
HETATM   16  H   UNL     1      43.750 -19.897   2.450  1.00  0.00     0.166 HD
ENDBRANCH   1   5
BRANCH   2  17
HETATM   17  C   UNL     1      43.377 -11.593   4.674  1.00  0.00     0.147 C 
HETATM   18  C   UNL     1      41.955 -11.022   4.960  1.00  0.00     0.149 C 
HETATM   19  C   UNL     1      41.800 -10.967   6.494  1.00  0.00     0.073 C 
HETATM   20  C   UNL     1      43.225 -10.820   6.940  1.00  0.00    -0.047 A 
HETATM   21  C   UNL     1      44.113 -11.176   5.918  1.00  0.00    -0.027 A 
HETATM   22  C   UNL     1      43.690 -10.440   8.187  1.00  0.00     0.008 A 
HETATM   23  C   UNL     1      45.485 -11.156   6.123  1.00  0.00     0.010 A 
HETATM   24  C   UNL     1      45.962 -10.763   7.374  1.00  0.00     0.001 A 
HETATM   25  C   UNL     1      45.072 -10.407   8.399  1.00  0.00     0.001 A 
BRANCH  18  26
HETATM   26  O   UNL     1      41.811  -9.695   4.426  1.00  0.00    -0.393 OA
HETATM   27  H   UNL     1      41.716  -9.083   5.178  1.00  0.00     0.210 HD
ENDBRANCH  18  26
ENDBRANCH   2  17
TORSDOF 3
ENDMDL
MODEL 2
REMARK VINA RESULT:      -8.4      3.643      7.222
REMARK  3 active torsions:
REMARK  status: ('A' for Active; 'I' for Inactive)
REMARK    1  A    between atoms: C_7  and  C_8 
REMARK       I    between atoms: C_8  and  N_9 
REMARK    2  A    between atoms: N_9  and  C_10 
REMARK    3  A    between atoms: C_11  and  O_12 
ROOT
HETATM    1  C   UNL     1      42.727 -14.962   3.012  1.00  0.00     0.252 C 
HETATM    2  N   UNL     1      42.862 -16.194   3.611  1.00  0.00    -0.346 N 
HETATM    3  O   UNL     1      43.390 -13.989   3.354  1.00  0.00    -0.268 OA
HETATM    4  H   UNL     1      42.199 -16.932   3.429  1.00  0.00     0.163 HD
ENDROOT
BRANCH   1   5
HETATM    5  C   UNL     1      41.726 -14.841   1.910  1.00  0.00     0.033 A 
HETATM    6  C   UNL     1      40.798 -15.877   1.755  1.00  0.00     0.019 A 
HETATM    7  C   UNL     1      39.799 -15.822   0.777  1.00  0.00     0.031 A 
HETATM    8  C   UNL     1      39.757 -14.688  -0.040  1.00  0.00     0.043 A 
HETATM    9  C   UNL     1      40.660 -13.634   0.079  1.00  0.00    -0.001 A 
HETATM   10  N   UNL     1      38.887 -14.364  -1.053  1.00  0.00    -0.359 N 
HETATM   11  C   UNL     1      40.314 -12.659  -0.913  1.00  0.00    -0.027 A 
HETATM   12  C   UNL     1      41.658 -13.711   1.077  1.00  0.00     0.031 A 
HETATM   13  C   UNL     1      41.005 -11.367  -1.178  1.00  0.00     0.051 C 
HETATM   14  C   UNL     1      39.205 -13.142  -1.590  1.00  0.00     0.012 A 
HETATM   15  C   UNL     1      38.413 -12.546  -2.695  1.00  0.00     0.068 C 
HETATM   16  H   UNL     1      38.116 -14.947  -1.349  1.00  0.00     0.166 HD
ENDBRANCH   1   5
BRANCH   2  17
HETATM   17  C   UNL     1      43.845 -16.416   4.654  1.00  0.00     0.147 C 
HETATM   18  C   UNL     1      43.422 -15.850   6.042  1.00  0.00     0.149 C 
HETATM   19  C   UNL     1      42.677 -16.983   6.776  1.00  0.00     0.073 C 
HETATM   20  C   UNL     1      43.289 -18.204   6.154  1.00  0.00    -0.047 A 
HETATM   21  C   UNL     1      43.943 -17.887   4.957  1.00  0.00    -0.027 A 
HETATM   22  C   UNL     1      43.224 -19.511   6.605  1.00  0.00     0.008 A 
HETATM   23  C   UNL     1      44.546 -18.872   4.189  1.00  0.00     0.010 A 
HETATM   24  C   UNL     1      44.495 -20.189   4.642  1.00  0.00     0.001 A 
HETATM   25  C   UNL     1      43.839 -20.508   5.841  1.00  0.00     0.001 A 
BRANCH  18  26
HETATM   26  O   UNL     1      44.571 -15.465   6.817  1.00  0.00    -0.393 OA
HETATM   27  H   UNL     1      44.425 -14.553   7.128  1.00  0.00     0.210 HD
ENDBRANCH  18  26
ENDBRANCH   2  17
TORSDOF 3
ENDMDL
MODEL 3
REMARK VINA RESULT:      -8.3      3.079      5.011
REMARK  3 active torsions:
REMARK  status: ('A' for Active; 'I' for Inactive)
REMARK    1  A    between atoms: C_7  and  C_8 
REMARK       I    between atoms: C_8  and  N_9 
REMARK    2  A    between atoms: N_9  and  C_10 
REMARK    3  A    between atoms: C_11  and  O_12 
ROOT
HETATM    1  C   UNL     1      43.966 -11.907   6.887  1.00  0.00     0.252 C 
HETATM    2  N   UNL     1      43.620 -11.020   7.881  1.00  0.00    -0.346 N 
HETATM    3  O   UNL     1      45.131 -12.199   6.641  1.00  0.00    -0.268 OA
HETATM    4  H   UNL     1      42.677 -10.671   7.957  1.00  0.00     0.163 HD
ENDROOT
BRANCH   1   5
HETATM    5  C   UNL     1      42.855 -12.516   6.094  1.00  0.00     0.033 A 
HETATM    6  C   UNL     1      41.559 -12.032   6.309  1.00  0.00     0.019 A 
HETATM    7  C   UNL     1      40.469 -12.516   5.577  1.00  0.00     0.031 A 
HETATM    8  C   UNL     1      40.721 -13.501   4.618  1.00  0.00     0.043 A 
HETATM    9  C   UNL     1      41.994 -14.011   4.372  1.00  0.00    -0.001 A 
HETATM   10  N   UNL     1      39.857 -14.133   3.756  1.00  0.00    -0.359 N 
HETATM   11  C   UNL     1      41.869 -14.992   3.334  1.00  0.00    -0.027 A 
HETATM   12  C   UNL     1      43.080 -13.504   5.120  1.00  0.00     0.031 A 
HETATM   13  C   UNL     1      42.960 -15.817   2.745  1.00  0.00     0.051 C 
HETATM   14  C   UNL     1      40.532 -15.034   2.971  1.00  0.00     0.012 A 
HETATM   15  C   UNL     1      39.835 -15.845   1.940  1.00  0.00     0.068 C 
HETATM   16  H   UNL     1      38.865 -13.947   3.707  1.00  0.00     0.166 HD
ENDBRANCH   1   5
BRANCH   2  17
HETATM   17  C   UNL     1      44.629 -10.421   8.733  1.00  0.00     0.147 C 
HETATM   18  C   UNL     1      45.135  -9.038   8.223  1.00  0.00     0.149 C 
HETATM   19  C   UNL     1      44.234  -7.968   8.873  1.00  0.00     0.073 C 
HETATM   20  C   UNL     1      43.801  -8.658  10.133  1.00  0.00    -0.047 A 
HETATM   21  C   UNL     1      44.019 -10.038  10.054  1.00  0.00    -0.027 A 
HETATM   22  C   UNL     1      43.212  -8.093  11.252  1.00  0.00     0.008 A 
HETATM   23  C   UNL     1      43.653 -10.881  11.093  1.00  0.00     0.010 A 
HETATM   24  C   UNL     1      43.069 -10.318  12.228  1.00  0.00     0.001 A 
HETATM   25  C   UNL     1      42.850  -8.935  12.308  1.00  0.00     0.001 A 
BRANCH  18  26
HETATM   26  O   UNL     1      46.498  -8.806   8.620  1.00  0.00    -0.393 OA
HETATM   27  H   UNL     1      47.074  -9.211   7.948  1.00  0.00     0.210 HD
ENDBRANCH  18  26
ENDBRANCH   2  17
TORSDOF 3
ENDMDL
MODEL 4
REMARK VINA RESULT:      -8.2      3.720      5.911
REMARK  3 active torsions:
REMARK  status: ('A' for Active; 'I' for Inactive)
REMARK    1  A    between atoms: C_7  and  C_8 
REMARK       I    between atoms: C_8  and  N_9 
REMARK    2  A    between atoms: N_9  and  C_10 
REMARK    3  A    between atoms: C_11  and  O_12 
ROOT
HETATM    1  C   UNL     1      40.562 -14.751   2.269  1.00  0.00     0.252 C 
HETATM    2  N   UNL     1      40.970 -13.522   1.801  1.00  0.00    -0.346 N 
HETATM    3  O   UNL     1      39.414 -15.159   2.131  1.00  0.00    -0.268 OA
HETATM    4  H   UNL     1      41.865 -13.140   2.066  1.00  0.00     0.163 HD
ENDROOT
BRANCH   1   5
HETATM    5  C   UNL     1      41.580 -15.591   2.969  1.00  0.00     0.033 A 
HETATM    6  C   UNL     1      42.184 -15.063   4.116  1.00  0.00     0.019 A 
HETATM    7  C   UNL     1      43.114 -15.800   4.857  1.00  0.00     0.031 A 
HETATM    8  C   UNL     1      43.417 -17.090   4.410  1.00  0.00     0.043 A 
HETATM    9  C   UNL     1      42.842 -17.654   3.274  1.00  0.00    -0.001 A 
HETATM   10  N   UNL     1      44.267 -18.030   4.944  1.00  0.00    -0.359 N 
HETATM   11  C   UNL     1      43.386 -18.973   3.128  1.00  0.00    -0.027 A 
HETATM   12  C   UNL     1      41.901 -16.892   2.545  1.00  0.00     0.031 A 
HETATM   13  C   UNL     1      43.080 -19.953   2.050  1.00  0.00     0.051 C 
HETATM   14  C   UNL     1      44.258 -19.173   4.186  1.00  0.00     0.012 A 
HETATM   15  C   UNL     1      45.081 -20.356   4.549  1.00  0.00     0.068 C 
HETATM   16  H   UNL     1      44.811 -17.892   5.784  1.00  0.00     0.166 HD
ENDBRANCH   1   5
BRANCH   2  17
HETATM   17  C   UNL     1      40.064 -12.663   1.065  1.00  0.00     0.147 C 
HETATM   18  C   UNL     1      40.366 -11.144   1.235  1.00  0.00     0.149 C 
HETATM   19  C   UNL     1      41.339 -10.756   0.104  1.00  0.00     0.073 C 
HETATM   20  C   UNL     1      40.995 -11.763  -0.954  1.00  0.00    -0.047 A 
HETATM   21  C   UNL     1      40.281 -12.839  -0.414  1.00  0.00    -0.027 A 
HETATM   22  C   UNL     1      41.339 -11.738  -2.295  1.00  0.00     0.008 A 
HETATM   23  C   UNL     1      39.895 -13.910  -1.205  1.00  0.00     0.010 A 
HETATM   24  C   UNL     1      40.227 -13.887  -2.559  1.00  0.00     0.001 A 
HETATM   25  C   UNL     1      40.944 -12.810  -3.101  1.00  0.00     0.001 A 
BRANCH  18  26
HETATM   26  O   UNL     1      39.167 -10.359   1.113  1.00  0.00    -0.393 OA
HETATM   27  H   UNL     1      39.351  -9.636   0.488  1.00  0.00     0.210 HD
ENDBRANCH  18  26
ENDBRANCH   2  17
TORSDOF 3
ENDMDL
MODEL 5
REMARK VINA RESULT:      -8.1      1.500      2.379
REMARK  3 active torsions:
REMARK  status: ('A' for Active; 'I' for Inactive)
REMARK    1  A    between atoms: C_7  and  C_8 
REMARK       I    between atoms: C_8  and  N_9 
REMARK    2  A    between atoms: N_9  and  C_10 
REMARK    3  A    between atoms: C_11  and  O_12 
ROOT
HETATM    1  C   UNL     1      43.188 -13.503   5.375  1.00  0.00     0.252 C 
HETATM    2  N   UNL     1      43.553 -12.586   6.333  1.00  0.00    -0.346 N 
HETATM    3  O   UNL     1      42.773 -13.170   4.270  1.00  0.00    -0.268 OA
HETATM    4  H   UNL     1      43.733 -12.875   7.283  1.00  0.00     0.163 HD
ENDROOT
BRANCH   1   5
HETATM    5  C   UNL     1      43.308 -14.950   5.728  1.00  0.00     0.033 A 
HETATM    6  C   UNL     1      43.094 -15.316   7.062  1.00  0.00     0.019 A 
HETATM    7  C   UNL     1      43.143 -16.654   7.469  1.00  0.00     0.031 A 
HETATM    8  C   UNL     1      43.412 -17.616   6.491  1.00  0.00     0.043 A 
HETATM    9  C   UNL     1      43.633 -17.297   5.153  1.00  0.00    -0.001 A 
HETATM   10  N   UNL     1      43.501 -18.983   6.601  1.00  0.00    -0.359 N 
HETATM   11  C   UNL     1      43.874 -18.525   4.453  1.00  0.00    -0.027 A 
HETATM   12  C   UNL     1      43.573 -15.939   4.765  1.00  0.00     0.031 A 
HETATM   13  C   UNL     1      44.173 -18.685   3.004  1.00  0.00     0.051 C 
HETATM   14  C   UNL     1      43.776 -19.549   5.381  1.00  0.00     0.012 A 
HETATM   15  C   UNL     1      43.910 -21.019   5.216  1.00  0.00     0.068 C 
HETATM   16  H   UNL     1      43.371 -19.493   7.464  1.00  0.00     0.166 HD
ENDBRANCH   1   5
BRANCH   2  17
HETATM   17  C   UNL     1      43.517 -11.163   6.060  1.00  0.00     0.147 C 
HETATM   18  C   UNL     1      42.115 -10.520   6.278  1.00  0.00     0.149 C 
HETATM   19  C   UNL     1      42.070 -10.040   7.743  1.00  0.00     0.073 C 
HETATM   20  C   UNL     1      43.521  -9.790   8.028  1.00  0.00    -0.047 A 
HETATM   21  C   UNL     1      44.338 -10.425   7.084  1.00  0.00    -0.027 A 
HETATM   22  C   UNL     1      44.072  -9.084   9.084  1.00  0.00     0.008 A 
HETATM   23  C   UNL     1      45.720 -10.365   7.177  1.00  0.00     0.010 A 
HETATM   24  C   UNL     1      46.282  -9.645   8.232  1.00  0.00     0.001 A 
HETATM   25  C   UNL     1      45.464  -9.010   9.179  1.00  0.00     0.001 A 
BRANCH  18  26
HETATM   26  O   UNL     1      41.920  -9.391   5.408  1.00  0.00    -0.393 OA
HETATM   27  H   UNL     1      41.332  -8.764   5.866  1.00  0.00     0.210 HD
ENDBRANCH  18  26
ENDBRANCH   2  17
TORSDOF 3
ENDMDL
MODEL 6
REMARK VINA RESULT:      -8.0      3.160      4.915
REMARK  3 active torsions:
REMARK  status: ('A' for Active; 'I' for Inactive)
REMARK    1  A    between atoms: C_7  and  C_8 
REMARK       I    between atoms: C_8  and  N_9 
REMARK    2  A    between atoms: N_9  and  C_10 
REMARK    3  A    between atoms: C_11  and  O_12 
ROOT
HETATM    1  C   UNL     1      42.888 -13.910   2.607  1.00  0.00     0.252 C 
HETATM    2  N   UNL     1      41.849 -13.991   1.708  1.00  0.00    -0.346 N 
HETATM    3  O   UNL     1      43.603 -12.918   2.698  1.00  0.00    -0.268 OA
HETATM    4  H   UNL     1      41.381 -14.867   1.536  1.00  0.00     0.163 HD
ENDROOT
BRANCH   1   5
HETATM    5  C   UNL     1      43.127 -15.093   3.487  1.00  0.00     0.033 A 
HETATM    6  C   UNL     1      43.079 -14.897   4.873  1.00  0.00     0.019 A 
HETATM    7  C   UNL     1      43.248 -15.960   5.767  1.00  0.00     0.031 A 
HETATM    8  C   UNL     1      43.463 -17.231   5.225  1.00  0.00     0.043 A 
HETATM    9  C   UNL     1      43.519 -17.472   3.854  1.00  0.00    -0.001 A 
HETATM   10  N   UNL     1      43.640 -18.439   5.857  1.00  0.00    -0.359 N 
HETATM   11  C   UNL     1      43.751 -18.875   3.675  1.00  0.00    -0.027 A 
HETATM   12  C   UNL     1      43.341 -16.383   2.971  1.00  0.00     0.031 A 
HETATM   13  C   UNL     1      43.900 -19.600   2.384  1.00  0.00     0.051 C 
HETATM   14  C   UNL     1      43.812 -19.443   4.938  1.00  0.00     0.012 A 
HETATM   15  C   UNL     1      44.010 -20.855   5.354  1.00  0.00     0.068 C 
HETATM   16  H   UNL     1      43.632 -18.562   6.860  1.00  0.00     0.166 HD
ENDBRANCH   1   5
BRANCH   2  17
HETATM   17  C   UNL     1      41.512 -12.871   0.851  1.00  0.00     0.147 C 
HETATM   18  C   UNL     1      40.797 -13.288  -0.469  1.00  0.00     0.149 C 
HETATM   19  C   UNL     1      39.283 -13.267  -0.179  1.00  0.00     0.073 C 
HETATM   20  C   UNL     1      39.196 -12.249   0.921  1.00  0.00    -0.047 A 
HETATM   21  C   UNL     1      40.450 -12.029   1.504  1.00  0.00    -0.027 A 
HETATM   22  C   UNL     1      38.067 -11.603   1.395  1.00  0.00     0.008 A 
HETATM   23  C   UNL     1      40.599 -11.156   2.572  1.00  0.00     0.010 A 
HETATM   24  C   UNL     1      39.468 -10.493   3.047  1.00  0.00     0.001 A 
HETATM   25  C   UNL     1      38.211 -10.715   2.464  1.00  0.00     0.001 A 
BRANCH  18  26
HETATM   26  O   UNL     1      41.084 -12.361  -1.531  1.00  0.00    -0.393 OA
HETATM   27  H   UNL     1      41.815 -12.732  -2.056  1.00  0.00     0.210 HD
ENDBRANCH  18  26
ENDBRANCH   2  17
TORSDOF 3
ENDMDL
MODEL 7
REMARK VINA RESULT:      -8.0      2.412      7.612
REMARK  3 active torsions:
REMARK  status: ('A' for Active; 'I' for Inactive)
REMARK    1  A    between atoms: C_7  and  C_8 
REMARK       I    between atoms: C_8  and  N_9 
REMARK    2  A    between atoms: N_9  and  C_10 
REMARK    3  A    between atoms: C_11  and  O_12 
ROOT
HETATM    1  C   UNL     1      40.652 -13.408   5.448  1.00  0.00     0.252 C 
HETATM    2  N   UNL     1      41.113 -13.772   4.204  1.00  0.00    -0.346 N 
HETATM    3  O   UNL     1      39.798 -14.052   6.048  1.00  0.00    -0.268 OA
HETATM    4  H   UNL     1      41.689 -13.145   3.662  1.00  0.00     0.163 HD
ENDROOT
BRANCH   1   5
HETATM    5  C   UNL     1      41.231 -12.174   6.061  1.00  0.00     0.033 A 
HETATM    6  C   UNL     1      40.356 -11.124   6.365  1.00  0.00     0.019 A 
HETATM    7  C   UNL     1      40.809  -9.952   6.980  1.00  0.00     0.031 A 
HETATM    8  C   UNL     1      42.171  -9.868   7.285  1.00  0.00     0.043 A 
HETATM    9  C   UNL     1      43.077 -10.887   6.999  1.00  0.00    -0.001 A 
HETATM   10  N   UNL     1      42.876  -8.858   7.897  1.00  0.00    -0.359 N 
HETATM   11  C   UNL     1      44.367 -10.452   7.449  1.00  0.00    -0.027 A 
HETATM   12  C   UNL     1      42.595 -12.064   6.382  1.00  0.00     0.031 A 
HETATM   13  C   UNL     1      45.650 -11.200   7.344  1.00  0.00     0.051 C 
HETATM   14  C   UNL     1      44.202  -9.195   8.007  1.00  0.00     0.012 A 
HETATM   15  C   UNL     1      45.186  -8.284   8.645  1.00  0.00     0.068 C 
HETATM   16  H   UNL     1      42.464  -7.996   8.225  1.00  0.00     0.166 HD
ENDBRANCH   1   5
BRANCH   2  17
HETATM   17  C   UNL     1      40.645 -14.981   3.556  1.00  0.00     0.147 C 
HETATM   18  C   UNL     1      40.427 -14.824   2.021  1.00  0.00     0.149 C 
HETATM   19  C   UNL     1      41.757 -15.211   1.342  1.00  0.00     0.073 C 
HETATM   20  C   UNL     1      42.346 -16.161   2.343  1.00  0.00    -0.047 A 
HETATM   21  C   UNL     1      41.724 -16.030   3.590  1.00  0.00    -0.027 A 
HETATM   22  C   UNL     1      43.396 -17.045   2.160  1.00  0.00     0.008 A 
HETATM   23  C   UNL     1      42.139 -16.782   4.679  1.00  0.00     0.010 A 
HETATM   24  C   UNL     1      43.188 -17.684   4.500  1.00  0.00     0.001 A 
HETATM   25  C   UNL     1      43.812 -17.815   3.250  1.00  0.00     0.001 A 
BRANCH  18  26
HETATM   26  O   UNL     1      39.388 -15.701   1.552  1.00  0.00    -0.393 OA
HETATM   27  H   UNL     1      38.612 -15.152   1.342  1.00  0.00     0.210 HD
ENDBRANCH  18  26
ENDBRANCH   2  17
TORSDOF 3
ENDMDL
MODEL 8
REMARK VINA RESULT:      -7.9      2.094      7.877
REMARK  3 active torsions:
REMARK  status: ('A' for Active; 'I' for Inactive)
REMARK    1  A    between atoms: C_7  and  C_8 
REMARK       I    between atoms: C_8  and  N_9 
REMARK    2  A    between atoms: N_9  and  C_10 
REMARK    3  A    between atoms: C_11  and  O_12 
ROOT
HETATM    1  C   UNL     1      41.938 -13.549   5.350  1.00  0.00     0.252 C 
HETATM    2  N   UNL     1      42.628 -14.695   5.025  1.00  0.00    -0.346 N 
HETATM    3  O   UNL     1      40.767 -13.374   5.031  1.00  0.00    -0.268 OA
HETATM    4  H   UNL     1      43.627 -14.750   5.151  1.00  0.00     0.163 HD
ENDROOT
BRANCH   1   5
HETATM    5  C   UNL     1      42.674 -12.500   6.117  1.00  0.00     0.033 A 
HETATM    6  C   UNL     1      44.024 -12.730   6.408  1.00  0.00     0.019 A 
HETATM    7  C   UNL     1      44.798 -11.779   7.083  1.00  0.00     0.031 A 
HETATM    8  C   UNL     1      44.173 -10.586   7.455  1.00  0.00     0.043 A 
HETATM    9  C   UNL     1      42.832 -10.315   7.188  1.00  0.00    -0.001 A 
HETATM   10  N   UNL     1      44.687  -9.487   8.102  1.00  0.00    -0.359 N 
HETATM   11  C   UNL     1      42.545  -9.012   7.711  1.00  0.00    -0.027 A 
HETATM   12  C   UNL     1      42.072 -11.289   6.501  1.00  0.00     0.031 A 
HETATM   13  C   UNL     1      41.238  -8.301   7.676  1.00  0.00     0.051 C 
HETATM   14  C   UNL     1      43.720  -8.526   8.262  1.00  0.00     0.012 A 
HETATM   15  C   UNL     1      44.014  -7.228   8.921  1.00  0.00     0.068 C 
HETATM   16  H   UNL     1      45.647  -9.404   8.405  1.00  0.00     0.166 HD
ENDBRANCH   1   5
BRANCH   2  17
HETATM   17  C   UNL     1      41.979 -15.787   4.326  1.00  0.00     0.147 C 
HETATM   18  C   UNL     1      41.968 -15.619   2.777  1.00  0.00     0.149 C 
HETATM   19  C   UNL     1      43.246 -16.302   2.248  1.00  0.00     0.073 C 
HETATM   20  C   UNL     1      43.501 -17.335   3.306  1.00  0.00    -0.047 A 
HETATM   21  C   UNL     1      42.792 -17.045   4.477  1.00  0.00    -0.027 A 
HETATM   22  C   UNL     1      44.344 -18.431   3.237  1.00  0.00     0.008 A 
HETATM   23  C   UNL     1      42.911 -17.846   5.603  1.00  0.00     0.010 A 
HETATM   24  C   UNL     1      43.750 -18.958   5.539  1.00  0.00     0.001 A 
HETATM   25  C   UNL     1      44.462 -19.249   4.365  1.00  0.00     0.001 A 
BRANCH  18  26
HETATM   26  O   UNL     1      40.819 -16.259   2.194  1.00  0.00    -0.393 OA
HETATM   27  H   UNL     1      40.085 -16.180   2.828  1.00  0.00     0.210 HD
ENDBRANCH  18  26
ENDBRANCH   2  17
TORSDOF 3
ENDMDL
MODEL 9
REMARK VINA RESULT:      -7.9      2.147      3.567
REMARK  3 active torsions:
REMARK  status: ('A' for Active; 'I' for Inactive)
REMARK    1  A    between atoms: C_7  and  C_8 
REMARK       I    between atoms: C_8  and  N_9 
REMARK    2  A    between atoms: N_9  and  C_10 
REMARK    3  A    between atoms: C_11  and  O_12 
ROOT
HETATM    1  C   UNL     1      43.015 -11.592   5.821  1.00  0.00     0.252 C 
HETATM    2  N   UNL     1      42.913 -11.179   7.130  1.00  0.00    -0.346 N 
HETATM    3  O   UNL     1      43.025 -10.805   4.881  1.00  0.00    -0.268 OA
HETATM    4  H   UNL     1      42.743 -11.843   7.870  1.00  0.00     0.163 HD
ENDROOT
BRANCH   1   5
HETATM    5  C   UNL     1      43.112 -13.062   5.572  1.00  0.00     0.033 A 
HETATM    6  C   UNL     1      43.144 -13.912   6.684  1.00  0.00     0.019 A 
HETATM    7  C   UNL     1      43.189 -15.303   6.538  1.00  0.00     0.031 A 
HETATM    8  C   UNL     1      43.197 -15.816   5.238  1.00  0.00     0.043 A 
HETATM    9  C   UNL     1      43.168 -15.008   4.103  1.00  0.00    -0.001 A 
HETATM   10  N   UNL     1      43.220 -17.121   4.805  1.00  0.00    -0.359 N 
HETATM   11  C   UNL     1      43.188 -15.873   2.960  1.00  0.00    -0.027 A 
HETATM   12  C   UNL     1      43.118 -13.606   4.275  1.00  0.00     0.031 A 
HETATM   13  C   UNL     1      43.183 -15.465   1.529  1.00  0.00     0.051 C 
HETATM   14  C   UNL     1      43.211 -17.174   3.434  1.00  0.00     0.012 A 
HETATM   15  C   UNL     1      43.218 -18.468   2.705  1.00  0.00     0.068 C 
HETATM   16  H   UNL     1      43.232 -17.923   5.420  1.00  0.00     0.166 HD
ENDBRANCH   1   5
BRANCH   2  17
HETATM   17  C   UNL     1      42.866  -9.770   7.468  1.00  0.00     0.147 C 
HETATM   18  C   UNL     1      41.423  -9.183   7.501  1.00  0.00     0.149 C 
HETATM   19  C   UNL     1      40.911  -9.346   8.947  1.00  0.00     0.073 C 
HETATM   20  C   UNL     1      42.191  -9.331   9.728  1.00  0.00    -0.047 A 
HETATM   21  C   UNL     1      43.292  -9.573   8.898  1.00  0.00    -0.027 A 
HETATM   22  C   UNL     1      42.353  -9.158  11.093  1.00  0.00     0.008 A 
HETATM   23  C   UNL     1      44.577  -9.647   9.416  1.00  0.00     0.010 A 
HETATM   24  C   UNL     1      44.749  -9.463  10.788  1.00  0.00     0.001 A 
HETATM   25  C   UNL     1      43.646  -9.221  11.621  1.00  0.00     0.001 A 
BRANCH  18  26
HETATM   26  O   UNL     1      41.422  -7.786   7.157  1.00  0.00    -0.393 OA
HETATM   27  H   UNL     1      42.231  -7.609   6.645  1.00  0.00     0.210 HD
ENDBRANCH  18  26
ENDBRANCH   2  17
TORSDOF 3
ENDMDL
MODEL 10
REMARK VINA RESULT:      -7.9      3.407      5.106
REMARK  3 active torsions:
REMARK  status: ('A' for Active; 'I' for Inactive)
REMARK    1  A    between atoms: C_7  and  C_8 
REMARK       I    between atoms: C_8  and  N_9 
REMARK    2  A    between atoms: N_9  and  C_10 
REMARK    3  A    between atoms: C_11  and  O_12 
ROOT
HETATM    1  C   UNL     1      42.529 -13.271   2.748  1.00  0.00     0.252 C 
HETATM    2  N   UNL     1      41.554 -12.877   1.860  1.00  0.00    -0.346 N 
HETATM    3  O   UNL     1      43.145 -12.472   3.445  1.00  0.00    -0.268 OA
HETATM    4  H   UNL     1      41.178 -13.525   1.185  1.00  0.00     0.163 HD
ENDROOT
BRANCH   1   5
HETATM    5  C   UNL     1      42.825 -14.732   2.839  1.00  0.00     0.033 A 
HETATM    6  C   UNL     1      42.932 -15.452   1.643  1.00  0.00     0.019 A 
HETATM    7  C   UNL     1      43.250 -16.814   1.637  1.00  0.00     0.031 A 
HETATM    8  C   UNL     1      43.463 -17.433   2.873  1.00  0.00     0.043 A 
HETATM    9  C   UNL     1      43.366 -16.756   4.087  1.00  0.00    -0.001 A 
HETATM   10  N   UNL     1      43.801 -18.734   3.160  1.00  0.00    -0.359 N 
HETATM   11  C   UNL     1      43.645 -17.701   5.128  1.00  0.00    -0.027 A 
HETATM   12  C   UNL     1      43.047 -15.379   4.068  1.00  0.00     0.031 A 
HETATM   13  C   UNL     1      43.647 -17.443   6.594  1.00  0.00     0.051 C 
HETATM   14  C   UNL     1      43.919 -18.913   4.516  1.00  0.00     0.012 A 
HETATM   15  C   UNL     1      44.292 -20.228   5.098  1.00  0.00     0.068 C 
HETATM   16  H   UNL     1      43.950 -19.450   2.463  1.00  0.00     0.166 HD
ENDBRANCH   1   5
BRANCH   2  17
HETATM   17  C   UNL     1      41.166 -11.485   1.743  1.00  0.00     0.147 C 
HETATM   18  C   UNL     1      41.852 -10.743   0.557  1.00  0.00     0.149 C 
HETATM   19  C   UNL     1      40.922 -10.901  -0.663  1.00  0.00     0.073 C 
HETATM   20  C   UNL     1      39.582 -11.058  -0.008  1.00  0.00    -0.047 A 
HETATM   21  C   UNL     1      39.717 -11.391   1.345  1.00  0.00    -0.027 A 
HETATM   22  C   UNL     1      38.331 -10.956  -0.593  1.00  0.00     0.008 A 
HETATM   23  C   UNL     1      38.605 -11.627   2.140  1.00  0.00     0.010 A 
HETATM   24  C   UNL     1      37.341 -11.514   1.559  1.00  0.00     0.001 A 
HETATM   25  C   UNL     1      37.205 -11.181   0.203  1.00  0.00     0.001 A 
BRANCH  18  26
HETATM   26  O   UNL     1      42.014  -9.343   0.845  1.00  0.00    -0.393 OA
HETATM   27  H   UNL     1      41.985  -8.863  -0.002  1.00  0.00     0.210 HD
ENDBRANCH  18  26
ENDBRANCH   2  17
TORSDOF 3
ENDMDL
