MODEL 1
REMARK VINA RESULT:      -9.3      0.000      0.000
REMARK  8 active torsions:
REMARK  status: ('A' for Active; 'I' for Inactive)
REMARK    1  A    between atoms: C_4  and  S_5 
REMARK    2  A    between atoms: S_5  and  C_6 
REMARK    3  A    between atoms: C_6  and  C_7 
REMARK       I    between atoms: C_7  and  N_8 
REMARK    4  A    between atoms: N_8  and  C_9 
REMARK    5  A    between atoms: C_20  and  C_21 
REMARK    6  A    between atoms: C_27  and  C_28 
REMARK       I    between atoms: C_28  and  N_29 
REMARK    7  A    between atoms: N_29  and  C_30 
REMARK    8  A    between atoms: C_31  and  O_32 
ROOT
HETATM    1  C   UNL     1      44.065 -14.364   6.502  1.00  0.00     0.069 C 
HETATM    2  C   UNL     1      42.838 -13.593   6.077  1.00  0.00     0.019 C 
HETATM    3  N   UNL     1      42.777 -12.280   6.516  1.00  0.00    -0.353 N 
HETATM    4  C   UNL     1      41.674 -11.455   6.417  1.00  0.00     0.087 C 
HETATM    5  C   UNL     1      40.612 -11.882   5.694  1.00  0.00     0.055 C 
HETATM    6  C   UNL     1      39.293 -11.128   5.668  1.00  0.00     0.019 C 
HETATM    7  N   UNL     1      38.199 -10.503   5.647  1.00  0.00    -0.096 N 
HETATM    8  C   UNL     1      40.717 -13.149   4.845  1.00  0.00     0.104 C 
HETATM    9  C   UNL     1      41.852 -14.079   5.279  1.00  0.00     0.046 C 
HETATM   10  H   UNL     1      43.531 -11.935   7.104  1.00  0.00     0.166 HD
ENDROOT
BRANCH   4  11
HETATM   11  S   UNL     1      41.769  -9.833   7.058  1.00  0.00    -0.102 SA
BRANCH  11  12
HETATM   12  C   UNL     1      43.451  -9.736   7.746  1.00  0.00     0.184 C 
BRANCH  12  13
HETATM   13  C   UNL     1      43.451  -9.903   9.272  1.00  0.00     0.231 C 
HETATM   14  N   UNL     1      42.533  -9.107   9.936  1.00  0.00    -0.326 N 
HETATM   15  H   UNL     1      42.018  -8.465   9.341  1.00  0.00     0.169 HD
HETATM   16  O   UNL     1      44.198 -10.725   9.798  1.00  0.00    -0.272 OA
BRANCH  14  17
HETATM   17  C   UNL     1      42.295  -8.996  11.318  1.00  0.00     0.036 A 
HETATM   18  C   UNL     1      42.964  -8.110  12.162  1.00  0.00     0.053 A 
HETATM   19  C   UNL     1      42.645  -8.070  13.522  1.00  0.00     0.036 A 
HETATM   20 CL   UNL     1      43.474  -6.977  14.564  1.00  0.00    -0.084 Cl
HETATM   21  C   UNL     1      41.659  -8.901  14.052  1.00  0.00     0.024 A 
HETATM   22  C   UNL     1      40.989  -9.789  13.216  1.00  0.00     0.004 A 
HETATM   23  C   UNL     1      41.309  -9.836  11.857  1.00  0.00     0.029 A 
ENDBRANCH  14  17
ENDBRANCH  12  13
ENDBRANCH  11  12
ENDBRANCH   4  11
BRANCH   8  24
HETATM   24  C   UNL     1      40.849 -12.718   3.373  1.00  0.00    -0.044 A 
HETATM   25  C   UNL     1      41.779 -11.735   2.979  1.00  0.00     0.008 A 
HETATM   26  C   UNL     1      41.847 -11.301   1.656  1.00  0.00     0.001 A 
HETATM   27  C   UNL     1      40.981 -11.830   0.704  1.00  0.00     0.000 A 
HETATM   28  C   UNL     1      40.045 -12.794   1.078  1.00  0.00     0.001 A 
HETATM   29  C   UNL     1      39.977 -13.237   2.402  1.00  0.00     0.008 A 
ENDBRANCH   8  24
BRANCH   9  30
HETATM   30  C   UNL     1      41.859 -15.524   4.853  1.00  0.00     0.255 C 
HETATM   31  N   UNL     1      42.937 -15.922   4.091  1.00  0.00    -0.321 N 
HETATM   32  H   UNL     1      43.490 -15.233   3.607  1.00  0.00     0.169 HD
HETATM   33  O   UNL     1      40.885 -16.237   5.087  1.00  0.00    -0.268 OA
BRANCH  31  34
HETATM   34  C   UNL     1      43.218 -17.267   3.752  1.00  0.00     0.068 A 
HETATM   35  C   UNL     1      43.812 -18.183   4.645  1.00  0.00     0.095 A 
HETATM   36  C   UNL     1      44.013 -19.504   4.227  1.00  0.00     0.039 A 
HETATM   37  C   UNL     1      43.664 -19.901   2.933  1.00  0.00     0.003 A 
HETATM   38  C   UNL     1      43.139 -18.978   2.035  1.00  0.00     0.002 A 
HETATM   39  C   UNL     1      42.932 -17.658   2.438  1.00  0.00     0.032 A 
BRANCH  35  40
HETATM   40  O   UNL     1      44.268 -17.681   5.837  1.00  0.00    -0.354 OA
HETATM   41  C   UNL     1      43.513 -17.957   7.006  1.00  0.00     0.210 C 
ENDBRANCH  35  40
ENDBRANCH  31  34
ENDBRANCH   9  30
TORSDOF 8
ENDMDL
MODEL 2
REMARK VINA RESULT:      -9.2      4.174      5.819
REMARK  8 active torsions:
REMARK  status: ('A' for Active; 'I' for Inactive)
REMARK    1  A    between atoms: C_4  and  S_5 
REMARK    2  A    between atoms: S_5  and  C_6 
REMARK    3  A    between atoms: C_6  and  C_7 
REMARK       I    between atoms: C_7  and  N_8 
REMARK    4  A    between atoms: N_8  and  C_9 
REMARK    5  A    between atoms: C_20  and  C_21 
REMARK    6  A    between atoms: C_27  and  C_28 
REMARK       I    between atoms: C_28  and  N_29 
REMARK    7  A    between atoms: N_29  and  C_30 
REMARK    8  A    between atoms: C_31  and  O_32 
ROOT
HETATM    1  C   UNL     1      39.830 -16.100   0.960  1.00  0.00     0.069 C 
HETATM    2  C   UNL     1      40.309 -14.669   1.030  1.00  0.00     0.019 C 
HETATM    3  N   UNL     1      39.397 -13.714   0.611  1.00  0.00    -0.353 N 
HETATM    4  C   UNL     1      39.678 -12.378   0.404  1.00  0.00     0.087 C 
HETATM    5  C   UNL     1      40.886 -11.906   0.790  1.00  0.00     0.055 C 
HETATM    6  C   UNL     1      41.353 -10.500   0.451  1.00  0.00     0.019 C 
HETATM    7  N   UNL     1      41.741  -9.334   0.170  1.00  0.00    -0.096 N 
HETATM    8  C   UNL     1      41.828 -12.782   1.615  1.00  0.00     0.104 C 
HETATM    9  C   UNL     1      41.518 -14.276   1.508  1.00  0.00     0.046 C 
HETATM   10  H   UNL     1      38.494 -14.031   0.265  1.00  0.00     0.166 HD
ENDROOT
BRANCH   4  11
HETATM   11  S   UNL     1      38.406 -11.322  -0.161  1.00  0.00    -0.102 SA
BRANCH  11  12
HETATM   12  C   UNL     1      37.403 -11.016   1.327  1.00  0.00     0.184 C 
BRANCH  12  13
HETATM   13  C   UNL     1      37.902  -9.791   2.106  1.00  0.00     0.231 C 
HETATM   14  N   UNL     1      38.795 -10.083   3.123  1.00  0.00    -0.326 N 
HETATM   15  H   UNL     1      38.963 -11.073   3.270  1.00  0.00     0.169 HD
HETATM   16  O   UNL     1      37.535  -8.665   1.777  1.00  0.00    -0.272 OA
BRANCH  14  17
HETATM   17  C   UNL     1      39.415  -9.207   4.034  1.00  0.00     0.036 A 
HETATM   18  C   UNL     1      39.015  -9.041   5.359  1.00  0.00     0.053 A 
HETATM   19  C   UNL     1      39.706  -8.152   6.188  1.00  0.00     0.036 A 
HETATM   20 CL   UNL     1      39.209  -7.946   7.824  1.00  0.00    -0.084 Cl
HETATM   21  C   UNL     1      40.798  -7.429   5.711  1.00  0.00     0.024 A 
HETATM   22  C   UNL     1      41.201  -7.589   4.389  1.00  0.00     0.004 A 
HETATM   23  C   UNL     1      40.510  -8.472   3.555  1.00  0.00     0.029 A 
ENDBRANCH  14  17
ENDBRANCH  12  13
ENDBRANCH  11  12
ENDBRANCH   4  11
BRANCH   8  24
HETATM   24  C   UNL     1      41.780 -12.282   3.070  1.00  0.00    -0.044 A 
HETATM   25  C   UNL     1      42.769 -11.415   3.578  1.00  0.00     0.008 A 
HETATM   26  C   UNL     1      42.759 -11.020   4.915  1.00  0.00     0.001 A 
HETATM   27  C   UNL     1      41.769 -11.490   5.773  1.00  0.00     0.000 A 
HETATM   28  C   UNL     1      40.790 -12.358   5.292  1.00  0.00     0.001 A 
HETATM   29  C   UNL     1      40.793 -12.754   3.951  1.00  0.00     0.008 A 
ENDBRANCH   8  24
BRANCH   9  30
HETATM   30  C   UNL     1      42.552 -15.300   1.898  1.00  0.00     0.255 C 
HETATM   31  N   UNL     1      42.157 -16.227   2.839  1.00  0.00    -0.321 N 
HETATM   32  H   UNL     1      41.367 -16.033   3.432  1.00  0.00     0.169 HD
HETATM   33  O   UNL     1      43.701 -15.203   1.471  1.00  0.00    -0.268 OA
BRANCH  31  34
HETATM   34  C   UNL     1      42.913 -17.369   3.197  1.00  0.00     0.068 A 
HETATM   35  C   UNL     1      43.694 -17.445   4.369  1.00  0.00     0.095 A 
HETATM   36  C   UNL     1      44.375 -18.635   4.654  1.00  0.00     0.039 A 
HETATM   37  C   UNL     1      44.312 -19.719   3.774  1.00  0.00     0.003 A 
HETATM   38  C   UNL     1      43.592 -19.616   2.588  1.00  0.00     0.002 A 
HETATM   39  C   UNL     1      42.908 -18.437   2.291  1.00  0.00     0.032 A 
BRANCH  35  40
HETATM   40  O   UNL     1      43.832 -16.291   5.098  1.00  0.00    -0.354 OA
HETATM   41  C   UNL     1      44.439 -16.383   6.377  1.00  0.00     0.210 C 
ENDBRANCH  35  40
ENDBRANCH  31  34
ENDBRANCH   9  30
TORSDOF 8
ENDMDL
MODEL 3
REMARK VINA RESULT:      -9.0      3.862      9.567
REMARK  8 active torsions:
REMARK  status: ('A' for Active; 'I' for Inactive)
REMARK    1  A    between atoms: C_4  and  S_5 
REMARK    2  A    between atoms: S_5  and  C_6 
REMARK    3  A    between atoms: C_6  and  C_7 
REMARK       I    between atoms: C_7  and  N_8 
REMARK    4  A    between atoms: N_8  and  C_9 
REMARK    5  A    between atoms: C_20  and  C_21 
REMARK    6  A    between atoms: C_27  and  C_28 
REMARK       I    between atoms: C_28  and  N_29 
REMARK    7  A    between atoms: N_29  and  C_30 
REMARK    8  A    between atoms: C_31  and  O_32 
ROOT
HETATM    1  C   UNL     1      39.330  -8.869   4.631  1.00  0.00     0.069 C 
HETATM    2  C   UNL     1      39.935 -10.196   5.021  1.00  0.00     0.019 C 
HETATM    3  N   UNL     1      39.824 -11.202   4.074  1.00  0.00    -0.353 N 
HETATM    4  C   UNL     1      40.124 -12.534   4.286  1.00  0.00     0.087 C 
HETATM    5  C   UNL     1      40.730 -12.883   5.445  1.00  0.00     0.055 C 
HETATM    6  C   UNL     1      40.943 -14.334   5.843  1.00  0.00     0.019 C 
HETATM    7  N   UNL     1      41.120 -15.537   6.175  1.00  0.00    -0.096 N 
HETATM    8  C   UNL     1      41.249 -11.806   6.397  1.00  0.00     0.104 C 
HETATM    9  C   UNL     1      40.599 -10.438   6.181  1.00  0.00     0.046 C 
HETATM   10  H   UNL     1      39.331 -10.996   3.209  1.00  0.00     0.166 HD
ENDROOT
BRANCH   4  11
HETATM   11  S   UNL     1      39.890 -13.673   2.981  1.00  0.00    -0.102 SA
BRANCH  11  12
HETATM   12  C   UNL     1      41.348 -13.423   1.921  1.00  0.00     0.184 C 
BRANCH  12  13
HETATM   13  C   UNL     1      42.467 -14.421   2.251  1.00  0.00     0.231 C 
HETATM   14  N   UNL     1      42.023 -15.680   2.618  1.00  0.00    -0.326 N 
HETATM   15  H   UNL     1      41.014 -15.772   2.686  1.00  0.00     0.169 HD
HETATM   16  O   UNL     1      43.643 -14.082   2.137  1.00  0.00    -0.272 OA
BRANCH  14  17
HETATM   17  C   UNL     1      42.774 -16.805   3.004  1.00  0.00     0.036 A 
HETATM   18  C   UNL     1      42.865 -17.981   2.261  1.00  0.00     0.053 A 
HETATM   19  C   UNL     1      43.650 -19.040   2.727  1.00  0.00     0.036 A 
HETATM   20 CL   UNL     1      43.759 -20.493   1.809  1.00  0.00    -0.084 Cl
HETATM   21  C   UNL     1      44.349 -18.939   3.928  1.00  0.00     0.024 A 
HETATM   22  C   UNL     1      44.261 -17.769   4.677  1.00  0.00     0.004 A 
HETATM   23  C   UNL     1      43.474 -16.710   4.217  1.00  0.00     0.029 A 
ENDBRANCH  14  17
ENDBRANCH  12  13
ENDBRANCH  11  12
ENDBRANCH   4  11
BRANCH   8  24
HETATM   24  C   UNL     1      42.780 -11.750   6.252  1.00  0.00    -0.044 A 
HETATM   25  C   UNL     1      43.621 -11.708   7.383  1.00  0.00     0.008 A 
HETATM   26  C   UNL     1      45.003 -11.589   7.245  1.00  0.00     0.001 A 
HETATM   27  C   UNL     1      45.572 -11.499   5.979  1.00  0.00     0.000 A 
HETATM   28  C   UNL     1      44.756 -11.526   4.849  1.00  0.00     0.001 A 
HETATM   29  C   UNL     1      43.370 -11.651   4.981  1.00  0.00     0.008 A 
ENDBRANCH   8  24
BRANCH   9  30
HETATM   30  C   UNL     1      40.665  -9.384   7.254  1.00  0.00     0.255 C 
HETATM   31  N   UNL     1      40.006  -9.680   8.430  1.00  0.00    -0.321 N 
HETATM   32  H   UNL     1      39.290 -10.388   8.438  1.00  0.00     0.169 HD
HETATM   33  O   UNL     1      41.179  -8.294   7.013  1.00  0.00    -0.268 OA
BRANCH  31  34
HETATM   34  C   UNL     1      40.104  -8.908   9.612  1.00  0.00     0.068 A 
HETATM   35  C   UNL     1      41.289  -8.796  10.368  1.00  0.00     0.095 A 
HETATM   36  C   UNL     1      41.295  -7.975  11.502  1.00  0.00     0.039 A 
HETATM   37  C   UNL     1      40.135  -7.305  11.901  1.00  0.00     0.003 A 
HETATM   38  C   UNL     1      38.952  -7.471  11.190  1.00  0.00     0.002 A 
HETATM   39  C   UNL     1      38.931  -8.284  10.057  1.00  0.00     0.032 A 
BRANCH  35  40
HETATM   40  O   UNL     1      42.336  -9.604  10.003  1.00  0.00    -0.354 OA
HETATM   41  C   UNL     1      43.067 -10.249  11.035  1.00  0.00     0.210 C 
ENDBRANCH  35  40
ENDBRANCH  31  34
ENDBRANCH   9  30
TORSDOF 8
ENDMDL
MODEL 4
REMARK VINA RESULT:      -9.0      3.121      5.722
REMARK  8 active torsions:
REMARK  status: ('A' for Active; 'I' for Inactive)
REMARK    1  A    between atoms: C_4  and  S_5 
REMARK    2  A    between atoms: S_5  and  C_6 
REMARK    3  A    between atoms: C_6  and  C_7 
REMARK       I    between atoms: C_7  and  N_8 
REMARK    4  A    between atoms: N_8  and  C_9 
REMARK    5  A    between atoms: C_20  and  C_21 
REMARK    6  A    between atoms: C_27  and  C_28 
REMARK       I    between atoms: C_28  and  N_29 
REMARK    7  A    between atoms: N_29  and  C_30 
REMARK    8  A    between atoms: C_31  and  O_32 
ROOT
HETATM    1  C   UNL     1      38.314 -10.644   2.572  1.00  0.00     0.069 C 
HETATM    2  C   UNL     1      39.678 -11.055   3.074  1.00  0.00     0.019 C 
HETATM    3  N   UNL     1      39.948 -10.734   4.395  1.00  0.00    -0.353 N 
HETATM    4  C   UNL     1      41.184 -10.834   5.004  1.00  0.00     0.087 C 
HETATM    5  C   UNL     1      42.187 -11.443   4.330  1.00  0.00     0.055 C 
HETATM    6  C   UNL     1      43.619 -11.450   4.841  1.00  0.00     0.019 C 
HETATM    7  N   UNL     1      44.806 -11.455   5.264  1.00  0.00    -0.096 N 
HETATM    8  C   UNL     1      41.902 -12.178   3.022  1.00  0.00     0.104 C 
HETATM    9  C   UNL     1      40.600 -11.738   2.349  1.00  0.00     0.046 C 
HETATM   10  H   UNL     1      39.239 -10.231   4.921  1.00  0.00     0.166 HD
ENDROOT
BRANCH   4  11
HETATM   11  S   UNL     1      41.346 -10.350   6.675  1.00  0.00    -0.102 SA
BRANCH  11  12
HETATM   12  C   UNL     1      39.667  -9.823   7.139  1.00  0.00     0.184 C 
BRANCH  12  13
HETATM   13  C   UNL     1      39.623  -9.261   8.567  1.00  0.00     0.231 C 
HETATM   14  N   UNL     1      40.513  -9.856   9.444  1.00  0.00    -0.326 N 
HETATM   15  H   UNL     1      41.040 -10.631   9.056  1.00  0.00     0.169 HD
HETATM   16  O   UNL     1      38.868  -8.329   8.835  1.00  0.00    -0.272 OA
BRANCH  14  17
HETATM   17  C   UNL     1      40.709  -9.599  10.814  1.00  0.00     0.036 A 
HETATM   18  C   UNL     1      41.775  -8.864  11.330  1.00  0.00     0.053 A 
HETATM   19  C   UNL     1      41.873  -8.656  12.710  1.00  0.00     0.036 A 
HETATM   20 CL   UNL     1      43.192  -7.749  13.346  1.00  0.00    -0.084 Cl
HETATM   21  C   UNL     1      40.916  -9.170  13.582  1.00  0.00     0.024 A 
HETATM   22  C   UNL     1      39.850  -9.906  13.074  1.00  0.00     0.004 A 
HETATM   23  C   UNL     1      39.751 -10.121  11.696  1.00  0.00     0.029 A 
ENDBRANCH  14  17
ENDBRANCH  12  13
ENDBRANCH  11  12
ENDBRANCH   4  11
BRANCH   8  24
HETATM   24  C   UNL     1      41.921 -13.689   3.318  1.00  0.00    -0.044 A 
HETATM   25  C   UNL     1      42.945 -14.519   2.818  1.00  0.00     0.008 A 
HETATM   26  C   UNL     1      42.920 -15.897   3.032  1.00  0.00     0.001 A 
HETATM   27  C   UNL     1      41.869 -16.473   3.738  1.00  0.00     0.000 A 
HETATM   28  C   UNL     1      40.841 -15.669   4.229  1.00  0.00     0.001 A 
HETATM   29  C   UNL     1      40.863 -14.287   4.022  1.00  0.00     0.008 A 
ENDBRANCH   8  24
BRANCH   9  30
HETATM   30  C   UNL     1      40.359 -12.030   0.891  1.00  0.00     0.255 C 
HETATM   31  N   UNL     1      39.481 -13.059   0.620  1.00  0.00    -0.321 N 
HETATM   32  H   UNL     1      39.279 -13.745   1.329  1.00  0.00     0.169 HD
HETATM   33  O   UNL     1      41.017 -11.448   0.031  1.00  0.00    -0.268 OA
BRANCH  31  34
HETATM   34  C   UNL     1      38.986 -13.364  -0.670  1.00  0.00     0.068 A 
HETATM   35  C   UNL     1      38.019 -12.580  -1.334  1.00  0.00     0.095 A 
HETATM   36  C   UNL     1      37.623 -12.943  -2.627  1.00  0.00     0.039 A 
HETATM   37  C   UNL     1      38.149 -14.085  -3.237  1.00  0.00     0.003 A 
HETATM   38  C   UNL     1      39.053 -14.890  -2.553  1.00  0.00     0.002 A 
HETATM   39  C   UNL     1      39.458 -14.541  -1.265  1.00  0.00     0.032 A 
BRANCH  35  40
HETATM   40  O   UNL     1      37.438 -11.570  -0.611  1.00  0.00    -0.354 OA
HETATM   41  C   UNL     1      37.579 -10.242  -1.093  1.00  0.00     0.210 C 
ENDBRANCH  35  40
ENDBRANCH  31  34
ENDBRANCH   9  30
TORSDOF 8
ENDMDL
MODEL 5
REMARK VINA RESULT:      -8.8      3.341      8.799
REMARK  8 active torsions:
REMARK  status: ('A' for Active; 'I' for Inactive)
REMARK    1  A    between atoms: C_4  and  S_5 
REMARK    2  A    between atoms: S_5  and  C_6 
REMARK    3  A    between atoms: C_6  and  C_7 
REMARK       I    between atoms: C_7  and  N_8 
REMARK    4  A    between atoms: N_8  and  C_9 
REMARK    5  A    between atoms: C_20  and  C_21 
REMARK    6  A    between atoms: C_27  and  C_28 
REMARK       I    between atoms: C_28  and  N_29 
REMARK    7  A    between atoms: N_29  and  C_30 
REMARK    8  A    between atoms: C_31  and  O_32 
ROOT
HETATM    1  C   UNL     1      42.223 -13.805   6.434  1.00  0.00     0.069 C 
HETATM    2  C   UNL     1      41.961 -12.871   5.277  1.00  0.00     0.019 C 
HETATM    3  N   UNL     1      41.227 -13.408   4.232  1.00  0.00    -0.353 N 
HETATM    4  C   UNL     1      41.035 -12.811   3.001  1.00  0.00     0.087 C 
HETATM    5  C   UNL     1      41.447 -11.533   2.833  1.00  0.00     0.055 C 
HETATM    6  C   UNL     1      41.439 -10.851   1.474  1.00  0.00     0.019 C 
HETATM    7  N   UNL     1      41.432 -10.285   0.348  1.00  0.00    -0.096 N 
HETATM    8  C   UNL     1      41.921 -10.713   4.031  1.00  0.00     0.104 C 
HETATM    9  C   UNL     1      42.346 -11.569   5.225  1.00  0.00     0.046 C 
HETATM   10  H   UNL     1      40.941 -14.382   4.297  1.00  0.00     0.166 HD
ENDROOT
BRANCH   4  11
HETATM   11  S   UNL     1      40.105 -13.655   1.787  1.00  0.00    -0.102 SA
BRANCH  11  12
HETATM   12  C   UNL     1      41.367 -14.486   0.773  1.00  0.00     0.184 C 
BRANCH  12  13
HETATM   13  C   UNL     1      42.428 -15.177   1.640  1.00  0.00     0.231 C 
HETATM   14  N   UNL     1      41.984 -16.314   2.292  1.00  0.00    -0.326 N 
HETATM   15  H   UNL     1      40.997 -16.518   2.168  1.00  0.00     0.169 HD
HETATM   16  O   UNL     1      43.573 -14.732   1.677  1.00  0.00    -0.272 OA
BRANCH  14  17
HETATM   17  C   UNL     1      42.683 -17.158   3.175  1.00  0.00     0.036 A 
HETATM   18  C   UNL     1      42.735 -16.980   4.556  1.00  0.00     0.053 A 
HETATM   19  C   UNL     1      43.451 -17.883   5.348  1.00  0.00     0.036 A 
HETATM   20 CL   UNL     1      43.516 -17.660   7.055  1.00  0.00    -0.084 Cl
HETATM   21  C   UNL     1      44.113 -18.969   4.777  1.00  0.00     0.024 A 
HETATM   22  C   UNL     1      44.067 -19.151   3.398  1.00  0.00     0.004 A 
HETATM   23  C   UNL     1      43.358 -18.248   2.603  1.00  0.00     0.029 A 
ENDBRANCH  14  17
ENDBRANCH  12  13
ENDBRANCH  11  12
ENDBRANCH   4  11
BRANCH   8  24
HETATM   24  C   UNL     1      40.799  -9.724   4.396  1.00  0.00    -0.044 A 
HETATM   25  C   UNL     1      39.502 -10.174   4.715  1.00  0.00     0.008 A 
HETATM   26  C   UNL     1      38.473  -9.270   4.979  1.00  0.00     0.001 A 
HETATM   27  C   UNL     1      38.716  -7.902   4.917  1.00  0.00     0.000 A 
HETATM   28  C   UNL     1      39.989  -7.438   4.590  1.00  0.00     0.001 A 
HETATM   29  C   UNL     1      41.025  -8.339   4.331  1.00  0.00     0.008 A 
ENDBRANCH   8  24
BRANCH   9  30
HETATM   30  C   UNL     1      43.210 -10.986   6.313  1.00  0.00     0.255 C 
HETATM   31  N   UNL     1      42.544 -10.289   7.301  1.00  0.00    -0.321 N 
HETATM   32  H   UNL     1      41.616  -9.939   7.128  1.00  0.00     0.169 HD
HETATM   33  O   UNL     1      44.434 -11.046   6.223  1.00  0.00    -0.268 OA
BRANCH  31  34
HETATM   34  C   UNL     1      43.150  -9.829   8.494  1.00  0.00     0.068 A 
HETATM   35  C   UNL     1      43.383  -8.465   8.768  1.00  0.00     0.095 A 
HETATM   36  C   UNL     1      43.953  -8.108   9.996  1.00  0.00     0.039 A 
HETATM   37  C   UNL     1      44.318  -9.088  10.923  1.00  0.00     0.003 A 
HETATM   38  C   UNL     1      44.145 -10.435  10.621  1.00  0.00     0.002 A 
HETATM   39  C   UNL     1      43.578 -10.806   9.402  1.00  0.00     0.032 A 
BRANCH  35  40
HETATM   40  O   UNL     1      43.144  -7.578   7.749  1.00  0.00    -0.354 OA
HETATM   41  C   UNL     1      42.047  -6.689   7.888  1.00  0.00     0.210 C 
ENDBRANCH  35  40
ENDBRANCH  31  34
ENDBRANCH   9  30
TORSDOF 8
ENDMDL
MODEL 6
REMARK VINA RESULT:      -8.7      1.653      2.338
REMARK  8 active torsions:
REMARK  status: ('A' for Active; 'I' for Inactive)
REMARK    1  A    between atoms: C_4  and  S_5 
REMARK    2  A    between atoms: S_5  and  C_6 
REMARK    3  A    between atoms: C_6  and  C_7 
REMARK       I    between atoms: C_7  and  N_8 
REMARK    4  A    between atoms: N_8  and  C_9 
REMARK    5  A    between atoms: C_20  and  C_21 
REMARK    6  A    between atoms: C_27  and  C_28 
REMARK       I    between atoms: C_28  and  N_29 
REMARK    7  A    between atoms: N_29  and  C_30 
REMARK    8  A    between atoms: C_31  and  O_32 
ROOT
HETATM    1  C   UNL     1      43.925 -13.403   6.765  1.00  0.00     0.069 C 
HETATM    2  C   UNL     1      42.696 -12.655   6.307  1.00  0.00     0.019 C 
HETATM    3  N   UNL     1      42.597 -11.345   6.747  1.00  0.00    -0.353 N 
HETATM    4  C   UNL     1      41.481 -10.541   6.618  1.00  0.00     0.087 C 
HETATM    5  C   UNL     1      40.449 -10.987   5.864  1.00  0.00     0.055 C 
HETATM    6  C   UNL     1      39.116 -10.258   5.803  1.00  0.00     0.019 C 
HETATM    7  N   UNL     1      38.011  -9.654   5.751  1.00  0.00    -0.096 N 
HETATM    8  C   UNL     1      40.603 -12.248   5.016  1.00  0.00     0.104 C 
HETATM    9  C   UNL     1      41.743 -13.157   5.480  1.00  0.00     0.046 C 
HETATM   10  H   UNL     1      43.327 -10.987   7.358  1.00  0.00     0.166 HD
ENDROOT
BRANCH   4  11
HETATM   11  S   UNL     1      41.525  -8.919   7.266  1.00  0.00    -0.102 SA
BRANCH  11  12
HETATM   12  C   UNL     1      43.253  -8.713   7.801  1.00  0.00     0.184 C 
BRANCH  12  13
HETATM   13  C   UNL     1      43.366  -7.761   9.000  1.00  0.00     0.231 C 
HETATM   14  N   UNL     1      42.702  -8.189  10.136  1.00  0.00    -0.326 N 
HETATM   15  H   UNL     1      42.170  -9.046  10.021  1.00  0.00     0.169 HD
HETATM   16  O   UNL     1      44.042  -6.738   8.908  1.00  0.00    -0.272 OA
BRANCH  14  17
HETATM   17  C   UNL     1      42.584  -7.550  11.385  1.00  0.00     0.036 A 
HETATM   18  C   UNL     1      41.811  -6.413  11.615  1.00  0.00     0.053 A 
HETATM   19  C   UNL     1      41.751  -5.860  12.898  1.00  0.00     0.036 A 
HETATM   20 CL   UNL     1      40.797  -4.454  13.180  1.00  0.00    -0.084 Cl
HETATM   21  C   UNL     1      42.451  -6.433  13.958  1.00  0.00     0.024 A 
HETATM   22  C   UNL     1      43.226  -7.567  13.735  1.00  0.00     0.004 A 
HETATM   23  C   UNL     1      43.293  -8.120  12.453  1.00  0.00     0.029 A 
ENDBRANCH  14  17
ENDBRANCH  12  13
ENDBRANCH  11  12
ENDBRANCH   4  11
BRANCH   8  24
HETATM   24  C   UNL     1      40.769 -11.811   3.550  1.00  0.00    -0.044 A 
HETATM   25  C   UNL     1      39.919 -12.304   2.539  1.00  0.00     0.008 A 
HETATM   26  C   UNL     1      40.117 -11.957   1.203  1.00  0.00     0.001 A 
HETATM   27  C   UNL     1      41.171 -11.122   0.849  1.00  0.00     0.000 A 
HETATM   28  C   UNL     1      42.030 -10.635   1.833  1.00  0.00     0.001 A 
HETATM   29  C   UNL     1      41.833 -10.975   3.175  1.00  0.00     0.008 A 
ENDBRANCH   8  24
BRANCH   9  30
HETATM   30  C   UNL     1      41.790 -14.600   5.051  1.00  0.00     0.255 C 
HETATM   31  N   UNL     1      42.768 -14.925   4.135  1.00  0.00    -0.321 N 
HETATM   32  H   UNL     1      43.191 -14.201   3.576  1.00  0.00     0.169 HD
HETATM   33  O   UNL     1      40.915 -15.380   5.424  1.00  0.00    -0.268 OA
BRANCH  31  34
HETATM   34  C   UNL     1      43.091 -16.248   3.751  1.00  0.00     0.068 A 
HETATM   35  C   UNL     1      42.711 -16.811   2.514  1.00  0.00     0.095 A 
HETATM   36  C   UNL     1      43.114 -18.117   2.212  1.00  0.00     0.039 A 
HETATM   37  C   UNL     1      43.850 -18.866   3.134  1.00  0.00     0.003 A 
HETATM   38  C   UNL     1      44.167 -18.329   4.377  1.00  0.00     0.002 A 
HETATM   39  C   UNL     1      43.774 -17.029   4.693  1.00  0.00     0.032 A 
BRANCH  35  40
HETATM   40  O   UNL     1      41.859 -16.073   1.733  1.00  0.00    -0.354 OA
HETATM   41  C   UNL     1      40.464 -16.232   1.939  1.00  0.00     0.210 C 
ENDBRANCH  35  40
ENDBRANCH  31  34
ENDBRANCH   9  30
TORSDOF 8
ENDMDL
MODEL 7
REMARK VINA RESULT:      -8.6      2.471      5.259
REMARK  8 active torsions:
REMARK  status: ('A' for Active; 'I' for Inactive)
REMARK    1  A    between atoms: C_4  and  S_5 
REMARK    2  A    between atoms: S_5  and  C_6 
REMARK    3  A    between atoms: C_6  and  C_7 
REMARK       I    between atoms: C_7  and  N_8 
REMARK    4  A    between atoms: N_8  and  C_9 
REMARK    5  A    between atoms: C_20  and  C_21 
REMARK    6  A    between atoms: C_27  and  C_28 
REMARK       I    between atoms: C_28  and  N_29 
REMARK    7  A    between atoms: N_29  and  C_30 
REMARK    8  A    between atoms: C_31  and  O_32 
ROOT
HETATM    1  C   UNL     1      38.758 -10.400   4.941  1.00  0.00     0.069 C 
HETATM    2  C   UNL     1      40.191 -10.875   5.002  1.00  0.00     0.019 C 
HETATM    3  N   UNL     1      40.962 -10.313   6.007  1.00  0.00    -0.353 N 
HETATM    4  C   UNL     1      42.332 -10.446   6.131  1.00  0.00     0.087 C 
HETATM    5  C   UNL     1      42.971 -11.319   5.317  1.00  0.00     0.055 C 
HETATM    6  C   UNL     1      44.487 -11.410   5.258  1.00  0.00     0.019 C 
HETATM    7  N   UNL     1      45.744 -11.485   5.208  1.00  0.00    -0.096 N 
HETATM    8  C   UNL     1      42.172 -12.275   4.434  1.00  0.00     0.104 C 
HETATM    9  C   UNL     1      40.732 -11.819   4.190  1.00  0.00     0.046 C 
HETATM   10  H   UNL     1      40.533  -9.615   6.609  1.00  0.00     0.166 HD
ENDROOT
BRANCH   4  11
HETATM   11  S   UNL     1      43.145  -9.637   7.448  1.00  0.00    -0.102 SA
BRANCH  11  12
HETATM   12  C   UNL     1      43.741 -11.002   8.494  1.00  0.00     0.184 C 
BRANCH  12  13
HETATM   13  C   UNL     1      43.735 -10.621   9.981  1.00  0.00     0.231 C 
HETATM   14  N   UNL     1      42.565 -10.023  10.415  1.00  0.00    -0.326 N 
HETATM   15  H   UNL     1      41.879  -9.851   9.686  1.00  0.00     0.169 HD
HETATM   16  O   UNL     1      44.705 -10.892  10.687  1.00  0.00    -0.272 OA
BRANCH  14  17
HETATM   17  C   UNL     1      42.243  -9.534  11.695  1.00  0.00     0.036 A 
HETATM   18  C   UNL     1      42.963  -8.544  12.361  1.00  0.00     0.053 A 
HETATM   19  C   UNL     1      42.553  -8.119  13.629  1.00  0.00     0.036 A 
HETATM   20 CL   UNL     1      43.446  -6.897  14.452  1.00  0.00    -0.084 Cl
HETATM   21  C   UNL     1      41.428  -8.668  14.239  1.00  0.00     0.024 A 
HETATM   22  C   UNL     1      40.705  -9.659  13.581  1.00  0.00     0.004 A 
HETATM   23  C   UNL     1      41.114 -10.090  12.316  1.00  0.00     0.029 A 
ENDBRANCH  14  17
ENDBRANCH  12  13
ENDBRANCH  11  12
ENDBRANCH   4  11
BRANCH   8  24
HETATM   24  C   UNL     1      42.238 -13.673   5.075  1.00  0.00    -0.044 A 
HETATM   25  C   UNL     1      41.608 -13.944   6.306  1.00  0.00     0.008 A 
HETATM   26  C   UNL     1      41.728 -15.192   6.915  1.00  0.00     0.001 A 
HETATM   27  C   UNL     1      42.488 -16.190   6.313  1.00  0.00     0.000 A 
HETATM   28  C   UNL     1      43.129 -15.937   5.101  1.00  0.00     0.001 A 
HETATM   29  C   UNL     1      43.008 -14.689   4.484  1.00  0.00     0.008 A 
ENDBRANCH   8  24
BRANCH   9  30
HETATM   30  C   UNL     1      39.936 -12.386   3.044  1.00  0.00     0.255 C 
HETATM   31  N   UNL     1      40.292 -11.943   1.787  1.00  0.00    -0.321 N 
HETATM   32  H   UNL     1      40.813 -11.087   1.686  1.00  0.00     0.169 HD
HETATM   33  O   UNL     1      38.960 -13.099   3.268  1.00  0.00    -0.268 OA
BRANCH  31  34
HETATM   34  C   UNL     1      39.793 -12.490   0.580  1.00  0.00     0.068 A 
HETATM   35  C   UNL     1      38.765 -11.888  -0.177  1.00  0.00     0.095 A 
HETATM   36  C   UNL     1      38.369 -12.488  -1.378  1.00  0.00     0.039 A 
HETATM   37  C   UNL     1      38.956 -13.682  -1.804  1.00  0.00     0.003 A 
HETATM   38  C   UNL     1      39.923 -14.305  -1.023  1.00  0.00     0.002 A 
HETATM   39  C   UNL     1      40.329 -13.719   0.177  1.00  0.00     0.032 A 
BRANCH  35  40
HETATM   40  O   UNL     1      38.133 -10.808   0.384  1.00  0.00    -0.354 OA
HETATM   41  C   UNL     1      36.907 -11.035   1.063  1.00  0.00     0.210 C 
ENDBRANCH  35  40
ENDBRANCH  31  34
ENDBRANCH   9  30
TORSDOF 8
ENDMDL
MODEL 8
REMARK VINA RESULT:      -8.5      4.312     10.241
REMARK  8 active torsions:
REMARK  status: ('A' for Active; 'I' for Inactive)
REMARK    1  A    between atoms: C_4  and  S_5 
REMARK    2  A    between atoms: S_5  and  C_6 
REMARK    3  A    between atoms: C_6  and  C_7 
REMARK       I    between atoms: C_7  and  N_8 
REMARK    4  A    between atoms: N_8  and  C_9 
REMARK    5  A    between atoms: C_20  and  C_21 
REMARK    6  A    between atoms: C_27  and  C_28 
REMARK       I    between atoms: C_28  and  N_29 
REMARK    7  A    between atoms: N_29  and  C_30 
REMARK    8  A    between atoms: C_31  and  O_32 
ROOT
HETATM    1  C   UNL     1      40.142  -8.421   4.571  1.00  0.00     0.069 C 
HETATM    2  C   UNL     1      40.711  -9.709   5.116  1.00  0.00     0.019 C 
HETATM    3  N   UNL     1      40.793 -10.755   4.210  1.00  0.00    -0.353 N 
HETATM    4  C   UNL     1      41.093 -12.065   4.528  1.00  0.00     0.087 C 
HETATM    5  C   UNL     1      41.503 -12.346   5.787  1.00  0.00     0.055 C 
HETATM    6  C   UNL     1      41.689 -13.772   6.280  1.00  0.00     0.019 C 
HETATM    7  N   UNL     1      41.843 -14.954   6.689  1.00  0.00    -0.096 N 
HETATM    8  C   UNL     1      41.820 -11.215   6.764  1.00  0.00     0.104 C 
HETATM    9  C   UNL     1      41.175  -9.881   6.381  1.00  0.00     0.046 C 
HETATM   10  H   UNL     1      40.448 -10.600   3.266  1.00  0.00     0.166 HD
ENDROOT
BRANCH   4  11
HETATM   11  S   UNL     1      41.119 -13.261   3.255  1.00  0.00    -0.102 SA
BRANCH  11  12
HETATM   12  C   UNL     1      42.886 -13.644   3.054  1.00  0.00     0.184 C 
BRANCH  12  13
HETATM   13  C   UNL     1      43.112 -15.122   2.708  1.00  0.00     0.231 C 
HETATM   14  N   UNL     1      43.265 -15.950   3.807  1.00  0.00    -0.326 N 
HETATM   15  H   UNL     1      43.272 -15.472   4.703  1.00  0.00     0.169 HD
HETATM   16  O   UNL     1      43.103 -15.485   1.534  1.00  0.00    -0.272 OA
BRANCH  14  17
HETATM   17  C   UNL     1      43.510 -17.336   3.843  1.00  0.00     0.036 A 
HETATM   18  C   UNL     1      43.472 -18.169   2.726  1.00  0.00     0.053 A 
HETATM   19  C   UNL     1      43.742 -19.534   2.867  1.00  0.00     0.036 A 
HETATM   20 CL   UNL     1      43.693 -20.562   1.486  1.00  0.00    -0.084 Cl
HETATM   21  C   UNL     1      44.055 -20.078   4.111  1.00  0.00     0.024 A 
HETATM   22  C   UNL     1      44.093 -19.252   5.231  1.00  0.00     0.004 A 
HETATM   23  C   UNL     1      43.818 -17.888   5.096  1.00  0.00     0.029 A 
ENDBRANCH  14  17
ENDBRANCH  12  13
ENDBRANCH  11  12
ENDBRANCH   4  11
BRANCH   8  24
HETATM   24  C   UNL     1      43.351 -11.108   6.877  1.00  0.00    -0.044 A 
HETATM   25  C   UNL     1      44.185 -11.325   5.762  1.00  0.00     0.008 A 
HETATM   26  C   UNL     1      45.573 -11.294   5.886  1.00  0.00     0.001 A 
HETATM   27  C   UNL     1      46.156 -11.057   7.127  1.00  0.00     0.000 A 
HETATM   28  C   UNL     1      45.348 -10.853   8.244  1.00  0.00     0.001 A 
HETATM   29  C   UNL     1      43.956 -10.878   8.125  1.00  0.00     0.008 A 
ENDBRANCH   8  24
BRANCH   9  30
HETATM   30  C   UNL     1      41.026  -8.785   7.403  1.00  0.00     0.255 C 
HETATM   31  N   UNL     1      42.066  -7.880   7.471  1.00  0.00    -0.321 N 
HETATM   32  H   UNL     1      42.968  -8.125   7.097  1.00  0.00     0.169 HD
HETATM   33  O   UNL     1      40.081  -8.803   8.189  1.00  0.00    -0.268 OA
BRANCH  31  34
HETATM   34  C   UNL     1      42.032  -6.685   8.229  1.00  0.00     0.068 A 
HETATM   35  C   UNL     1      41.426  -5.496   7.773  1.00  0.00     0.095 A 
HETATM   36  C   UNL     1      41.410  -4.378   8.614  1.00  0.00     0.039 A 
HETATM   37  C   UNL     1      42.016  -4.426   9.872  1.00  0.00     0.003 A 
HETATM   38  C   UNL     1      42.669  -5.581  10.291  1.00  0.00     0.002 A 
HETATM   39  C   UNL     1      42.692  -6.704   9.464  1.00  0.00     0.032 A 
BRANCH  35  40
HETATM   40  O   UNL     1      40.994  -5.480   6.471  1.00  0.00    -0.354 OA
HETATM   41  C   UNL     1      41.799  -4.811   5.513  1.00  0.00     0.210 C 
ENDBRANCH  35  40
ENDBRANCH  31  34
ENDBRANCH   9  30
TORSDOF 8
ENDMDL
MODEL 9
REMARK VINA RESULT:      -8.4      4.195     10.057
REMARK  8 active torsions:
REMARK  status: ('A' for Active; 'I' for Inactive)
REMARK    1  A    between atoms: C_4  and  S_5 
REMARK    2  A    between atoms: S_5  and  C_6 
REMARK    3  A    between atoms: C_6  and  C_7 
REMARK       I    between atoms: C_7  and  N_8 
REMARK    4  A    between atoms: N_8  and  C_9 
REMARK    5  A    between atoms: C_20  and  C_21 
REMARK    6  A    between atoms: C_27  and  C_28 
REMARK       I    between atoms: C_28  and  N_29 
REMARK    7  A    between atoms: N_29  and  C_30 
REMARK    8  A    between atoms: C_31  and  O_32 
ROOT
HETATM    1  C   UNL     1      39.819 -11.096   3.385  1.00  0.00     0.069 C 
HETATM    2  C   UNL     1      40.811 -12.025   4.044  1.00  0.00     0.019 C 
HETATM    3  N   UNL     1      41.531 -12.836   3.181  1.00  0.00    -0.353 N 
HETATM    4  C   UNL     1      42.341 -13.888   3.564  1.00  0.00     0.087 C 
HETATM    5  C   UNL     1      42.597 -14.058   4.882  1.00  0.00     0.055 C 
HETATM    6  C   UNL     1      43.330 -15.279   5.414  1.00  0.00     0.019 C 
HETATM    7  N   UNL     1      43.937 -16.291   5.856  1.00  0.00    -0.096 N 
HETATM    8  C   UNL     1      42.170 -12.995   5.893  1.00  0.00     0.104 C 
HETATM    9  C   UNL     1      41.062 -12.075   5.377  1.00  0.00     0.046 C 
HETATM   10  H   UNL     1      41.333 -12.775   2.186  1.00  0.00     0.166 HD
ENDROOT
BRANCH   4  11
HETATM   11  S   UNL     1      43.150 -14.826   2.332  1.00  0.00    -0.102 SA
BRANCH  11  12
HETATM   12  C   UNL     1      41.933 -16.105   1.892  1.00  0.00     0.184 C 
BRANCH  12  13
HETATM   13  C   UNL     1      40.624 -15.490   1.377  1.00  0.00     0.231 C 
HETATM   14  N   UNL     1      40.754 -14.764   0.205  1.00  0.00    -0.326 N 
HETATM   15  H   UNL     1      41.706 -14.673  -0.135  1.00  0.00     0.169 HD
HETATM   16  O   UNL     1      39.571 -15.699   1.977  1.00  0.00    -0.272 OA
BRANCH  14  17
HETATM   17  C   UNL     1      39.770 -14.057  -0.511  1.00  0.00     0.036 A 
HETATM   18  C   UNL     1      39.276 -12.807  -0.142  1.00  0.00     0.053 A 
HETATM   19  C   UNL     1      38.304 -12.183  -0.931  1.00  0.00     0.036 A 
HETATM   20 CL   UNL     1      37.693 -10.639  -0.472  1.00  0.00    -0.084 Cl
HETATM   21  C   UNL     1      37.822 -12.790  -2.088  1.00  0.00     0.024 A 
HETATM   22  C   UNL     1      38.310 -14.039  -2.462  1.00  0.00     0.004 A 
HETATM   23  C   UNL     1      39.277 -14.669  -1.674  1.00  0.00     0.029 A 
ENDBRANCH  14  17
ENDBRANCH  12  13
ENDBRANCH  11  12
ENDBRANCH   4  11
BRANCH   8  24
HETATM   24  C   UNL     1      43.428 -12.213   6.312  1.00  0.00    -0.044 A 
HETATM   25  C   UNL     1      44.407 -11.844   5.369  1.00  0.00     0.008 A 
HETATM   26  C   UNL     1      45.576 -11.195   5.764  1.00  0.00     0.001 A 
HETATM   27  C   UNL     1      45.795 -10.912   7.109  1.00  0.00     0.000 A 
HETATM   28  C   UNL     1      44.843 -11.281   8.058  1.00  0.00     0.001 A 
HETATM   29  C   UNL     1      43.667 -11.927   7.667  1.00  0.00     0.008 A 
ENDBRANCH   8  24
BRANCH   9  30
HETATM   30  C   UNL     1      40.239 -11.260   6.339  1.00  0.00     0.255 C 
HETATM   31  N   UNL     1      40.788 -10.057   6.732  1.00  0.00    -0.321 N 
HETATM   32  H   UNL     1      41.778  -9.902   6.633  1.00  0.00     0.169 HD
HETATM   33  O   UNL     1      39.206 -11.729   6.814  1.00  0.00    -0.268 OA
BRANCH  31  34
HETATM   34  C   UNL     1      40.096  -9.072   7.478  1.00  0.00     0.068 A 
HETATM   35  C   UNL     1      39.324  -8.051   6.885  1.00  0.00     0.095 A 
HETATM   36  C   UNL     1      38.645  -7.148   7.711  1.00  0.00     0.039 A 
HETATM   37  C   UNL     1      38.758  -7.233   9.101  1.00  0.00     0.003 A 
HETATM   38  C   UNL     1      39.572  -8.201   9.679  1.00  0.00     0.002 A 
HETATM   39  C   UNL     1      40.254  -9.109   8.869  1.00  0.00     0.032 A 
BRANCH  35  40
HETATM   40  O   UNL     1      39.390  -7.939   5.519  1.00  0.00    -0.354 OA
HETATM   41  C   UNL     1      38.173  -7.766   4.809  1.00  0.00     0.210 C 
ENDBRANCH  35  40
ENDBRANCH  31  34
ENDBRANCH   9  30
TORSDOF 8
ENDMDL
MODEL 10
REMARK VINA RESULT:      -8.4      3.269      8.601
REMARK  8 active torsions:
REMARK  status: ('A' for Active; 'I' for Inactive)
REMARK    1  A    between atoms: C_4  and  S_5 
REMARK    2  A    between atoms: S_5  and  C_6 
REMARK    3  A    between atoms: C_6  and  C_7 
REMARK       I    between atoms: C_7  and  N_8 
REMARK    4  A    between atoms: N_8  and  C_9 
REMARK    5  A    between atoms: C_20  and  C_21 
REMARK    6  A    between atoms: C_27  and  C_28 
REMARK       I    between atoms: C_28  and  N_29 
REMARK    7  A    between atoms: N_29  and  C_30 
REMARK    8  A    between atoms: C_31  and  O_32 
ROOT
HETATM    1  C   UNL     1      41.473 -14.349   6.563  1.00  0.00     0.069 C 
HETATM    2  C   UNL     1      41.467 -13.289   5.487  1.00  0.00     0.019 C 
HETATM    3  N   UNL     1      40.729 -13.596   4.355  1.00  0.00    -0.353 N 
HETATM    4  C   UNL     1      40.739 -12.874   3.177  1.00  0.00     0.087 C 
HETATM    5  C   UNL     1      41.381 -11.683   3.155  1.00  0.00     0.055 C 
HETATM    6  C   UNL     1      41.594 -10.900   1.869  1.00  0.00     0.019 C 
HETATM    7  N   UNL     1      41.772 -10.251   0.804  1.00  0.00    -0.096 N 
HETATM    8  C   UNL     1      41.901 -11.065   4.452  1.00  0.00     0.104 C 
HETATM    9  C   UNL     1      42.079 -12.081   5.582  1.00  0.00     0.046 C 
HETATM   10  H   UNL     1      40.272 -14.503   4.310  1.00  0.00     0.166 HD
ENDROOT
BRANCH   4  11
HETATM   11  S   UNL     1      39.767 -13.430   1.835  1.00  0.00    -0.102 SA
BRANCH  11  12
HETATM   12  C   UNL     1      40.958 -14.298   0.767  1.00  0.00     0.184 C 
BRANCH  12  13
HETATM   13  C   UNL     1      42.078 -14.956   1.584  1.00  0.00     0.231 C 
HETATM   14  N   UNL     1      41.741 -16.180   2.136  1.00  0.00    -0.326 N 
HETATM   15  H   UNL     1      40.778 -16.464   1.988  1.00  0.00     0.169 HD
HETATM   16  O   UNL     1      43.177 -14.411   1.668  1.00  0.00    -0.272 OA
BRANCH  14  17
HETATM   17  C   UNL     1      42.516 -17.026   2.952  1.00  0.00     0.036 A 
HETATM   18  C   UNL     1      42.709 -16.837   4.320  1.00  0.00     0.053 A 
HETATM   19  C   UNL     1      43.490 -17.743   5.044  1.00  0.00     0.036 A 
HETATM   20 CL   UNL     1      43.729 -17.506   6.733  1.00  0.00    -0.084 Cl
HETATM   21  C   UNL     1      44.077 -18.841   4.420  1.00  0.00     0.024 A 
HETATM   22  C   UNL     1      43.890 -19.035   3.055  1.00  0.00     0.004 A 
HETATM   23  C   UNL     1      43.116 -18.129   2.326  1.00  0.00     0.029 A 
ENDBRANCH  14  17
ENDBRANCH  12  13
ENDBRANCH  11  12
ENDBRANCH   4  11
BRANCH   8  24
HETATM   24  C   UNL     1      40.948  -9.921   4.843  1.00  0.00    -0.044 A 
HETATM   25  C   UNL     1      39.657 -10.185   5.345  1.00  0.00     0.008 A 
HETATM   26  C   UNL     1      38.773  -9.145   5.633  1.00  0.00     0.001 A 
HETATM   27  C   UNL     1      39.156  -7.826   5.415  1.00  0.00     0.000 A 
HETATM   28  C   UNL     1      40.424  -7.546   4.907  1.00  0.00     0.001 A 
HETATM   29  C   UNL     1      41.315  -8.584   4.621  1.00  0.00     0.008 A 
ENDBRANCH   8  24
BRANCH   9  30
HETATM   30  C   UNL     1      42.947 -11.757   6.769  1.00  0.00     0.255 C 
HETATM   31  N   UNL     1      42.797 -10.492   7.298  1.00  0.00    -0.321 N 
HETATM   32  H   UNL     1      42.382  -9.763   6.742  1.00  0.00     0.169 HD
HETATM   33  O   UNL     1      43.810 -12.554   7.133  1.00  0.00    -0.268 OA
BRANCH  31  34
HETATM   34  C   UNL     1      43.382 -10.064   8.514  1.00  0.00     0.068 A 
HETATM   35  C   UNL     1      44.713  -9.609   8.615  1.00  0.00     0.095 A 
HETATM   36  C   UNL     1      45.186  -9.169   9.857  1.00  0.00     0.039 A 
HETATM   37  C   UNL     1      44.365  -9.214  10.988  1.00  0.00     0.003 A 
HETATM   38  C   UNL     1      43.075  -9.725  10.895  1.00  0.00     0.002 A 
HETATM   39  C   UNL     1      42.589 -10.166   9.664  1.00  0.00     0.032 A 
BRANCH  35  40
HETATM   40  O   UNL     1      45.500  -9.742   7.500  1.00  0.00    -0.354 OA
HETATM   41  C   UNL     1      46.621 -10.609   7.579  1.00  0.00     0.210 C 
ENDBRANCH  35  40
ENDBRANCH  31  34
ENDBRANCH   9  30
TORSDOF 8
ENDMDL
