MODEL 1
REMARK VINA RESULT:      -7.6      0.000      0.000
REMARK  10 active torsions:
REMARK  status: ('A' for Active; 'I' for Inactive)
REMARK    1  A    between atoms: C_3  and  C_4 
REMARK    2  A    between atoms: C_4  and  C_5 
REMARK       I    between atoms: C_5  and  N_6 
REMARK    3  A    between atoms: N_6  and  C_7 
REMARK    4  A    between atoms: C_7  and  C_8 
REMARK    5  A    between atoms: C_8  and  O_9 
REMARK    6  A    between atoms: C_15  and  N_16 
REMARK       I    between atoms: N_16  and  C_17 
REMARK    7  A    between atoms: C_17  and  C_18 
REMARK    8  A    between atoms: C_26  and  C_27 
REMARK    9  A    between atoms: C_27  and  O_28 
REMARK   10  A    between atoms: C_30  and  O_31 
ROOT
HETATM    1  C   UNL     1      43.926 -14.099   2.194  1.00  0.00     0.016 C 
HETATM    2  C   UNL     1      42.473 -14.396   2.686  1.00  0.00    -0.030 C 
HETATM    3  C   UNL     1      42.459 -14.431   4.274  1.00  0.00     0.056 C 
HETATM    4  C   UNL     1      42.499 -13.034   4.844  1.00  0.00     0.056 A 
HETATM    5  C   UNL     1      42.165 -11.908   4.117  1.00  0.00     0.012 A 
HETATM    6  S   UNL     1      42.167 -10.533   5.118  1.00  0.00    -0.055 SA
HETATM    7  C   UNL     1      42.733 -11.509   6.400  1.00  0.00     0.173 A 
HETATM    8  N   UNL     1      42.872 -12.788   6.157  1.00  0.00    -0.227 NA
HETATM    9  C   UNL     1      41.861 -11.852   2.667  1.00  0.00     0.055 C 
HETATM   10  C   UNL     1      41.528 -13.257   2.098  1.00  0.00     0.012 C 
HETATM   11  C   UNL     1      39.969 -13.557   1.997  1.00  0.00     0.008 C 
HETATM   12  C   UNL     1      39.469 -12.850   0.696  1.00  0.00     0.020 C 
HETATM   13  C   UNL     1      39.696 -15.081   1.821  1.00  0.00     0.128 C 
HETATM   14  C   UNL     1      40.880 -15.804   1.189  1.00  0.00     0.033 C 
HETATM   15  C   UNL     1      42.087 -15.800   2.123  1.00  0.00     0.013 C 
ENDROOT
BRANCH   3  16
HETATM   16  C   UNL     1      43.555 -15.329   4.878  1.00  0.00     0.114 C 
BRANCH  16  17
HETATM   17  C   UNL     1      42.999 -16.682   5.265  1.00  0.00     0.218 C 
HETATM   18  N   UNL     1      43.915 -17.703   5.273  1.00  0.00    -0.359 N 
HETATM   19  H   UNL     1      44.898 -17.437   5.385  1.00  0.00     0.162 HD
HETATM   20  O   UNL     1      41.808 -16.823   5.539  1.00  0.00    -0.274 OA
BRANCH  18  21
HETATM   21  C   UNL     1      43.518 -19.047   5.651  1.00  0.00     0.148 C 
BRANCH  21  22
HETATM   22  C   UNL     1      44.369 -20.151   5.017  1.00  0.00     0.186 C 
BRANCH  22  23
HETATM   23  O   UNL     1      43.641 -20.911   4.048  1.00  0.00    -0.394 OA
HETATM   24  C   UNL     1      43.688 -20.332   2.750  1.00  0.00     0.201 C 
ENDBRANCH  22  23
ENDBRANCH  21  22
ENDBRANCH  18  21
ENDBRANCH  16  17
ENDBRANCH   3  16
BRANCH  11  25
HETATM   25  C   UNL     1      39.089 -12.969   3.134  1.00  0.00     0.176 C 
BRANCH  25  26
HETATM   26  O   UNL     1      39.345 -13.545   4.400  1.00  0.00    -0.400 OA
HETATM   27  H   UNL     1      39.961 -14.290   4.223  1.00  0.00     0.209 HD
ENDBRANCH  25  26
ENDBRANCH  11  25
BRANCH   7  28
HETATM   28  N   UNL     1      43.001 -10.789   7.529  1.00  0.00    -0.305 N 
HETATM   29  C   UNL     1      44.283 -10.511   7.943  1.00  0.00     0.231 C 
HETATM   30  O   UNL     1      45.303 -10.925   7.398  1.00  0.00    -0.272 OA
HETATM   31  H   UNL     1      42.206 -10.340   7.952  1.00  0.00     0.171 HD
BRANCH  29  32
HETATM   32  C   UNL     1      44.345  -9.613   9.203  1.00  0.00     0.030 C 
HETATM   33  C   UNL     1      44.615  -8.163   8.777  1.00  0.00     0.025 C 
HETATM   34  C   UNL     1      42.996  -9.674   9.943  1.00  0.00     0.025 C 
HETATM   35  C   UNL     1      45.443 -10.089  10.170  1.00  0.00     0.025 C 
ENDBRANCH  29  32
ENDBRANCH   7  28
BRANCH  13  36
HETATM   36  O   UNL     1      39.392 -15.696   3.076  1.00  0.00    -0.395 OA
HETATM   37  H   UNL     1      39.399 -16.662   2.944  1.00  0.00     0.210 HD
ENDBRANCH  13  36
TORSDOF 10
ENDMDL
MODEL 2
REMARK VINA RESULT:      -7.4      2.960      5.577
REMARK  10 active torsions:
REMARK  status: ('A' for Active; 'I' for Inactive)
REMARK    1  A    between atoms: C_3  and  C_4 
REMARK    2  A    between atoms: C_4  and  C_5 
REMARK       I    between atoms: C_5  and  N_6 
REMARK    3  A    between atoms: N_6  and  C_7 
REMARK    4  A    between atoms: C_7  and  C_8 
REMARK    5  A    between atoms: C_8  and  O_9 
REMARK    6  A    between atoms: C_15  and  N_16 
REMARK       I    between atoms: N_16  and  C_17 
REMARK    7  A    between atoms: C_17  and  C_18 
REMARK    8  A    between atoms: C_26  and  C_27 
REMARK    9  A    between atoms: C_27  and  O_28 
REMARK   10  A    between atoms: C_30  and  O_31 
ROOT
HETATM    1  C   UNL     1      38.952 -12.549   4.084  1.00  0.00     0.016 C 
HETATM    2  C   UNL     1      40.111 -12.787   3.063  1.00  0.00    -0.030 C 
HETATM    3  C   UNL     1      41.155 -11.595   3.174  1.00  0.00     0.056 C 
HETATM    4  C   UNL     1      42.030 -11.758   4.394  1.00  0.00     0.056 A 
HETATM    5  C   UNL     1      42.191 -12.958   5.058  1.00  0.00     0.012 A 
HETATM    6  S   UNL     1      43.366 -12.810   6.278  1.00  0.00    -0.055 SA
HETATM    7  C   UNL     1      43.478 -11.143   5.920  1.00  0.00     0.173 A 
HETATM    8  N   UNL     1      42.746 -10.698   4.929  1.00  0.00    -0.227 NA
HETATM    9  C   UNL     1      41.452 -14.217   4.796  1.00  0.00     0.055 C 
HETATM   10  C   UNL     1      40.766 -14.198   3.404  1.00  0.00     0.012 C 
HETATM   11  C   UNL     1      41.600 -14.930   2.265  1.00  0.00     0.008 C 
HETATM   12  C   UNL     1      41.333 -16.459   2.438  1.00  0.00     0.020 C 
HETATM   13  C   UNL     1      41.089 -14.536   0.847  1.00  0.00     0.128 C 
HETATM   14  C   UNL     1      39.630 -14.094   0.868  1.00  0.00     0.033 C 
HETATM   15  C   UNL     1      39.462 -12.791   1.643  1.00  0.00     0.013 C 
ENDROOT
BRANCH   3  16
HETATM   16  C   UNL     1      40.503 -10.201   3.118  1.00  0.00     0.114 C 
BRANCH  16  17
HETATM   17  C   UNL     1      40.880  -9.474   1.846  1.00  0.00     0.218 C 
HETATM   18  N   UNL     1      41.527 -10.243   0.912  1.00  0.00    -0.359 N 
HETATM   19  H   UNL     1      41.380 -11.256   0.968  1.00  0.00     0.162 HD
HETATM   20  O   UNL     1      40.619  -8.282   1.694  1.00  0.00    -0.274 OA
BRANCH  18  21
HETATM   21  C   UNL     1      41.923  -9.676  -0.364  1.00  0.00     0.148 C 
BRANCH  21  22
HETATM   22  C   UNL     1      41.171 -10.255  -1.566  1.00  0.00     0.186 C 
BRANCH  22  23
HETATM   23  O   UNL     1      41.271 -11.681  -1.636  1.00  0.00    -0.394 OA
HETATM   24  C   UNL     1      41.031 -12.183  -2.944  1.00  0.00     0.201 C 
ENDBRANCH  22  23
ENDBRANCH  21  22
ENDBRANCH  18  21
ENDBRANCH  16  17
ENDBRANCH   3  16
BRANCH  11  25
HETATM   25  C   UNL     1      43.144 -14.782   2.353  1.00  0.00     0.176 C 
BRANCH  25  26
HETATM   26  O   UNL     1      43.831 -15.376   1.268  1.00  0.00    -0.400 OA
HETATM   27  H   UNL     1      43.273 -15.191   0.480  1.00  0.00     0.209 HD
ENDBRANCH  25  26
ENDBRANCH  11  25
BRANCH   7  28
HETATM   28  N   UNL     1      44.318 -10.480   6.766  1.00  0.00    -0.305 N 
HETATM   29  C   UNL     1      43.882  -9.879   7.924  1.00  0.00     0.231 C 
HETATM   30  O   UNL     1      42.708  -9.813   8.282  1.00  0.00    -0.272 OA
HETATM   31  H   UNL     1      45.300 -10.593   6.574  1.00  0.00     0.171 HD
BRANCH  29  32
HETATM   32  C   UNL     1      45.022  -9.256   8.766  1.00  0.00     0.030 C 
HETATM   33  C   UNL     1      45.167 -10.040  10.079  1.00  0.00     0.025 C 
HETATM   34  C   UNL     1      46.345  -9.344   7.982  1.00  0.00     0.025 C 
HETATM   35  C   UNL     1      44.743  -7.774   9.069  1.00  0.00     0.025 C 
ENDBRANCH  29  32
ENDBRANCH   7  28
BRANCH  13  36
HETATM   36  O   UNL     1      41.884 -13.486   0.288  1.00  0.00    -0.395 OA
HETATM   37  H   UNL     1      41.715 -12.677   0.805  1.00  0.00     0.210 HD
ENDBRANCH  13  36
TORSDOF 10
ENDMDL
MODEL 3
REMARK VINA RESULT:      -7.3      2.660      5.102
REMARK  10 active torsions:
REMARK  status: ('A' for Active; 'I' for Inactive)
REMARK    1  A    between atoms: C_3  and  C_4 
REMARK    2  A    between atoms: C_4  and  C_5 
REMARK       I    between atoms: C_5  and  N_6 
REMARK    3  A    between atoms: N_6  and  C_7 
REMARK    4  A    between atoms: C_7  and  C_8 
REMARK    5  A    between atoms: C_8  and  O_9 
REMARK    6  A    between atoms: C_15  and  N_16 
REMARK       I    between atoms: N_16  and  C_17 
REMARK    7  A    between atoms: C_17  and  C_18 
REMARK    8  A    between atoms: C_26  and  C_27 
REMARK    9  A    between atoms: C_27  and  O_28 
REMARK   10  A    between atoms: C_30  and  O_31 
ROOT
HETATM    1  C   UNL     1      40.033 -15.261   5.830  1.00  0.00     0.016 C 
HETATM    2  C   UNL     1      40.605 -14.780   4.458  1.00  0.00    -0.030 C 
HETATM    3  C   UNL     1      40.826 -13.208   4.508  1.00  0.00     0.056 C 
HETATM    4  C   UNL     1      42.072 -12.864   5.290  1.00  0.00     0.056 A 
HETATM    5  C   UNL     1      43.082 -13.771   5.543  1.00  0.00     0.012 A 
HETATM    6  S   UNL     1      44.395 -13.000   6.302  1.00  0.00    -0.055 SA
HETATM    7  C   UNL     1      43.477 -11.561   6.352  1.00  0.00     0.173 A 
HETATM    8  N   UNL     1      42.289 -11.594   5.802  1.00  0.00    -0.227 NA
HETATM    9  C   UNL     1      43.063 -15.222   5.237  1.00  0.00     0.055 C 
HETATM   10  C   UNL     1      41.962 -15.573   4.202  1.00  0.00     0.012 C 
HETATM   11  C   UNL     1      42.495 -15.681   2.707  1.00  0.00     0.008 C 
HETATM   12  C   UNL     1      43.149 -17.093   2.574  1.00  0.00     0.020 C 
HETATM   13  C   UNL     1      41.323 -15.624   1.682  1.00  0.00     0.128 C 
HETATM   14  C   UNL     1      40.007 -16.091   2.293  1.00  0.00     0.033 C 
HETATM   15  C   UNL     1      39.532 -15.128   3.378  1.00  0.00     0.013 C 
ENDROOT
BRANCH   3  16
HETATM   16  C   UNL     1      39.597 -12.432   5.019  1.00  0.00     0.114 C 
BRANCH  16  17
HETATM   17  C   UNL     1      39.141 -11.407   4.003  1.00  0.00     0.218 C 
HETATM   18  N   UNL     1      39.436 -11.714   2.699  1.00  0.00    -0.359 N 
HETATM   19  H   UNL     1      39.583 -12.705   2.483  1.00  0.00     0.162 HD
HETATM   20  O   UNL     1      38.559 -10.381   4.354  1.00  0.00    -0.274 OA
BRANCH  18  21
HETATM   21  C   UNL     1      39.032 -10.828   1.623  1.00  0.00     0.148 C 
BRANCH  21  22
HETATM   22  C   UNL     1      38.356 -11.539   0.447  1.00  0.00     0.186 C 
BRANCH  22  23
HETATM   23  O   UNL     1      39.076 -12.701   0.026  1.00  0.00    -0.394 OA
HETATM   24  C   UNL     1      38.788 -13.067  -1.318  1.00  0.00     0.201 C 
ENDBRANCH  22  23
ENDBRANCH  21  22
ENDBRANCH  18  21
ENDBRANCH  16  17
ENDBRANCH   3  16
BRANCH  11  25
HETATM   25  C   UNL     1      43.618 -14.682   2.313  1.00  0.00     0.176 C 
BRANCH  25  26
HETATM   26  O   UNL     1      44.192 -14.948   1.048  1.00  0.00    -0.400 OA
HETATM   27  H   UNL     1      45.123 -14.641   1.120  1.00  0.00     0.209 HD
ENDBRANCH  25  26
ENDBRANCH  11  25
BRANCH   7  28
HETATM   28  N   UNL     1      44.119 -10.551   7.009  1.00  0.00    -0.305 N 
HETATM   29  C   UNL     1      44.339 -10.573   8.366  1.00  0.00     0.231 C 
HETATM   30  O   UNL     1      43.934 -11.446   9.130  1.00  0.00    -0.272 OA
HETATM   31  H   UNL     1      44.561  -9.866   6.418  1.00  0.00     0.171 HD
BRANCH  29  32
HETATM   32  C   UNL     1      45.156  -9.362   8.879  1.00  0.00     0.030 C 
HETATM   33  C   UNL     1      44.313  -8.086   8.737  1.00  0.00     0.025 C 
HETATM   34  C   UNL     1      45.502  -9.569  10.365  1.00  0.00     0.025 C 
HETATM   35  C   UNL     1      46.473  -9.209   8.098  1.00  0.00     0.025 C 
ENDBRANCH  29  32
ENDBRANCH   7  28
BRANCH  13  36
HETATM   36  O   UNL     1      41.152 -14.299   1.171  1.00  0.00    -0.395 OA
HETATM   37  H   UNL     1      40.804 -13.743   1.893  1.00  0.00     0.210 HD
ENDBRANCH  13  36
TORSDOF 10
ENDMDL
MODEL 4
REMARK VINA RESULT:      -7.3      2.421      7.108
REMARK  10 active torsions:
REMARK  status: ('A' for Active; 'I' for Inactive)
REMARK    1  A    between atoms: C_3  and  C_4 
REMARK    2  A    between atoms: C_4  and  C_5 
REMARK       I    between atoms: C_5  and  N_6 
REMARK    3  A    between atoms: N_6  and  C_7 
REMARK    4  A    between atoms: C_7  and  C_8 
REMARK    5  A    between atoms: C_8  and  O_9 
REMARK    6  A    between atoms: C_15  and  N_16 
REMARK       I    between atoms: N_16  and  C_17 
REMARK    7  A    between atoms: C_17  and  C_18 
REMARK    8  A    between atoms: C_26  and  C_27 
REMARK    9  A    between atoms: C_27  and  O_28 
REMARK   10  A    between atoms: C_30  and  O_31 
ROOT
HETATM    1  C   UNL     1      39.439 -12.503   5.458  1.00  0.00     0.016 C 
HETATM    2  C   UNL     1      40.285 -11.926   4.278  1.00  0.00    -0.030 C 
HETATM    3  C   UNL     1      41.743 -12.553   4.327  1.00  0.00     0.056 C 
HETATM    4  C   UNL     1      41.739 -13.967   3.797  1.00  0.00     0.056 A 
HETATM    5  C   UNL     1      40.733 -14.476   3.001  1.00  0.00     0.012 A 
HETATM    6  S   UNL     1      41.136 -16.036   2.458  1.00  0.00    -0.055 SA
HETATM    7  C   UNL     1      42.547 -15.968   3.418  1.00  0.00     0.173 A 
HETATM    8  N   UNL     1      42.768 -14.855   4.072  1.00  0.00    -0.227 NA
HETATM    9  C   UNL     1      39.454 -13.806   2.658  1.00  0.00     0.055 C 
HETATM   10  C   UNL     1      39.520 -12.279   2.926  1.00  0.00     0.012 C 
HETATM   11  C   UNL     1      39.849 -11.412   1.633  1.00  0.00     0.008 C 
HETATM   12  C   UNL     1      38.507 -11.273   0.845  1.00  0.00     0.020 C 
HETATM   13  C   UNL     1      40.302  -9.972   2.017  1.00  0.00     0.128 C 
HETATM   14  C   UNL     1      39.759  -9.545   3.375  1.00  0.00     0.033 C 
HETATM   15  C   UNL     1      40.365 -10.383   4.498  1.00  0.00     0.013 C 
ENDROOT
BRANCH   3  16
HETATM   16  C   UNL     1      42.403 -12.463   5.716  1.00  0.00     0.114 C 
BRANCH  16  17
HETATM   17  C   UNL     1      43.715 -11.712   5.648  1.00  0.00     0.218 C 
HETATM   18  N   UNL     1      44.568 -11.942   6.697  1.00  0.00    -0.359 N 
HETATM   19  H   UNL     1      44.440 -12.820   7.209  1.00  0.00     0.162 HD
HETATM   20  O   UNL     1      43.964 -10.953   4.711  1.00  0.00    -0.274 OA
BRANCH  18  21
HETATM   21  C   UNL     1      45.871 -11.304   6.742  1.00  0.00     0.148 C 
BRANCH  21  22
HETATM   22  C   UNL     1      46.037 -10.301   7.888  1.00  0.00     0.186 C 
BRANCH  22  23
HETATM   23  O   UNL     1      45.498 -10.788   9.120  1.00  0.00    -0.394 OA
HETATM   24  C   UNL     1      45.271  -9.751  10.066  1.00  0.00     0.201 C 
ENDBRANCH  22  23
ENDBRANCH  21  22
ENDBRANCH  18  21
ENDBRANCH  16  17
ENDBRANCH   3  16
BRANCH  11  25
HETATM   25  C   UNL     1      40.841 -12.050   0.623  1.00  0.00     0.176 C 
BRANCH  25  26
HETATM   26  O   UNL     1      41.155 -11.207  -0.469  1.00  0.00    -0.400 OA
HETATM   27  H   UNL     1      40.387 -10.600  -0.553  1.00  0.00     0.209 HD
ENDBRANCH  25  26
ENDBRANCH  11  25
BRANCH   7  28
HETATM   28  N   UNL     1      43.255 -17.135   3.395  1.00  0.00    -0.305 N 
HETATM   29  C   UNL     1      43.342 -17.971   4.484  1.00  0.00     0.231 C 
HETATM   30  O   UNL     1      42.863 -17.735   5.591  1.00  0.00    -0.272 OA
HETATM   31  H   UNL     1      43.577 -17.425   2.486  1.00  0.00     0.171 HD
BRANCH  29  32
HETATM   32  C   UNL     1      44.129 -19.274   4.202  1.00  0.00     0.030 C 
HETATM   33  C   UNL     1      45.625 -18.947   4.092  1.00  0.00     0.025 C 
HETATM   34  C   UNL     1      43.916 -20.263   5.363  1.00  0.00     0.025 C 
HETATM   35  C   UNL     1      43.644 -19.946   2.905  1.00  0.00     0.025 C 
ENDBRANCH  29  32
ENDBRANCH   7  28
BRANCH  13  36
HETATM   36  O   UNL     1      41.729  -9.872   2.036  1.00  0.00    -0.395 OA
HETATM   37  H   UNL     1      42.082 -10.702   2.406  1.00  0.00     0.210 HD
ENDBRANCH  13  36
TORSDOF 10
ENDMDL
MODEL 5
REMARK VINA RESULT:      -7.2      3.222      8.096
REMARK  10 active torsions:
REMARK  status: ('A' for Active; 'I' for Inactive)
REMARK    1  A    between atoms: C_3  and  C_4 
REMARK    2  A    between atoms: C_4  and  C_5 
REMARK       I    between atoms: C_5  and  N_6 
REMARK    3  A    between atoms: N_6  and  C_7 
REMARK    4  A    between atoms: C_7  and  C_8 
REMARK    5  A    between atoms: C_8  and  O_9 
REMARK    6  A    between atoms: C_15  and  N_16 
REMARK       I    between atoms: N_16  and  C_17 
REMARK    7  A    between atoms: C_17  and  C_18 
REMARK    8  A    between atoms: C_26  and  C_27 
REMARK    9  A    between atoms: C_27  and  O_28 
REMARK   10  A    between atoms: C_30  and  O_31 
ROOT
HETATM    1  C   UNL     1      43.579 -12.165   4.422  1.00  0.00     0.016 C 
HETATM    2  C   UNL     1      42.620 -13.296   4.916  1.00  0.00    -0.030 C 
HETATM    3  C   UNL     1      41.122 -12.898   4.570  1.00  0.00     0.056 C 
HETATM    4  C   UNL     1      40.832 -13.122   3.105  1.00  0.00     0.056 A 
HETATM    5  C   UNL     1      41.595 -13.940   2.296  1.00  0.00     0.012 A 
HETATM    6  S   UNL     1      40.885 -14.084   0.758  1.00  0.00    -0.055 SA
HETATM    7  C   UNL     1      39.696 -12.955   1.238  1.00  0.00     0.173 A 
HETATM    8  N   UNL     1      39.756 -12.517   2.471  1.00  0.00    -0.227 NA
HETATM    9  C   UNL     1      42.870 -14.603   2.664  1.00  0.00     0.055 C 
HETATM   10  C   UNL     1      43.068 -14.647   4.202  1.00  0.00     0.012 C 
HETATM   11  C   UNL     1      42.634 -16.025   4.867  1.00  0.00     0.008 C 
HETATM   12  C   UNL     1      43.815 -17.019   4.630  1.00  0.00     0.020 C 
HETATM   13  C   UNL     1      42.463 -15.880   6.409  1.00  0.00     0.128 C 
HETATM   14  C   UNL     1      43.300 -14.737   6.972  1.00  0.00     0.033 C 
HETATM   15  C   UNL     1      42.798 -13.388   6.465  1.00  0.00     0.013 C 
ENDROOT
BRANCH   3  16
HETATM   16  C   UNL     1      40.746 -11.473   5.018  1.00  0.00     0.114 C 
BRANCH  16  17
HETATM   17  C   UNL     1      39.736 -11.506   6.144  1.00  0.00     0.218 C 
HETATM   18  N   UNL     1      39.975 -10.617   7.161  1.00  0.00    -0.359 N 
HETATM   19  H   UNL     1      40.545  -9.798   6.931  1.00  0.00     0.162 HD
HETATM   20  O   UNL     1      38.787 -12.289   6.123  1.00  0.00    -0.274 OA
BRANCH  18  21
HETATM   21  C   UNL     1      39.069 -10.528   8.291  1.00  0.00     0.148 C 
BRANCH  21  22
HETATM   22  C   UNL     1      39.437  -9.440   9.304  1.00  0.00     0.186 C 
BRANCH  22  23
HETATM   23  O   UNL     1      39.442  -9.927  10.649  1.00  0.00    -0.394 OA
HETATM   24  C   UNL     1      40.675  -9.686  11.315  1.00  0.00     0.201 C 
ENDBRANCH  22  23
ENDBRANCH  21  22
ENDBRANCH  18  21
ENDBRANCH  16  17
ENDBRANCH   3  16
BRANCH  11  25
HETATM   25  C   UNL     1      41.394 -16.720   4.241  1.00  0.00     0.176 C 
BRANCH  25  26
HETATM   26  O   UNL     1      40.173 -16.070   4.536  1.00  0.00    -0.400 OA
HETATM   27  H   UNL     1      39.491 -16.561   4.025  1.00  0.00     0.209 HD
ENDBRANCH  25  26
ENDBRANCH  11  25
BRANCH   7  28
HETATM   28  N   UNL     1      38.841 -12.631   0.226  1.00  0.00    -0.305 N 
HETATM   29  C   UNL     1      39.104 -11.624  -0.674  1.00  0.00     0.231 C 
HETATM   30  O   UNL     1      40.079 -10.878  -0.628  1.00  0.00    -0.272 OA
HETATM   31  H   UNL     1      38.081 -13.276   0.081  1.00  0.00     0.171 HD
BRANCH  29  32
HETATM   32  C   UNL     1      38.032 -11.489  -1.783  1.00  0.00     0.030 C 
HETATM   33  C   UNL     1      36.894 -10.589  -1.278  1.00  0.00     0.025 C 
HETATM   34  C   UNL     1      38.662 -10.845  -3.031  1.00  0.00     0.025 C 
HETATM   35  C   UNL     1      37.472 -12.865  -2.185  1.00  0.00     0.025 C 
ENDBRANCH  29  32
ENDBRANCH   7  28
BRANCH  13  36
HETATM   36  O   UNL     1      41.092 -15.665   6.756  1.00  0.00    -0.395 OA
HETATM   37  H   UNL     1      40.899 -14.717   6.635  1.00  0.00     0.210 HD
ENDBRANCH  13  36
TORSDOF 10
ENDMDL
MODEL 6
REMARK VINA RESULT:      -7.0      7.440     11.885
REMARK  10 active torsions:
REMARK  status: ('A' for Active; 'I' for Inactive)
REMARK    1  A    between atoms: C_3  and  C_4 
REMARK    2  A    between atoms: C_4  and  C_5 
REMARK       I    between atoms: C_5  and  N_6 
REMARK    3  A    between atoms: N_6  and  C_7 
REMARK    4  A    between atoms: C_7  and  C_8 
REMARK    5  A    between atoms: C_8  and  O_9 
REMARK    6  A    between atoms: C_15  and  N_16 
REMARK       I    between atoms: N_16  and  C_17 
REMARK    7  A    between atoms: C_17  and  C_18 
REMARK    8  A    between atoms: C_26  and  C_27 
REMARK    9  A    between atoms: C_27  and  O_28 
REMARK   10  A    between atoms: C_30  and  O_31 
ROOT
HETATM    1  C   UNL     1      42.346  -4.857  12.968  1.00  0.00     0.016 C 
HETATM    2  C   UNL     1      41.271  -5.898  12.517  1.00  0.00    -0.030 C 
HETATM    3  C   UNL     1      41.485  -7.250  13.322  1.00  0.00     0.056 C 
HETATM    4  C   UNL     1      40.955  -7.127  14.731  1.00  0.00     0.056 A 
HETATM    5  C   UNL     1      40.047  -6.161  15.118  1.00  0.00     0.012 A 
HETATM    6  S   UNL     1      39.551  -6.422  16.723  1.00  0.00    -0.055 SA
HETATM    7  C   UNL     1      40.666  -7.712  16.823  1.00  0.00     0.173 A 
HETATM    8  N   UNL     1      41.343  -7.997  15.738  1.00  0.00    -0.227 NA
HETATM    9  C   UNL     1      39.563  -5.026  14.296  1.00  0.00     0.055 C 
HETATM   10  C   UNL     1      39.840  -5.254  12.786  1.00  0.00     0.012 C 
HETATM   11  C   UNL     1      38.594  -5.835  11.985  1.00  0.00     0.008 C 
HETATM   12  C   UNL     1      37.659  -4.620  11.687  1.00  0.00     0.020 C 
HETATM   13  C   UNL     1      39.031  -6.421  10.609  1.00  0.00     0.128 C 
HETATM   14  C   UNL     1      40.319  -5.785  10.099  1.00  0.00     0.033 C 
HETATM   15  C   UNL     1      41.502  -6.149  10.993  1.00  0.00     0.013 C 
ENDROOT
BRANCH   3  16
HETATM   16  C   UNL     1      42.940  -7.754  13.299  1.00  0.00     0.114 C 
BRANCH  16  17
HETATM   17  C   UNL     1      43.057  -9.045  12.518  1.00  0.00     0.218 C 
HETATM   18  N   UNL     1      43.937  -9.006  11.466  1.00  0.00    -0.359 N 
HETATM   19  H   UNL     1      44.676  -8.298  11.511  1.00  0.00     0.162 HD
HETATM   20  O   UNL     1      42.394 -10.035  12.824  1.00  0.00    -0.274 OA
BRANCH  18  21
HETATM   21  C   UNL     1      44.163 -10.184  10.649  1.00  0.00     0.148 C 
BRANCH  21  22
HETATM   22  C   UNL     1      45.221  -9.996   9.559  1.00  0.00     0.186 C 
BRANCH  22  23
HETATM   23  O   UNL     1      45.278 -11.106   8.657  1.00  0.00    -0.394 OA
HETATM   24  C   UNL     1      45.955 -10.794   7.447  1.00  0.00     0.201 C 
ENDBRANCH  22  23
ENDBRANCH  21  22
ENDBRANCH  18  21
ENDBRANCH  16  17
ENDBRANCH   3  16
BRANCH  11  25
HETATM   25  C   UNL     1      37.703  -6.847  12.755  1.00  0.00     0.176 C 
BRANCH  25  26
HETATM   26  O   UNL     1      38.271  -8.138  12.855  1.00  0.00    -0.400 OA
HETATM   27  H   UNL     1      37.698  -8.713  12.301  1.00  0.00     0.209 HD
ENDBRANCH  25  26
ENDBRANCH  11  25
BRANCH   7  28
HETATM   28  N   UNL     1      40.721  -8.264  18.070  1.00  0.00    -0.305 N 
HETATM   29  C   UNL     1      41.625  -7.854  19.022  1.00  0.00     0.231 C 
HETATM   30  O   UNL     1      42.505  -7.017  18.841  1.00  0.00    -0.272 OA
HETATM   31  H   UNL     1      39.958  -8.877  18.303  1.00  0.00     0.171 HD
BRANCH  29  32
HETATM   32  C   UNL     1      41.450  -8.564  20.387  1.00  0.00     0.030 C 
HETATM   33  C   UNL     1      41.259  -7.508  21.485  1.00  0.00     0.025 C 
HETATM   34  C   UNL     1      40.204  -9.468  20.339  1.00  0.00     0.025 C 
HETATM   35  C   UNL     1      42.668  -9.445  20.715  1.00  0.00     0.025 C 
ENDBRANCH  29  32
ENDBRANCH   7  28
BRANCH  13  36
HETATM   36  O   UNL     1      39.214  -7.838  10.689  1.00  0.00    -0.395 OA
HETATM   37  H   UNL     1      38.884  -8.132  11.558  1.00  0.00     0.210 HD
ENDBRANCH  13  36
TORSDOF 10
ENDMDL
MODEL 7
REMARK VINA RESULT:      -7.0      3.523      8.314
REMARK  10 active torsions:
REMARK  status: ('A' for Active; 'I' for Inactive)
REMARK    1  A    between atoms: C_3  and  C_4 
REMARK    2  A    between atoms: C_4  and  C_5 
REMARK       I    between atoms: C_5  and  N_6 
REMARK    3  A    between atoms: N_6  and  C_7 
REMARK    4  A    between atoms: C_7  and  C_8 
REMARK    5  A    between atoms: C_8  and  O_9 
REMARK    6  A    between atoms: C_15  and  N_16 
REMARK       I    between atoms: N_16  and  C_17 
REMARK    7  A    between atoms: C_17  and  C_18 
REMARK    8  A    between atoms: C_26  and  C_27 
REMARK    9  A    between atoms: C_27  and  O_28 
REMARK   10  A    between atoms: C_30  and  O_31 
ROOT
HETATM    1  C   UNL     1      43.829 -11.936   3.496  1.00  0.00     0.016 C 
HETATM    2  C   UNL     1      42.730 -12.689   4.315  1.00  0.00    -0.030 C 
HETATM    3  C   UNL     1      41.315 -12.037   4.009  1.00  0.00     0.056 C 
HETATM    4  C   UNL     1      40.795 -12.485   2.663  1.00  0.00     0.056 A 
HETATM    5  C   UNL     1      41.261 -13.606   2.006  1.00  0.00     0.012 A 
HETATM    6  S   UNL     1      40.342 -13.897   0.605  1.00  0.00    -0.055 SA
HETATM    7  C   UNL     1      39.486 -12.450   0.907  1.00  0.00     0.173 A 
HETATM    8  N   UNL     1      39.795 -11.793   1.997  1.00  0.00    -0.227 NA
HETATM    9  C   UNL     1      42.408 -14.454   2.411  1.00  0.00     0.055 C 
HETATM   10  C   UNL     1      42.792 -14.224   3.897  1.00  0.00     0.012 C 
HETATM   11  C   UNL     1      42.172 -15.297   4.895  1.00  0.00     0.008 C 
HETATM   12  C   UNL     1      43.081 -16.564   4.798  1.00  0.00     0.020 C 
HETATM   13  C   UNL     1      42.238 -14.801   6.371  1.00  0.00     0.128 C 
HETATM   14  C   UNL     1      43.359 -13.791   6.584  1.00  0.00     0.033 C 
HETATM   15  C   UNL     1      43.086 -12.497   5.823  1.00  0.00     0.013 C 
ENDROOT
BRANCH   3  16
HETATM   16  C   UNL     1      41.303 -10.502   4.146  1.00  0.00     0.114 C 
BRANCH  16  17
HETATM   17  C   UNL     1      40.268 -10.054   5.154  1.00  0.00     0.218 C 
HETATM   18  N   UNL     1      39.959 -10.982   6.116  1.00  0.00    -0.359 N 
HETATM   19  H   UNL     1      40.664 -11.701   6.305  1.00  0.00     0.162 HD
HETATM   20  O   UNL     1      39.755  -8.938   5.083  1.00  0.00    -0.274 OA
BRANCH  18  21
HETATM   21  C   UNL     1      38.999 -10.670   7.159  1.00  0.00     0.148 C 
BRANCH  21  22
HETATM   22  C   UNL     1      39.544  -9.753   8.258  1.00  0.00     0.186 C 
BRANCH  22  23
HETATM   23  O   UNL     1      38.714  -8.608   8.474  1.00  0.00    -0.394 OA
HETATM   24  C   UNL     1      39.457  -7.398   8.545  1.00  0.00     0.201 C 
ENDBRANCH  22  23
ENDBRANCH  21  22
ENDBRANCH  18  21
ENDBRANCH  16  17
ENDBRANCH   3  16
BRANCH  11  25
HETATM   25  C   UNL     1      40.744 -15.801   4.549  1.00  0.00     0.176 C 
BRANCH  25  26
HETATM   26  O   UNL     1      40.114 -16.486   5.613  1.00  0.00    -0.400 OA
HETATM   27  H   UNL     1      40.792 -16.536   6.323  1.00  0.00     0.209 HD
ENDBRANCH  25  26
ENDBRANCH  11  25
BRANCH   7  28
HETATM   28  N   UNL     1      38.591 -12.154  -0.080  1.00  0.00    -0.305 N 
HETATM   29  C   UNL     1      38.880 -11.286  -1.107  1.00  0.00     0.231 C 
HETATM   30  O   UNL     1      39.923 -10.644  -1.211  1.00  0.00    -0.272 OA
HETATM   31  H   UNL     1      37.765 -12.729  -0.099  1.00  0.00     0.171 HD
BRANCH  29  32
HETATM   32  C   UNL     1      37.745 -11.165  -2.153  1.00  0.00     0.030 C 
HETATM   33  C   UNL     1      38.279 -10.436  -3.395  1.00  0.00     0.025 C 
HETATM   34  C   UNL     1      37.272 -12.571  -2.563  1.00  0.00     0.025 C 
HETATM   35  C   UNL     1      36.539 -10.403  -1.577  1.00  0.00     0.025 C 
ENDBRANCH  29  32
ENDBRANCH   7  28
BRANCH  13  36
HETATM   36  O   UNL     1      40.998 -14.208   6.769  1.00  0.00    -0.395 OA
HETATM   37  H   UNL     1      40.397 -14.927   7.038  1.00  0.00     0.210 HD
ENDBRANCH  13  36
TORSDOF 10
ENDMDL
MODEL 8
REMARK VINA RESULT:      -6.9      5.241     10.448
REMARK  10 active torsions:
REMARK  status: ('A' for Active; 'I' for Inactive)
REMARK    1  A    between atoms: C_3  and  C_4 
REMARK    2  A    between atoms: C_4  and  C_5 
REMARK       I    between atoms: C_5  and  N_6 
REMARK    3  A    between atoms: N_6  and  C_7 
REMARK    4  A    between atoms: C_7  and  C_8 
REMARK    5  A    between atoms: C_8  and  O_9 
REMARK    6  A    between atoms: C_15  and  N_16 
REMARK       I    between atoms: N_16  and  C_17 
REMARK    7  A    between atoms: C_17  and  C_18 
REMARK    8  A    between atoms: C_26  and  C_27 
REMARK    9  A    between atoms: C_27  and  O_28 
REMARK   10  A    between atoms: C_30  and  O_31 
ROOT
HETATM    1  C   UNL     1      40.024 -10.164  13.411  1.00  0.00     0.016 C 
HETATM    2  C   UNL     1      40.875  -8.858  13.288  1.00  0.00    -0.030 C 
HETATM    3  C   UNL     1      41.649  -8.869  11.901  1.00  0.00     0.056 C 
HETATM    4  C   UNL     1      40.719  -8.518  10.764  1.00  0.00     0.056 A 
HETATM    5  C   UNL     1      39.512  -7.872  10.943  1.00  0.00     0.012 A 
HETATM    6  S   UNL     1      38.812  -7.494   9.440  1.00  0.00    -0.055 SA
HETATM    7  C   UNL     1      40.093  -8.324   8.673  1.00  0.00     0.173 A 
HETATM    8  N   UNL     1      41.028  -8.818   9.446  1.00  0.00    -0.227 NA
HETATM    9  C   UNL     1      38.866  -7.551  12.239  1.00  0.00     0.055 C 
HETATM   10  C   UNL     1      39.876  -7.624  13.414  1.00  0.00     0.012 C 
HETATM   11  C   UNL     1      40.480  -6.213  13.832  1.00  0.00     0.008 C 
HETATM   12  C   UNL     1      39.403  -5.522  14.727  1.00  0.00     0.020 C 
HETATM   13  C   UNL     1      41.759  -6.381  14.706  1.00  0.00     0.128 C 
HETATM   14  C   UNL     1      41.777  -7.715  15.443  1.00  0.00     0.033 C 
HETATM   15  C   UNL     1      41.901  -8.881  14.465  1.00  0.00     0.013 C 
ENDROOT
BRANCH   3  16
HETATM   16  C   UNL     1      42.412 -10.180  11.634  1.00  0.00     0.114 C 
BRANCH  16  17
HETATM   17  C   UNL     1      43.610  -9.940  10.742  1.00  0.00     0.218 C 
HETATM   18  N   UNL     1      43.622 -10.670   9.581  1.00  0.00    -0.359 N 
HETATM   19  H   UNL     1      42.716 -11.006   9.240  1.00  0.00     0.162 HD
HETATM   20  O   UNL     1      44.495  -9.149  11.067  1.00  0.00    -0.274 OA
BRANCH  18  21
HETATM   21  C   UNL     1      44.702 -10.517   8.624  1.00  0.00     0.148 C 
BRANCH  21  22
HETATM   22  C   UNL     1      44.278 -10.712   7.165  1.00  0.00     0.186 C 
BRANCH  22  23
HETATM   23  O   UNL     1      42.890 -10.433   6.959  1.00  0.00    -0.394 OA
HETATM   24  C   UNL     1      42.236 -11.442   6.200  1.00  0.00     0.201 C 
ENDBRANCH  22  23
ENDBRANCH  21  22
ENDBRANCH  18  21
ENDBRANCH  16  17
ENDBRANCH   3  16
BRANCH  11  25
HETATM   25  C   UNL     1      40.736  -5.213  12.671  1.00  0.00     0.176 C 
BRANCH  25  26
HETATM   26  O   UNL     1      41.332  -4.001  13.090  1.00  0.00    -0.400 OA
HETATM   27  H   UNL     1      40.591  -3.359  13.152  1.00  0.00     0.209 HD
ENDBRANCH  25  26
ENDBRANCH  11  25
BRANCH   7  28
HETATM   28  N   UNL     1      39.941  -8.389   7.318  1.00  0.00    -0.305 N 
HETATM   29  C   UNL     1      39.226  -9.388   6.699  1.00  0.00     0.231 C 
HETATM   30  O   UNL     1      38.717 -10.347   7.274  1.00  0.00    -0.272 OA
HETATM   31  H   UNL     1      40.248  -7.575   6.811  1.00  0.00     0.171 HD
BRANCH  29  32
HETATM   32  C   UNL     1      39.120  -9.212   5.165  1.00  0.00     0.030 C 
HETATM   33  C   UNL     1      37.903  -8.334   4.839  1.00  0.00     0.025 C 
HETATM   34  C   UNL     1      40.391  -8.522   4.638  1.00  0.00     0.025 C 
HETATM   35  C   UNL     1      38.987 -10.573   4.458  1.00  0.00     0.025 C 
ENDBRANCH  29  32
ENDBRANCH   7  28
BRANCH  13  36
HETATM   36  O   UNL     1      42.943  -6.275  13.910  1.00  0.00    -0.395 OA
HETATM   37  H   UNL     1      43.003  -7.076  13.357  1.00  0.00     0.210 HD
ENDBRANCH  13  36
TORSDOF 10
ENDMDL
MODEL 9
REMARK VINA RESULT:      -6.9      2.299      3.047
REMARK  10 active torsions:
REMARK  status: ('A' for Active; 'I' for Inactive)
REMARK    1  A    between atoms: C_3  and  C_4 
REMARK    2  A    between atoms: C_4  and  C_5 
REMARK       I    between atoms: C_5  and  N_6 
REMARK    3  A    between atoms: N_6  and  C_7 
REMARK    4  A    between atoms: C_7  and  C_8 
REMARK    5  A    between atoms: C_8  and  O_9 
REMARK    6  A    between atoms: C_15  and  N_16 
REMARK       I    between atoms: N_16  and  C_17 
REMARK    7  A    between atoms: C_17  and  C_18 
REMARK    8  A    between atoms: C_26  and  C_27 
REMARK    9  A    between atoms: C_27  and  O_28 
REMARK   10  A    between atoms: C_30  and  O_31 
ROOT
HETATM    1  C   UNL     1      43.985 -11.656   3.772  1.00  0.00     0.016 C 
HETATM    2  C   UNL     1      42.560 -12.104   4.231  1.00  0.00    -0.030 C 
HETATM    3  C   UNL     1      42.523 -12.175   5.817  1.00  0.00     0.056 C 
HETATM    4  C   UNL     1      42.417 -10.792   6.416  1.00  0.00     0.056 A 
HETATM    5  C   UNL     1      41.985  -9.689   5.706  1.00  0.00     0.012 A 
HETATM    6  S   UNL     1      41.836  -8.343   6.733  1.00  0.00    -0.055 SA
HETATM    7  C   UNL     1      42.473  -9.286   8.007  1.00  0.00     0.173 A 
HETATM    8  N   UNL     1      42.741 -10.540   7.740  1.00  0.00    -0.227 NA
HETATM    9  C   UNL     1      41.702  -9.632   4.251  1.00  0.00     0.055 C 
HETATM   10  C   UNL     1      41.518 -11.050   3.648  1.00  0.00     0.012 C 
HETATM   11  C   UNL     1      39.998 -11.499   3.512  1.00  0.00     0.008 C 
HETATM   12  C   UNL     1      39.453 -10.816   2.216  1.00  0.00     0.020 C 
HETATM   13  C   UNL     1      39.879 -13.038   3.300  1.00  0.00     0.128 C 
HETATM   14  C   UNL     1      41.139 -13.628   2.677  1.00  0.00     0.033 C 
HETATM   15  C   UNL     1      42.324 -13.526   3.633  1.00  0.00     0.013 C 
ENDROOT
BRANCH   3  16
HETATM   16  C   UNL     1      43.692 -12.974   6.424  1.00  0.00     0.114 C 
BRANCH  16  17
HETATM   17  C   UNL     1      43.282 -14.400   6.718  1.00  0.00     0.218 C 
HETATM   18  N   UNL     1      44.255 -15.340   6.491  1.00  0.00    -0.359 N 
HETATM   19  H   UNL     1      45.225 -15.011   6.509  1.00  0.00     0.162 HD
HETATM   20  O   UNL     1      42.150 -14.665   7.122  1.00  0.00    -0.274 OA
BRANCH  18  21
HETATM   21  C   UNL     1      44.001 -16.744   6.757  1.00  0.00     0.148 C 
BRANCH  21  22
HETATM   22  C   UNL     1      43.398 -17.506   5.573  1.00  0.00     0.186 C 
BRANCH  22  23
HETATM   23  O   UNL     1      43.948 -17.089   4.320  1.00  0.00    -0.394 OA
HETATM   24  C   UNL     1      43.046 -17.274   3.237  1.00  0.00     0.201 C 
ENDBRANCH  22  23
ENDBRANCH  21  22
ENDBRANCH  18  21
ENDBRANCH  16  17
ENDBRANCH   3  16
BRANCH  11  25
HETATM   25  C   UNL     1      39.046 -11.025   4.644  1.00  0.00     0.176 C 
BRANCH  25  26
HETATM   26  O   UNL     1      38.130 -10.029   4.231  1.00  0.00    -0.400 OA
HETATM   27  H   UNL     1      37.998  -9.459   5.021  1.00  0.00     0.209 HD
ENDBRANCH  25  26
ENDBRANCH  11  25
BRANCH   7  28
HETATM   28  N   UNL     1      42.650  -8.569   9.154  1.00  0.00    -0.305 N 
HETATM   29  C   UNL     1      41.841  -8.720  10.255  1.00  0.00     0.231 C 
HETATM   30  O   UNL     1      40.852  -9.448  10.306  1.00  0.00    -0.272 OA
HETATM   31  H   UNL     1      43.505  -8.038   9.202  1.00  0.00     0.171 HD
BRANCH  29  32
HETATM   32  C   UNL     1      42.279  -7.862  11.468  1.00  0.00     0.030 C 
HETATM   33  C   UNL     1      42.586  -6.435  10.992  1.00  0.00     0.025 C 
HETATM   34  C   UNL     1      41.137  -7.811  12.499  1.00  0.00     0.025 C 
HETATM   35  C   UNL     1      43.518  -8.464  12.154  1.00  0.00     0.025 C 
ENDBRANCH  29  32
ENDBRANCH   7  28
BRANCH  13  36
HETATM   36  O   UNL     1      39.616 -13.707   4.537  1.00  0.00    -0.395 OA
HETATM   37  H   UNL     1      39.264 -14.592   4.328  1.00  0.00     0.210 HD
ENDBRANCH  13  36
TORSDOF 10
ENDMDL
MODEL 10
REMARK VINA RESULT:      -6.8      4.443      9.795
REMARK  10 active torsions:
REMARK  status: ('A' for Active; 'I' for Inactive)
REMARK    1  A    between atoms: C_3  and  C_4 
REMARK    2  A    between atoms: C_4  and  C_5 
REMARK       I    between atoms: C_5  and  N_6 
REMARK    3  A    between atoms: N_6  and  C_7 
REMARK    4  A    between atoms: C_7  and  C_8 
REMARK    5  A    between atoms: C_8  and  O_9 
REMARK    6  A    between atoms: C_15  and  N_16 
REMARK       I    between atoms: N_16  and  C_17 
REMARK    7  A    between atoms: C_17  and  C_18 
REMARK    8  A    between atoms: C_26  and  C_27 
REMARK    9  A    between atoms: C_27  and  O_28 
REMARK   10  A    between atoms: C_30  and  O_31 
ROOT
HETATM    1  C   UNL     1      42.228  -5.584  11.061  1.00  0.00     0.016 C 
HETATM    2  C   UNL     1      41.184  -6.681  11.448  1.00  0.00    -0.030 C 
HETATM    3  C   UNL     1      40.884  -7.586  10.177  1.00  0.00     0.056 C 
HETATM    4  C   UNL     1      42.008  -8.564   9.936  1.00  0.00     0.056 A 
HETATM    5  C   UNL     1      42.931  -8.914  10.902  1.00  0.00     0.012 A 
HETATM    6  S   UNL     1      43.945 -10.154  10.333  1.00  0.00    -0.055 SA
HETATM    7  C   UNL     1      43.172 -10.045   8.815  1.00  0.00     0.173 A 
HETATM    8  N   UNL     1      42.182  -9.193   8.712  1.00  0.00    -0.227 NA
HETATM    9  C   UNL     1      43.071  -8.307  12.248  1.00  0.00     0.055 C 
HETATM   10  C   UNL     1      41.798  -7.519  12.655  1.00  0.00     0.012 C 
HETATM   11  C   UNL     1      40.799  -8.343  13.579  1.00  0.00     0.008 C 
HETATM   12  C   UNL     1      41.377  -8.268  15.028  1.00  0.00     0.020 C 
HETATM   13  C   UNL     1      39.388  -7.682  13.616  1.00  0.00     0.128 C 
HETATM   14  C   UNL     1      39.449  -6.188  13.320  1.00  0.00     0.033 C 
HETATM   15  C   UNL     1      39.886  -5.931  11.881  1.00  0.00     0.013 C 
ENDROOT
BRANCH   3  16
HETATM   16  C   UNL     1      40.548  -6.774   8.912  1.00  0.00     0.114 C 
BRANCH  16  17
HETATM   17  C   UNL     1      39.492  -7.472   8.083  1.00  0.00     0.218 C 
HETATM   18  N   UNL     1      39.973  -8.172   7.005  1.00  0.00    -0.359 N 
HETATM   19  H   UNL     1      40.952  -8.471   7.051  1.00  0.00     0.162 HD
HETATM   20  O   UNL     1      38.299  -7.392   8.375  1.00  0.00    -0.274 OA
BRANCH  18  21
HETATM   21  C   UNL     1      39.069  -8.909   6.141  1.00  0.00     0.148 C 
BRANCH  21  22
HETATM   22  C   UNL     1      38.982 -10.404   6.456  1.00  0.00     0.186 C 
BRANCH  22  23
HETATM   23  O   UNL     1      39.477 -11.216   5.387  1.00  0.00    -0.394 OA
HETATM   24  C   UNL     1      39.766 -12.547   5.798  1.00  0.00     0.201 C 
ENDBRANCH  22  23
ENDBRANCH  21  22
ENDBRANCH  18  21
ENDBRANCH  16  17
ENDBRANCH   3  16
BRANCH  11  25
HETATM   25  C   UNL     1      40.686  -9.861  13.271  1.00  0.00     0.176 C 
BRANCH  25  26
HETATM   26  O   UNL     1      39.561 -10.476  13.869  1.00  0.00    -0.400 OA
HETATM   27  H   UNL     1      39.141 -10.996  13.149  1.00  0.00     0.209 HD
ENDBRANCH  25  26
ENDBRANCH  11  25
BRANCH   7  28
HETATM   28  N   UNL     1      43.732 -10.865   7.879  1.00  0.00    -0.305 N 
HETATM   29  C   UNL     1      43.393 -10.811   6.547  1.00  0.00     0.231 C 
HETATM   30  O   UNL     1      42.522 -10.087   6.073  1.00  0.00    -0.272 OA
HETATM   31  H   UNL     1      44.523 -11.402   8.196  1.00  0.00     0.171 HD
BRANCH  29  32
HETATM   32  C   UNL     1      44.215 -11.778   5.660  1.00  0.00     0.030 C 
HETATM   33  C   UNL     1      43.856 -13.226   6.025  1.00  0.00     0.025 C 
HETATM   34  C   UNL     1      43.869 -11.535   4.179  1.00  0.00     0.025 C 
HETATM   35  C   UNL     1      45.726 -11.551   5.843  1.00  0.00     0.025 C 
ENDBRANCH  29  32
ENDBRANCH   7  28
BRANCH  13  36
HETATM   36  O   UNL     1      38.504  -8.305  12.679  1.00  0.00    -0.395 OA
HETATM   37  H   UNL     1      38.240  -9.169  13.046  1.00  0.00     0.210 HD
ENDBRANCH  13  36
TORSDOF 10
ENDMDL
