MODEL 1
REMARK VINA RESULT:      -9.4      0.000      0.000
REMARK  6 active torsions:
REMARK  status: ('A' for Active; 'I' for Inactive)
REMARK    1  A    between atoms: O_2  and  C_3 
REMARK    2  A    between atoms: C_7  and  C_8 
REMARK    3  A    between atoms: C_8  and  N_9 
REMARK       I    between atoms: N_9  and  C_10 
REMARK    4  A    between atoms: C_10  and  C_12 
REMARK    5  A    between atoms: N_14  and  C_15 
REMARK    6  A    between atoms: C_23  and  C_27 
ROOT
HETATM    1  C   UNL     1      43.193 -13.952   5.588  1.00  0.00     0.060 C 
HETATM    2  C   UNL     1      42.312 -13.579   4.589  1.00  0.00     0.115 C 
HETATM    3  N   UNL     1      42.210 -14.594   3.654  1.00  0.00    -0.321 N 
HETATM    4  C   UNL     1      42.902 -15.704   4.143  1.00  0.00     0.051 A 
HETATM    5  C   UNL     1      42.977 -17.042   3.693  1.00  0.00     0.043 A 
HETATM    6  C   UNL     1      43.799 -17.962   4.368  1.00  0.00    -0.021 A 
HETATM    7  C   UNL     1      44.510 -17.543   5.493  1.00  0.00     0.013 A 
HETATM    8  C   UNL     1      44.397 -16.232   5.970  1.00  0.00     0.016 A 
HETATM    9  C   UNL     1      43.568 -15.302   5.307  1.00  0.00     0.008 A 
ENDROOT
BRANCH   1  10
HETATM   10  C   UNL     1      43.665 -13.120   6.694  1.00  0.00     0.254 C 
HETATM   11  N   UNL     1      44.235 -11.926   6.314  1.00  0.00    -0.353 N 
HETATM   12  H   UNL     1      44.100 -11.611   5.365  1.00  0.00     0.163 HD
HETATM   13  O   UNL     1      43.549 -13.461   7.866  1.00  0.00    -0.268 OA
BRANCH  11  14
HETATM   14  C   UNL     1      44.691 -10.961   7.285  1.00  0.00     0.161 C 
BRANCH  14  15
HETATM   15  C   UNL     1      43.538 -10.236   7.929  1.00  0.00    -0.038 A 
HETATM   16  C   UNL     1      42.519  -9.684   7.142  1.00  0.00     0.009 A 
HETATM   17  C   UNL     1      41.454  -9.011   7.737  1.00  0.00     0.003 A 
HETATM   18  C   UNL     1      41.394  -8.875   9.126  1.00  0.00     0.037 A 
HETATM   19  C   UNL     1      42.404  -9.410   9.925  1.00  0.00     0.068 A 
HETATM   20  C   UNL     1      43.473 -10.081   9.322  1.00  0.00     0.045 A 
BRANCH  19  21
HETATM   21  O   UNL     1      42.468  -9.346  11.290  1.00  0.00    -0.356 OA
HETATM   22  C   UNL     1      43.547  -8.604  11.846  1.00  0.00     0.210 C 
ENDBRANCH  19  21
ENDBRANCH  14  15
ENDBRANCH  11  14
ENDBRANCH   1  10
BRANCH   3  23
HETATM   23  C   UNL     1      41.532 -14.465   2.402  1.00  0.00     0.039 A 
HETATM   24  C   UNL     1      41.738 -13.341   1.590  1.00  0.00     0.030 A 
HETATM   25  C   UNL     1      41.050 -13.209   0.380  1.00  0.00     0.002 A 
HETATM   26  C   UNL     1      40.149 -14.191  -0.024  1.00  0.00     0.000 A 
HETATM   27  C   UNL     1      39.926 -15.303   0.786  1.00  0.00     0.002 A 
HETATM   28  C   UNL     1      40.607 -15.439   1.998  1.00  0.00     0.030 A 
ENDBRANCH   3  23
BRANCH   6  29
HETATM   29  C   UNL     1      43.886 -19.334   3.894  1.00  0.00     0.010 A 
HETATM   30  C   UNL     1      43.749 -19.876   2.593  1.00  0.00     0.152 A 
HETATM   31  N   UNL     1      43.921 -21.201   2.561  1.00  0.00    -0.187 NA
HETATM   32  N   UNL     1      44.167 -21.513   3.843  1.00  0.00    -0.289 N 
HETATM   33  H   UNL     1      44.337 -22.487   4.076  1.00  0.00     0.188 HD
HETATM   34  C   UNL     1      44.161 -20.435   4.679  1.00  0.00     0.123 A 
ENDBRANCH   6  29
TORSDOF 6
ENDMDL
MODEL 2
REMARK VINA RESULT:      -9.1      1.925      2.721
REMARK  6 active torsions:
REMARK  status: ('A' for Active; 'I' for Inactive)
REMARK    1  A    between atoms: O_2  and  C_3 
REMARK    2  A    between atoms: C_7  and  C_8 
REMARK    3  A    between atoms: C_8  and  N_9 
REMARK       I    between atoms: N_9  and  C_10 
REMARK    4  A    between atoms: C_10  and  C_12 
REMARK    5  A    between atoms: N_14  and  C_15 
REMARK    6  A    between atoms: C_23  and  C_27 
ROOT
HETATM    1  C   UNL     1      40.806 -13.540   4.290  1.00  0.00     0.060 C 
HETATM    2  C   UNL     1      40.234 -13.243   3.066  1.00  0.00     0.115 C 
HETATM    3  N   UNL     1      40.652 -14.163   2.120  1.00  0.00    -0.321 N 
HETATM    4  C   UNL     1      41.367 -15.165   2.778  1.00  0.00     0.051 A 
HETATM    5  C   UNL     1      41.862 -16.415   2.338  1.00  0.00     0.043 A 
HETATM    6  C   UNL     1      42.597 -17.225   3.221  1.00  0.00    -0.021 A 
HETATM    7  C   UNL     1      42.805 -16.793   4.531  1.00  0.00     0.013 A 
HETATM    8  C   UNL     1      42.274 -15.579   4.983  1.00  0.00     0.016 A 
HETATM    9  C   UNL     1      41.526 -14.762   4.109  1.00  0.00     0.008 A 
ENDROOT
BRANCH   1  10
HETATM   10  C   UNL     1      40.712 -12.747   5.515  1.00  0.00     0.254 C 
HETATM   11  N   UNL     1      41.631 -11.725   5.611  1.00  0.00    -0.353 N 
HETATM   12  H   UNL     1      42.137 -11.457   4.780  1.00  0.00     0.163 HD
HETATM   13  O   UNL     1      39.873 -12.973   6.380  1.00  0.00    -0.268 OA
BRANCH  11  14
HETATM   14  C   UNL     1      41.630 -10.808   6.725  1.00  0.00     0.161 C 
BRANCH  14  15
HETATM   15  C   UNL     1      43.029 -10.493   7.184  1.00  0.00    -0.038 A 
HETATM   16  C   UNL     1      44.026 -11.477   7.148  1.00  0.00     0.009 A 
HETATM   17  C   UNL     1      45.320 -11.186   7.576  1.00  0.00     0.003 A 
HETATM   18  C   UNL     1      45.636  -9.911   8.051  1.00  0.00     0.037 A 
HETATM   19  C   UNL     1      44.654  -8.922   8.103  1.00  0.00     0.068 A 
HETATM   20  C   UNL     1      43.355  -9.220   7.677  1.00  0.00     0.045 A 
BRANCH  19  21
HETATM   21  O   UNL     1      44.828  -7.639   8.547  1.00  0.00    -0.356 OA
HETATM   22  C   UNL     1      43.700  -7.011   9.144  1.00  0.00     0.210 C 
ENDBRANCH  19  21
ENDBRANCH  14  15
ENDBRANCH  11  14
ENDBRANCH   1  10
BRANCH   3  23
HETATM   23  C   UNL     1      40.400 -14.041   0.718  1.00  0.00     0.039 A 
HETATM   24  C   UNL     1      39.727 -15.054   0.022  1.00  0.00     0.030 A 
HETATM   25  C   UNL     1      39.510 -14.941  -1.354  1.00  0.00     0.002 A 
HETATM   26  C   UNL     1      39.968 -13.822  -2.045  1.00  0.00     0.000 A 
HETATM   27  C   UNL     1      40.653 -12.818  -1.364  1.00  0.00     0.002 A 
HETATM   28  C   UNL     1      40.877 -12.927   0.011  1.00  0.00     0.030 A 
ENDBRANCH   3  23
BRANCH   6  29
HETATM   29  C   UNL     1      43.117 -18.503   2.762  1.00  0.00     0.010 A 
HETATM   30  C   UNL     1      42.541 -19.494   1.930  1.00  0.00     0.152 A 
HETATM   31  N   UNL     1      43.355 -20.532   1.719  1.00  0.00    -0.187 NA
HETATM   32  N   UNL     1      44.456 -20.212   2.416  1.00  0.00    -0.289 N 
HETATM   33  H   UNL     1      45.235 -20.862   2.408  1.00  0.00     0.188 HD
HETATM   34  C   UNL     1      44.367 -19.009   3.054  1.00  0.00     0.123 A 
ENDBRANCH   6  29
TORSDOF 6
ENDMDL
MODEL 3
REMARK VINA RESULT:      -9.1      2.527      5.520
REMARK  6 active torsions:
REMARK  status: ('A' for Active; 'I' for Inactive)
REMARK    1  A    between atoms: O_2  and  C_3 
REMARK    2  A    between atoms: C_7  and  C_8 
REMARK    3  A    between atoms: C_8  and  N_9 
REMARK       I    between atoms: N_9  and  C_10 
REMARK    4  A    between atoms: C_10  and  C_12 
REMARK    5  A    between atoms: N_14  and  C_15 
REMARK    6  A    between atoms: C_23  and  C_27 
ROOT
HETATM    1  C   UNL     1      40.906 -13.230   4.683  1.00  0.00     0.060 C 
HETATM    2  C   UNL     1      41.798 -14.281   4.802  1.00  0.00     0.115 C 
HETATM    3  N   UNL     1      41.849 -14.985   3.612  1.00  0.00    -0.321 N 
HETATM    4  C   UNL     1      41.111 -14.281   2.660  1.00  0.00     0.051 A 
HETATM    5  C   UNL     1      40.974 -14.445   1.262  1.00  0.00     0.043 A 
HETATM    6  C   UNL     1      40.115 -13.598   0.540  1.00  0.00    -0.021 A 
HETATM    7  C   UNL     1      39.430 -12.587   1.213  1.00  0.00     0.013 A 
HETATM    8  C   UNL     1      39.603 -12.390   2.588  1.00  0.00     0.016 A 
HETATM    9  C   UNL     1      40.469 -13.228   3.322  1.00  0.00     0.008 A 
ENDROOT
BRANCH   1  10
HETATM   10  C   UNL     1      40.478 -12.321   5.746  1.00  0.00     0.254 C 
HETATM   11  N   UNL     1      41.264 -11.201   5.897  1.00  0.00    -0.353 N 
HETATM   12  H   UNL     1      41.918 -10.972   5.163  1.00  0.00     0.163 HD
HETATM   13  O   UNL     1      39.489 -12.541   6.437  1.00  0.00    -0.268 OA
BRANCH  11  14
HETATM   14  C   UNL     1      40.940 -10.172   6.855  1.00  0.00     0.161 C 
BRANCH  14  15
HETATM   15  C   UNL     1      42.180  -9.571   7.464  1.00  0.00    -0.038 A 
HETATM   16  C   UNL     1      42.150  -8.278   8.003  1.00  0.00     0.009 A 
HETATM   17  C   UNL     1      43.297  -7.721   8.564  1.00  0.00     0.003 A 
HETATM   18  C   UNL     1      44.492  -8.444   8.591  1.00  0.00     0.037 A 
HETATM   19  C   UNL     1      44.543  -9.729   8.051  1.00  0.00     0.068 A 
HETATM   20  C   UNL     1      43.389 -10.282   7.485  1.00  0.00     0.045 A 
BRANCH  19  21
HETATM   21  O   UNL     1      45.644 -10.540   8.010  1.00  0.00    -0.356 OA
HETATM   22  C   UNL     1      45.888 -11.225   6.787  1.00  0.00     0.210 C 
ENDBRANCH  19  21
ENDBRANCH  14  15
ENDBRANCH  11  14
ENDBRANCH   1  10
BRANCH   3  23
HETATM   23  C   UNL     1      42.525 -16.235   3.449  1.00  0.00     0.039 A 
HETATM   24  C   UNL     1      42.206 -17.087   2.384  1.00  0.00     0.030 A 
HETATM   25  C   UNL     1      42.851 -18.319   2.248  1.00  0.00     0.002 A 
HETATM   26  C   UNL     1      43.813 -18.712   3.175  1.00  0.00     0.000 A 
HETATM   27  C   UNL     1      44.125 -17.878   4.247  1.00  0.00     0.002 A 
HETATM   28  C   UNL     1      43.480 -16.647   4.391  1.00  0.00     0.030 A 
ENDBRANCH   3  23
BRANCH   6  29
HETATM   29  C   UNL     1      39.964 -13.779  -0.896  1.00  0.00     0.010 A 
HETATM   30  C   UNL     1      40.532 -13.073  -1.984  1.00  0.00     0.152 A 
HETATM   31  N   UNL     1      40.161 -13.563  -3.171  1.00  0.00    -0.187 NA
HETATM   32  N   UNL     1      39.353 -14.584  -2.848  1.00  0.00    -0.289 N 
HETATM   33  H   UNL     1      38.938 -15.125  -3.600  1.00  0.00     0.188 HD
HETATM   34  C   UNL     1      39.204 -14.758  -1.503  1.00  0.00     0.123 A 
ENDBRANCH   6  29
TORSDOF 6
ENDMDL
MODEL 4
REMARK VINA RESULT:      -9.1      3.561      8.309
REMARK  6 active torsions:
REMARK  status: ('A' for Active; 'I' for Inactive)
REMARK    1  A    between atoms: O_2  and  C_3 
REMARK    2  A    between atoms: C_7  and  C_8 
REMARK    3  A    between atoms: C_8  and  N_9 
REMARK       I    between atoms: N_9  and  C_10 
REMARK    4  A    between atoms: C_10  and  C_12 
REMARK    5  A    between atoms: N_14  and  C_15 
REMARK    6  A    between atoms: C_23  and  C_27 
ROOT
HETATM    1  C   UNL     1      41.248 -13.678   1.732  1.00  0.00     0.060 C 
HETATM    2  C   UNL     1      41.497 -15.020   1.956  1.00  0.00     0.115 C 
HETATM    3  N   UNL     1      42.445 -15.158   2.955  1.00  0.00    -0.321 N 
HETATM    4  C   UNL     1      42.687 -13.896   3.499  1.00  0.00     0.051 A 
HETATM    5  C   UNL     1      43.416 -13.484   4.639  1.00  0.00     0.043 A 
HETATM    6  C   UNL     1      43.530 -12.115   4.938  1.00  0.00    -0.021 A 
HETATM    7  C   UNL     1      42.897 -11.182   4.117  1.00  0.00     0.013 A 
HETATM    8  C   UNL     1      42.133 -11.590   3.018  1.00  0.00     0.016 A 
HETATM    9  C   UNL     1      42.003 -12.962   2.712  1.00  0.00     0.008 A 
ENDROOT
BRANCH   1  10
HETATM   10  C   UNL     1      40.403 -13.108   0.684  1.00  0.00     0.254 C 
HETATM   11  N   UNL     1      40.978 -13.077  -0.567  1.00  0.00    -0.353 N 
HETATM   12  H   UNL     1      41.813 -13.622  -0.723  1.00  0.00     0.163 HD
HETATM   13  O   UNL     1      39.267 -12.701   0.907  1.00  0.00    -0.268 OA
BRANCH  11  14
HETATM   14  C   UNL     1      40.253 -12.607  -1.723  1.00  0.00     0.161 C 
BRANCH  14  15
HETATM   15  C   UNL     1      40.695 -11.227  -2.132  1.00  0.00    -0.038 A 
HETATM   16  C   UNL     1      40.279 -10.682  -3.354  1.00  0.00     0.009 A 
HETATM   17  C   UNL     1      40.690  -9.406  -3.734  1.00  0.00     0.003 A 
HETATM   18  C   UNL     1      41.526  -8.658  -2.902  1.00  0.00     0.037 A 
HETATM   19  C   UNL     1      41.958  -9.188  -1.686  1.00  0.00     0.068 A 
HETATM   20  C   UNL     1      41.546 -10.471  -1.312  1.00  0.00     0.045 A 
BRANCH  19  21
HETATM   21  O   UNL     1      42.777  -8.565  -0.784  1.00  0.00    -0.356 OA
HETATM   22  C   UNL     1      43.221  -7.256  -1.121  1.00  0.00     0.210 C 
ENDBRANCH  19  21
ENDBRANCH  14  15
ENDBRANCH  11  14
ENDBRANCH   1  10
BRANCH   3  23
HETATM   23  C   UNL     1      43.066 -16.398   3.304  1.00  0.00     0.039 A 
HETATM   24  C   UNL     1      43.253 -17.400   2.342  1.00  0.00     0.030 A 
HETATM   25  C   UNL     1      43.836 -18.619   2.697  1.00  0.00     0.002 A 
HETATM   26  C   UNL     1      44.228 -18.851   4.014  1.00  0.00     0.000 A 
HETATM   27  C   UNL     1      44.031 -17.866   4.979  1.00  0.00     0.002 A 
HETATM   28  C   UNL     1      43.445 -16.646   4.632  1.00  0.00     0.030 A 
ENDBRANCH   3  23
BRANCH   6  29
HETATM   29  C   UNL     1      44.293 -11.693   6.103  1.00  0.00     0.010 A 
HETATM   30  C   UNL     1      43.942 -11.649   7.474  1.00  0.00     0.152 A 
HETATM   31  N   UNL     1      44.940 -11.215   8.251  1.00  0.00    -0.187 NA
HETATM   32  N   UNL     1      45.933 -10.978   7.380  1.00  0.00    -0.289 N 
HETATM   33  H   UNL     1      46.817 -10.635   7.742  1.00  0.00     0.188 HD
HETATM   34  C   UNL     1      45.600 -11.251   6.085  1.00  0.00     0.123 A 
ENDBRANCH   6  29
TORSDOF 6
ENDMDL
MODEL 5
REMARK VINA RESULT:      -9.0      3.608      8.232
REMARK  6 active torsions:
REMARK  status: ('A' for Active; 'I' for Inactive)
REMARK    1  A    between atoms: O_2  and  C_3 
REMARK    2  A    between atoms: C_7  and  C_8 
REMARK    3  A    between atoms: C_8  and  N_9 
REMARK       I    between atoms: N_9  and  C_10 
REMARK    4  A    between atoms: C_10  and  C_12 
REMARK    5  A    between atoms: N_14  and  C_15 
REMARK    6  A    between atoms: C_23  and  C_27 
ROOT
HETATM    1  C   UNL     1      41.722 -12.654   1.735  1.00  0.00     0.060 C 
HETATM    2  C   UNL     1      42.403 -11.988   2.738  1.00  0.00     0.115 C 
HETATM    3  N   UNL     1      42.938 -12.904   3.627  1.00  0.00    -0.321 N 
HETATM    4  C   UNL     1      42.743 -14.182   3.100  1.00  0.00     0.051 A 
HETATM    5  C   UNL     1      43.232 -15.450   3.493  1.00  0.00     0.043 A 
HETATM    6  C   UNL     1      42.836 -16.601   2.789  1.00  0.00    -0.021 A 
HETATM    7  C   UNL     1      41.984 -16.470   1.693  1.00  0.00     0.013 A 
HETATM    8  C   UNL     1      41.539 -15.212   1.271  1.00  0.00     0.016 A 
HETATM    9  C   UNL     1      41.937 -14.048   1.963  1.00  0.00     0.008 A 
ENDROOT
BRANCH   1  10
HETATM   10  C   UNL     1      40.920 -12.050   0.671  1.00  0.00     0.254 C 
HETATM   11  N   UNL     1      41.474 -12.136  -0.586  1.00  0.00    -0.353 N 
HETATM   12  H   UNL     1      42.246 -12.770  -0.727  1.00  0.00     0.163 HD
HETATM   13  O   UNL     1      39.836 -11.519   0.889  1.00  0.00    -0.268 OA
BRANCH  11  14
HETATM   14  C   UNL     1      40.780 -11.648  -1.754  1.00  0.00     0.161 C 
BRANCH  14  15
HETATM   15  C   UNL     1      39.726 -12.618  -2.218  1.00  0.00    -0.038 A 
HETATM   16  C   UNL     1      40.020 -13.984  -2.332  1.00  0.00     0.009 A 
HETATM   17  C   UNL     1      39.046 -14.881  -2.764  1.00  0.00     0.003 A 
HETATM   18  C   UNL     1      37.766 -14.429  -3.093  1.00  0.00     0.037 A 
HETATM   19  C   UNL     1      37.458 -13.072  -2.994  1.00  0.00     0.068 A 
HETATM   20  C   UNL     1      38.441 -12.174  -2.564  1.00  0.00     0.045 A 
BRANCH  19  21
HETATM   21  O   UNL     1      36.250 -12.498  -3.286  1.00  0.00    -0.356 OA
HETATM   22  C   UNL     1      36.109 -11.116  -2.982  1.00  0.00     0.210 C 
ENDBRANCH  19  21
ENDBRANCH  14  15
ENDBRANCH  11  14
ENDBRANCH   1  10
BRANCH   3  23
HETATM   23  C   UNL     1      43.540 -12.553   4.875  1.00  0.00     0.039 A 
HETATM   24  C   UNL     1      43.075 -13.107   6.075  1.00  0.00     0.030 A 
HETATM   25  C   UNL     1      43.651 -12.737   7.293  1.00  0.00     0.002 A 
HETATM   26  C   UNL     1      44.688 -11.807   7.324  1.00  0.00     0.000 A 
HETATM   27  C   UNL     1      45.145 -11.239   6.137  1.00  0.00     0.002 A 
HETATM   28  C   UNL     1      44.571 -11.602   4.916  1.00  0.00     0.030 A 
ENDBRANCH   3  23
BRANCH   6  29
HETATM   29  C   UNL     1      43.329 -17.904   3.205  1.00  0.00     0.010 A 
HETATM   30  C   UNL     1      43.359 -19.145   2.524  1.00  0.00     0.152 A 
HETATM   31  N   UNL     1      43.920 -20.120   3.245  1.00  0.00    -0.187 NA
HETATM   32  N   UNL     1      44.251 -19.509   4.392  1.00  0.00    -0.289 N 
HETATM   33  H   UNL     1      44.704 -20.057   5.116  1.00  0.00     0.188 HD
HETATM   34  C   UNL     1      43.923 -18.184   4.419  1.00  0.00     0.123 A 
ENDBRANCH   6  29
TORSDOF 6
ENDMDL
MODEL 6
REMARK VINA RESULT:      -8.9      1.909      3.022
REMARK  6 active torsions:
REMARK  status: ('A' for Active; 'I' for Inactive)
REMARK    1  A    between atoms: O_2  and  C_3 
REMARK    2  A    between atoms: C_7  and  C_8 
REMARK    3  A    between atoms: C_8  and  N_9 
REMARK       I    between atoms: N_9  and  C_10 
REMARK    4  A    between atoms: C_10  and  C_12 
REMARK    5  A    between atoms: N_14  and  C_15 
REMARK    6  A    between atoms: C_23  and  C_27 
ROOT
HETATM    1  C   UNL     1      40.537 -12.692   4.891  1.00  0.00     0.060 C 
HETATM    2  C   UNL     1      40.028 -12.574   3.610  1.00  0.00     0.115 C 
HETATM    3  N   UNL     1      40.586 -13.543   2.795  1.00  0.00    -0.321 N 
HETATM    4  C   UNL     1      41.337 -14.403   3.597  1.00  0.00     0.051 A 
HETATM    5  C   UNL     1      41.965 -15.641   3.324  1.00  0.00     0.043 A 
HETATM    6  C   UNL     1      42.704 -16.287   4.331  1.00  0.00    -0.021 A 
HETATM    7  C   UNL     1      42.784 -15.707   5.597  1.00  0.00     0.013 A 
HETATM    8  C   UNL     1      42.121 -14.508   5.884  1.00  0.00     0.016 A 
HETATM    9  C   UNL     1      41.369 -13.855   4.885  1.00  0.00     0.008 A 
ENDROOT
BRANCH   1  10
HETATM   10  C   UNL     1      40.292 -11.791   6.017  1.00  0.00     0.254 C 
HETATM   11  N   UNL     1      41.279 -10.854   6.228  1.00  0.00    -0.353 N 
HETATM   12  H   UNL     1      41.963 -10.706   5.501  1.00  0.00     0.163 HD
HETATM   13  O   UNL     1      39.281 -11.864   6.707  1.00  0.00    -0.268 OA
BRANCH  11  14
HETATM   14  C   UNL     1      41.159  -9.848   7.256  1.00  0.00     0.161 C 
BRANCH  14  15
HETATM   15  C   UNL     1      42.508  -9.392   7.745  1.00  0.00    -0.038 A 
HETATM   16  C   UNL     1      42.640  -8.178   8.432  1.00  0.00     0.009 A 
HETATM   17  C   UNL     1      43.888  -7.754   8.882  1.00  0.00     0.003 A 
HETATM   18  C   UNL     1      45.024  -8.533   8.650  1.00  0.00     0.037 A 
HETATM   19  C   UNL     1      44.913  -9.740   7.960  1.00  0.00     0.068 A 
HETATM   20  C   UNL     1      43.658 -10.159   7.505  1.00  0.00     0.045 A 
BRANCH  19  21
HETATM   21  O   UNL     1      45.941 -10.594   7.664  1.00  0.00    -0.356 OA
HETATM   22  C   UNL     1      45.769 -11.431   6.526  1.00  0.00     0.210 C 
ENDBRANCH  19  21
ENDBRANCH  14  15
ENDBRANCH  11  14
ENDBRANCH   1  10
BRANCH   3  23
HETATM   23  C   UNL     1      40.422 -13.587   1.375  1.00  0.00     0.039 A 
HETATM   24  C   UNL     1      39.884 -14.721   0.752  1.00  0.00     0.030 A 
HETATM   25  C   UNL     1      39.753 -14.768  -0.638  1.00  0.00     0.002 A 
HETATM   26  C   UNL     1      40.165 -13.689  -1.417  1.00  0.00     0.000 A 
HETATM   27  C   UNL     1      40.717 -12.564  -0.807  1.00  0.00     0.002 A 
HETATM   28  C   UNL     1      40.854 -12.513   0.582  1.00  0.00     0.030 A 
ENDBRANCH   3  23
BRANCH   6  29
HETATM   29  C   UNL     1      43.361 -17.552   4.042  1.00  0.00     0.010 A 
HETATM   30  C   UNL     1      44.066 -18.444   4.886  1.00  0.00     0.152 A 
HETATM   31  N   UNL     1      44.511 -19.527   4.241  1.00  0.00    -0.187 NA
HETATM   32  N   UNL     1      44.093 -19.333   2.981  1.00  0.00    -0.289 N 
HETATM   33  H   UNL     1      44.313 -20.040   2.287  1.00  0.00     0.188 HD
HETATM   34  C   UNL     1      43.399 -18.170   2.809  1.00  0.00     0.123 A 
ENDBRANCH   6  29
TORSDOF 6
ENDMDL
MODEL 7
REMARK VINA RESULT:      -8.5      4.325      8.322
REMARK  6 active torsions:
REMARK  status: ('A' for Active; 'I' for Inactive)
REMARK    1  A    between atoms: O_2  and  C_3 
REMARK    2  A    between atoms: C_7  and  C_8 
REMARK    3  A    between atoms: C_8  and  N_9 
REMARK       I    between atoms: N_9  and  C_10 
REMARK    4  A    between atoms: C_10  and  C_12 
REMARK    5  A    between atoms: N_14  and  C_15 
REMARK    6  A    between atoms: C_23  and  C_27 
ROOT
HETATM    1  C   UNL     1      42.087 -12.372   2.363  1.00  0.00     0.060 C 
HETATM    2  C   UNL     1      42.055 -10.996   2.220  1.00  0.00     0.115 C 
HETATM    3  N   UNL     1      41.383 -10.663   1.057  1.00  0.00    -0.321 N 
HETATM    4  C   UNL     1      40.826 -11.830   0.530  1.00  0.00     0.051 A 
HETATM    5  C   UNL     1      39.911 -12.046  -0.526  1.00  0.00     0.043 A 
HETATM    6  C   UNL     1      39.543 -13.357  -0.876  1.00  0.00    -0.021 A 
HETATM    7  C   UNL     1      40.070 -14.428  -0.154  1.00  0.00     0.013 A 
HETATM    8  C   UNL     1      40.937 -14.215   0.924  1.00  0.00     0.016 A 
HETATM    9  C   UNL     1      41.306 -12.903   1.291  1.00  0.00     0.008 A 
ENDROOT
BRANCH   1  10
HETATM   10  C   UNL     1      42.800 -13.128   3.392  1.00  0.00     0.254 C 
HETATM   11  N   UNL     1      42.272 -14.371   3.662  1.00  0.00    -0.353 N 
HETATM   12  H   UNL     1      41.600 -14.757   3.016  1.00  0.00     0.163 HD
HETATM   13  O   UNL     1      43.794 -12.687   3.958  1.00  0.00    -0.268 OA
BRANCH  11  14
HETATM   14  C   UNL     1      42.895 -15.270   4.603  1.00  0.00     0.161 C 
BRANCH  14  15
HETATM   15  C   UNL     1      43.166 -16.617   3.986  1.00  0.00    -0.038 A 
HETATM   16  C   UNL     1      42.909 -16.839   2.627  1.00  0.00     0.009 A 
HETATM   17  C   UNL     1      43.157 -18.086   2.056  1.00  0.00     0.003 A 
HETATM   18  C   UNL     1      43.659 -19.131   2.836  1.00  0.00     0.037 A 
HETATM   19  C   UNL     1      43.911 -18.931   4.193  1.00  0.00     0.068 A 
HETATM   20  C   UNL     1      43.657 -17.678   4.762  1.00  0.00     0.045 A 
BRANCH  19  21
HETATM   21  O   UNL     1      44.398 -19.866   5.066  1.00  0.00    -0.356 OA
HETATM   22  C   UNL     1      43.629 -20.107   6.238  1.00  0.00     0.210 C 
ENDBRANCH  19  21
ENDBRANCH  14  15
ENDBRANCH  11  14
ENDBRANCH   1  10
BRANCH   3  23
HETATM   23  C   UNL     1      41.330  -9.343   0.512  1.00  0.00     0.039 A 
HETATM   24  C   UNL     1      40.537  -8.354   1.110  1.00  0.00     0.030 A 
HETATM   25  C   UNL     1      40.469  -7.073   0.554  1.00  0.00     0.002 A 
HETATM   26  C   UNL     1      41.183  -6.772  -0.603  1.00  0.00     0.000 A 
HETATM   27  C   UNL     1      41.960  -7.755  -1.213  1.00  0.00     0.002 A 
HETATM   28  C   UNL     1      42.030  -9.038  -0.665  1.00  0.00     0.030 A 
ENDBRANCH   3  23
BRANCH   6  29
HETATM   29  C   UNL     1      38.613 -13.576  -1.972  1.00  0.00     0.010 A 
HETATM   30  C   UNL     1      37.332 -13.029  -2.224  1.00  0.00     0.152 A 
HETATM   31  N   UNL     1      36.795 -13.469  -3.366  1.00  0.00    -0.187 NA
HETATM   32  N   UNL     1      37.729 -14.301  -3.850  1.00  0.00    -0.289 N 
HETATM   33  H   UNL     1      37.547 -14.768  -4.732  1.00  0.00     0.188 HD
HETATM   34  C   UNL     1      38.836 -14.398  -3.058  1.00  0.00     0.123 A 
ENDBRANCH   6  29
TORSDOF 6
ENDMDL
MODEL 8
REMARK VINA RESULT:      -8.4      3.409      7.743
REMARK  6 active torsions:
REMARK  status: ('A' for Active; 'I' for Inactive)
REMARK    1  A    between atoms: O_2  and  C_3 
REMARK    2  A    between atoms: C_7  and  C_8 
REMARK    3  A    between atoms: C_8  and  N_9 
REMARK       I    between atoms: N_9  and  C_10 
REMARK    4  A    between atoms: C_10  and  C_12 
REMARK    5  A    between atoms: N_14  and  C_15 
REMARK    6  A    between atoms: C_23  and  C_27 
ROOT
HETATM    1  C   UNL     1      40.677 -11.495   3.566  1.00  0.00     0.060 C 
HETATM    2  C   UNL     1      41.649 -10.872   4.328  1.00  0.00     0.115 C 
HETATM    3  N   UNL     1      42.531 -11.817   4.822  1.00  0.00    -0.321 N 
HETATM    4  C   UNL     1      42.224 -13.045   4.234  1.00  0.00     0.051 A 
HETATM    5  C   UNL     1      42.897 -14.289   4.240  1.00  0.00     0.043 A 
HETATM    6  C   UNL     1      42.329 -15.394   3.582  1.00  0.00    -0.021 A 
HETATM    7  C   UNL     1      41.119 -15.237   2.906  1.00  0.00     0.013 A 
HETATM    8  C   UNL     1      40.477 -13.995   2.855  1.00  0.00     0.016 A 
HETATM    9  C   UNL     1      41.041 -12.876   3.504  1.00  0.00     0.008 A 
ENDROOT
BRANCH   1  10
HETATM   10  C   UNL     1      39.499 -10.868   2.967  1.00  0.00     0.254 C 
HETATM   11  N   UNL     1      39.615 -10.591   1.623  1.00  0.00    -0.353 N 
HETATM   12  H   UNL     1      40.373 -11.015   1.111  1.00  0.00     0.163 HD
HETATM   13  O   UNL     1      38.488 -10.621   3.615  1.00  0.00    -0.268 OA
BRANCH  11  14
HETATM   14  C   UNL     1      38.519 -10.034   0.868  1.00  0.00     0.161 C 
BRANCH  14  15
HETATM   15  C   UNL     1      38.166 -10.896  -0.316  1.00  0.00    -0.038 A 
HETATM   16  C   UNL     1      37.291 -10.422  -1.302  1.00  0.00     0.009 A 
HETATM   17  C   UNL     1      36.962 -11.220  -2.395  1.00  0.00     0.003 A 
HETATM   18  C   UNL     1      37.499 -12.504  -2.518  1.00  0.00     0.037 A 
HETATM   19  C   UNL     1      38.365 -12.996  -1.542  1.00  0.00     0.068 A 
HETATM   20  C   UNL     1      38.688 -12.192  -0.443  1.00  0.00     0.045 A 
BRANCH  19  21
HETATM   21  O   UNL     1      38.956 -14.230  -1.539  1.00  0.00    -0.356 OA
HETATM   22  C   UNL     1      40.075 -14.401  -0.678  1.00  0.00     0.210 C 
ENDBRANCH  19  21
ENDBRANCH  14  15
ENDBRANCH  11  14
ENDBRANCH   1  10
BRANCH   3  23
HETATM   23  C   UNL     1      43.541 -11.539   5.795  1.00  0.00     0.039 A 
HETATM   24  C   UNL     1      43.195 -11.230   7.117  1.00  0.00     0.030 A 
HETATM   25  C   UNL     1      44.186 -10.932   8.056  1.00  0.00     0.002 A 
HETATM   26  C   UNL     1      45.528 -10.932   7.681  1.00  0.00     0.000 A 
HETATM   27  C   UNL     1      45.880 -11.221   6.364  1.00  0.00     0.002 A 
HETATM   28  C   UNL     1      44.893 -11.515   5.420  1.00  0.00     0.030 A 
ENDBRANCH   3  23
BRANCH   6  29
HETATM   29  C   UNL     1      43.016 -16.676   3.603  1.00  0.00     0.010 A 
HETATM   30  C   UNL     1      43.101 -17.698   2.627  1.00  0.00     0.152 A 
HETATM   31  N   UNL     1      43.856 -18.729   3.020  1.00  0.00    -0.187 NA
HETATM   32  N   UNL     1      44.256 -18.372   4.250  1.00  0.00    -0.289 N 
HETATM   33  H   UNL     1      44.856 -19.009   4.764  1.00  0.00     0.188 HD
HETATM   34  C   UNL     1      43.785 -17.153   4.644  1.00  0.00     0.123 A 
ENDBRANCH   6  29
TORSDOF 6
ENDMDL
MODEL 9
REMARK VINA RESULT:      -8.2      4.154      7.811
REMARK  6 active torsions:
REMARK  status: ('A' for Active; 'I' for Inactive)
REMARK    1  A    between atoms: O_2  and  C_3 
REMARK    2  A    between atoms: C_7  and  C_8 
REMARK    3  A    between atoms: C_8  and  N_9 
REMARK       I    between atoms: N_9  and  C_10 
REMARK    4  A    between atoms: C_10  and  C_12 
REMARK    5  A    between atoms: N_14  and  C_15 
REMARK    6  A    between atoms: C_23  and  C_27 
ROOT
HETATM    1  C   UNL     1      41.533 -13.120   1.711  1.00  0.00     0.060 C 
HETATM    2  C   UNL     1      42.198 -12.351   2.649  1.00  0.00     0.115 C 
HETATM    3  N   UNL     1      42.791 -13.174   3.591  1.00  0.00    -0.321 N 
HETATM    4  C   UNL     1      42.650 -14.494   3.162  1.00  0.00     0.051 A 
HETATM    5  C   UNL     1      43.206 -15.705   3.636  1.00  0.00     0.043 A 
HETATM    6  C   UNL     1      42.854 -16.922   3.025  1.00  0.00    -0.021 A 
HETATM    7  C   UNL     1      41.979 -16.912   1.939  1.00  0.00     0.013 A 
HETATM    8  C   UNL     1      41.467 -15.711   1.436  1.00  0.00     0.016 A 
HETATM    9  C   UNL     1      41.819 -14.482   2.035  1.00  0.00     0.008 A 
ENDROOT
BRANCH   1  10
HETATM   10  C   UNL     1      40.686 -12.633   0.623  1.00  0.00     0.254 C 
HETATM   11  N   UNL     1      41.372 -12.185  -0.484  1.00  0.00    -0.353 N 
HETATM   12  H   UNL     1      42.351 -12.414  -0.566  1.00  0.00     0.163 HD
HETATM   13  O   UNL     1      39.462 -12.636   0.694  1.00  0.00    -0.268 OA
BRANCH  11  14
HETATM   14  C   UNL     1      40.683 -11.735  -1.670  1.00  0.00     0.161 C 
BRANCH  14  15
HETATM   15  C   UNL     1      41.062 -10.322  -2.029  1.00  0.00    -0.038 A 
HETATM   16  C   UNL     1      42.057  -9.650  -1.306  1.00  0.00     0.009 A 
HETATM   17  C   UNL     1      42.406  -8.342  -1.635  1.00  0.00     0.003 A 
HETATM   18  C   UNL     1      41.764  -7.684  -2.688  1.00  0.00     0.037 A 
HETATM   19  C   UNL     1      40.765  -8.335  -3.413  1.00  0.00     0.068 A 
HETATM   20  C   UNL     1      40.416  -9.646  -3.074  1.00  0.00     0.045 A 
BRANCH  19  21
HETATM   21  O   UNL     1      40.059  -7.808  -4.459  1.00  0.00    -0.356 OA
HETATM   22  C   UNL     1      40.210  -8.450  -5.720  1.00  0.00     0.210 C 
ENDBRANCH  19  21
ENDBRANCH  14  15
ENDBRANCH  11  14
ENDBRANCH   1  10
BRANCH   3  23
HETATM   23  C   UNL     1      43.396 -12.704   4.798  1.00  0.00     0.039 A 
HETATM   24  C   UNL     1      44.320 -11.651   4.772  1.00  0.00     0.030 A 
HETATM   25  C   UNL     1      44.929 -11.216   5.952  1.00  0.00     0.002 A 
HETATM   26  C   UNL     1      44.627 -11.832   7.164  1.00  0.00     0.000 A 
HETATM   27  C   UNL     1      43.722 -12.891   7.197  1.00  0.00     0.002 A 
HETATM   28  C   UNL     1      43.113 -13.333   6.019  1.00  0.00     0.030 A 
ENDBRANCH   3  23
BRANCH   6  29
HETATM   29  C   UNL     1      43.416 -18.167   3.524  1.00  0.00     0.010 A 
HETATM   30  C   UNL     1      43.625 -19.413   2.884  1.00  0.00     0.152 A 
HETATM   31  N   UNL     1      44.194 -20.319   3.684  1.00  0.00    -0.187 NA
HETATM   32  N   UNL     1      44.352 -19.658   4.841  1.00  0.00    -0.289 N 
HETATM   33  H   UNL     1      44.777 -20.149   5.621  1.00  0.00     0.188 HD
HETATM   34  C   UNL     1      43.907 -18.369   4.798  1.00  0.00     0.123 A 
ENDBRANCH   6  29
TORSDOF 6
ENDMDL
MODEL 10
REMARK VINA RESULT:      -8.2      4.258      8.690
REMARK  6 active torsions:
REMARK  status: ('A' for Active; 'I' for Inactive)
REMARK    1  A    between atoms: O_2  and  C_3 
REMARK    2  A    between atoms: C_7  and  C_8 
REMARK    3  A    between atoms: C_8  and  N_9 
REMARK       I    between atoms: N_9  and  C_10 
REMARK    4  A    between atoms: C_10  and  C_12 
REMARK    5  A    between atoms: N_14  and  C_15 
REMARK    6  A    between atoms: C_23  and  C_27 
ROOT
HETATM    1  C   UNL     1      40.742 -13.233   2.030  1.00  0.00     0.060 C 
HETATM    2  C   UNL     1      40.104 -13.997   1.068  1.00  0.00     0.115 C 
HETATM    3  N   UNL     1      39.919 -13.244  -0.078  1.00  0.00    -0.321 N 
HETATM    4  C   UNL     1      40.597 -12.034   0.085  1.00  0.00     0.051 A 
HETATM    5  C   UNL     1      40.886 -10.986  -0.819  1.00  0.00     0.043 A 
HETATM    6  C   UNL     1      41.566  -9.841  -0.367  1.00  0.00    -0.021 A 
HETATM    7  C   UNL     1      41.970  -9.770   0.966  1.00  0.00     0.013 A 
HETATM    8  C   UNL     1      41.730 -10.828   1.850  1.00  0.00     0.016 A 
HETATM    9  C   UNL     1      41.057 -11.986   1.406  1.00  0.00     0.008 A 
ENDROOT
BRANCH   1  10
HETATM   10  C   UNL     1      41.015 -13.618   3.414  1.00  0.00     0.254 C 
HETATM   11  N   UNL     1      42.332 -13.920   3.679  1.00  0.00    -0.353 N 
HETATM   12  H   UNL     1      43.030 -13.657   2.999  1.00  0.00     0.163 HD
HETATM   13  O   UNL     1      40.136 -13.657   4.268  1.00  0.00    -0.268 OA
BRANCH  11  14
HETATM   14  C   UNL     1      42.780 -14.254   5.009  1.00  0.00     0.161 C 
BRANCH  14  15
HETATM   15  C   UNL     1      43.120 -15.716   5.130  1.00  0.00    -0.038 A 
HETATM   16  C   UNL     1      43.101 -16.347   6.380  1.00  0.00     0.009 A 
HETATM   17  C   UNL     1      43.419 -17.699   6.493  1.00  0.00     0.003 A 
HETATM   18  C   UNL     1      43.765 -18.439   5.359  1.00  0.00     0.037 A 
HETATM   19  C   UNL     1      43.797 -17.825   4.107  1.00  0.00     0.068 A 
HETATM   20  C   UNL     1      43.482 -16.466   4.001  1.00  0.00     0.045 A 
BRANCH  19  21
HETATM   21  O   UNL     1      44.120 -18.430   2.924  1.00  0.00    -0.356 OA
HETATM   22  C   UNL     1      43.066 -19.096   2.238  1.00  0.00     0.210 C 
ENDBRANCH  19  21
ENDBRANCH  14  15
ENDBRANCH  11  14
ENDBRANCH   1  10
BRANCH   3  23
HETATM   23  C   UNL     1      39.129 -13.664  -1.193  1.00  0.00     0.039 A 
HETATM   24  C   UNL     1      39.440 -14.841  -1.887  1.00  0.00     0.030 A 
HETATM   25  C   UNL     1      38.680 -15.230  -2.993  1.00  0.00     0.002 A 
HETATM   26  C   UNL     1      37.612 -14.444  -3.420  1.00  0.00     0.000 A 
HETATM   27  C   UNL     1      37.307 -13.263  -2.747  1.00  0.00     0.002 A 
HETATM   28  C   UNL     1      38.065 -12.867  -1.642  1.00  0.00     0.030 A 
ENDBRANCH   3  23
BRANCH   6  29
HETATM   29  C   UNL     1      41.848  -8.757  -1.296  1.00  0.00     0.010 A 
HETATM   30  C   UNL     1      41.216  -8.385  -2.506  1.00  0.00     0.152 A 
HETATM   31  N   UNL     1      41.763  -7.302  -3.066  1.00  0.00    -0.187 NA
HETATM   32  N   UNL     1      42.750  -6.977  -2.218  1.00  0.00    -0.289 N 
HETATM   33  H   UNL     1      43.321  -6.166  -2.433  1.00  0.00     0.188 HD
HETATM   34  C   UNL     1      42.841  -7.812  -1.142  1.00  0.00     0.123 A 
ENDBRANCH   6  29
TORSDOF 6
ENDMDL
