MODEL 1
REMARK VINA RESULT:      -9.1      0.000      0.000
REMARK  10 active torsions:
REMARK  status: ('A' for Active; 'I' for Inactive)
REMARK    1  A    between atoms: C_6  and  C_7 
REMARK    2  A    between atoms: C_7  and  C_8 
REMARK       I    between atoms: C_8  and  N_9 
REMARK    3  A    between atoms: N_9  and  C_10 
REMARK    4  A    between atoms: C_10  and  C_11 
REMARK    5  A    between atoms: C_11  and  N_12 
REMARK    6  A    between atoms: C_17  and  C_18 
REMARK    7  A    between atoms: C_27  and  C_28 
REMARK    8  A    between atoms: C_28  and  O_29 
REMARK    9  A    between atoms: O_29  and  C_30 
REMARK   10  A    between atoms: C_30  and  C_31 
ROOT
HETATM    1  C   UNL     1      40.190 -15.727   6.654  1.00  0.00     0.071 C 
HETATM    2  C   UNL     1      41.011 -16.022   5.425  1.00  0.00     0.048 C 
HETATM    3  N   UNL     1      40.256 -16.262   4.275  1.00  0.00    -0.229 NA
HETATM    4  C   UNL     1      40.832 -15.974   3.156  1.00  0.00     0.170 C 
HETATM    5  N   UNL     1      42.320 -15.548   3.068  1.00  0.00    -0.318 N 
HETATM    6  C   UNL     1      42.449 -14.569   2.240  1.00  0.00     0.011 C 
HETATM    7  C   UNL     1      43.118 -16.199   4.120  1.00  0.00     0.169 C 
HETATM    8  S   UNL     1      40.030 -15.673   1.656  1.00  0.00    -0.086 SA
HETATM    9  C   UNL     1      41.307 -14.418   1.246  1.00  0.00     0.135 C 
HETATM   10  C   UNL     1      42.357 -15.940   5.379  1.00  0.00     0.069 C 
ENDROOT
BRANCH   6  11
HETATM   11  C   UNL     1      43.584 -13.594   2.362  1.00  0.00     0.156 C 
BRANCH  11  12
HETATM   12  C   UNL     1      43.146 -12.346   3.111  1.00  0.00     0.223 C 
HETATM   13  N   UNL     1      41.895 -12.363   3.667  1.00  0.00    -0.359 N 
HETATM   14  H   UNL     1      41.316 -13.204   3.618  1.00  0.00     0.162 HD
HETATM   15  O   UNL     1      43.852 -11.340   3.137  1.00  0.00    -0.273 OA
BRANCH  13  16
HETATM   16  C   UNL     1      41.219 -11.150   4.154  1.00  0.00     0.150 C 
BRANCH  16  17
HETATM   17  C   UNL     1      40.362 -10.377   3.121  1.00  0.00     0.253 C 
BRANCH  17  18
HETATM   18  N   UNL     1      41.177  -9.427   2.264  1.00  0.00    -0.077 N 
HETATM   19  H   UNL     1      42.112  -9.340   2.708  1.00  0.00     0.279 HD
HETATM   20  C   UNL     1      41.439  -9.928   0.870  1.00  0.00     0.269 C 
HETATM   21  C   UNL     1      40.587  -8.043   2.233  1.00  0.00     0.269 C 
ENDBRANCH  17  18
ENDBRANCH  16  17
ENDBRANCH  13  16
ENDBRANCH  11  12
ENDBRANCH   6  11
BRANCH   7  22
HETATM   22  C   UNL     1      43.386 -17.663   3.762  1.00  0.00     0.008 A 
HETATM   23  C   UNL     1      43.940 -18.580   4.674  1.00  0.00     0.125 A 
HETATM   24  F   UNL     1      44.285 -18.186   5.905  1.00  0.00    -0.205 F 
HETATM   25  C   UNL     1      44.146 -19.917   4.347  1.00  0.00     0.043 A 
HETATM   26  C   UNL     1      43.821 -20.376   3.077  1.00  0.00     0.003 A 
HETATM   27  C   UNL     1      43.309 -19.489   2.134  1.00  0.00     0.001 A 
HETATM   28  C   UNL     1      43.103 -18.145   2.465  1.00  0.00     0.013 A 
ENDBRANCH   7  22
BRANCH  10  29
HETATM   29  C   UNL     1      43.174 -15.218   6.362  1.00  0.00     0.294 C 
HETATM   30  O   UNL     1      43.336 -15.722   7.469  1.00  0.00    -0.259 OA
BRANCH  29  31
HETATM   31  O   UNL     1      43.371 -13.953   5.967  1.00  0.00    -0.313 OA
BRANCH  31  32
HETATM   32  C   UNL     1      42.960 -12.938   6.896  1.00  0.00     0.217 C 
BRANCH  32  33
HETATM   33  C   UNL     1      44.096 -12.014   7.222  1.00  0.00    -0.034 A 
HETATM   34  C   UNL     1      45.194 -11.919   6.356  1.00  0.00     0.009 A 
HETATM   35  C   UNL     1      46.236 -11.035   6.634  1.00  0.00     0.001 A 
HETATM   36  C   UNL     1      46.195 -10.245   7.781  1.00  0.00     0.000 A 
HETATM   37  C   UNL     1      45.113 -10.340   8.655  1.00  0.00     0.001 A 
HETATM   38  C   UNL     1      44.068 -11.223   8.378  1.00  0.00     0.009 A 
ENDBRANCH  32  33
ENDBRANCH  31  32
ENDBRANCH  29  31
ENDBRANCH  10  29
TORSDOF 10
ENDMDL
MODEL 2
REMARK VINA RESULT:      -8.8      2.689      6.450
REMARK  10 active torsions:
REMARK  status: ('A' for Active; 'I' for Inactive)
REMARK    1  A    between atoms: C_6  and  C_7 
REMARK    2  A    between atoms: C_7  and  C_8 
REMARK       I    between atoms: C_8  and  N_9 
REMARK    3  A    between atoms: N_9  and  C_10 
REMARK    4  A    between atoms: C_10  and  C_11 
REMARK    5  A    between atoms: C_11  and  N_12 
REMARK    6  A    between atoms: C_17  and  C_18 
REMARK    7  A    between atoms: C_27  and  C_28 
REMARK    8  A    between atoms: C_28  and  O_29 
REMARK    9  A    between atoms: O_29  and  C_30 
REMARK   10  A    between atoms: C_30  and  C_31 
ROOT
HETATM    1  C   UNL     1      40.262 -15.680   7.081  1.00  0.00     0.071 C 
HETATM    2  C   UNL     1      40.676 -14.697   6.017  1.00  0.00     0.048 C 
HETATM    3  N   UNL     1      39.804 -13.616   5.864  1.00  0.00    -0.229 NA
HETATM    4  C   UNL     1      40.335 -12.527   5.422  1.00  0.00     0.170 C 
HETATM    5  N   UNL     1      41.804 -12.451   4.931  1.00  0.00    -0.318 N 
HETATM    6  C   UNL     1      42.357 -11.370   5.361  1.00  0.00     0.011 C 
HETATM    7  C   UNL     1      42.226 -13.728   4.333  1.00  0.00     0.169 C 
HETATM    8  S   UNL     1      39.680 -10.938   5.604  1.00  0.00    -0.086 SA
HETATM    9  C   UNL     1      41.385 -10.274   5.771  1.00  0.00     0.135 C 
HETATM   10  C   UNL     1      41.846 -14.758   5.347  1.00  0.00     0.069 C 
ENDROOT
BRANCH   6  11
HETATM   11  C   UNL     1      43.843 -11.283   5.556  1.00  0.00     0.156 C 
BRANCH  11  12
HETATM   12  C   UNL     1      44.197 -11.317   7.033  1.00  0.00     0.223 C 
HETATM   13  N   UNL     1      44.943 -10.276   7.517  1.00  0.00    -0.359 N 
HETATM   14  H   UNL     1      45.196  -9.493   6.911  1.00  0.00     0.162 HD
HETATM   15  O   UNL     1      43.899 -12.281   7.736  1.00  0.00    -0.273 OA
BRANCH  13  16
HETATM   16  C   UNL     1      45.610 -10.311   8.829  1.00  0.00     0.150 C 
BRANCH  16  17
HETATM   17  C   UNL     1      44.840  -9.668  10.010  1.00  0.00     0.253 C 
BRANCH  17  18
HETATM   18  N   UNL     1      43.561 -10.406  10.357  1.00  0.00    -0.077 N 
HETATM   19  H   UNL     1      43.512 -11.240   9.740  1.00  0.00     0.279 HD
HETATM   20  C   UNL     1      43.522 -10.942  11.762  1.00  0.00     0.269 C 
HETATM   21  C   UNL     1      42.335  -9.584  10.064  1.00  0.00     0.269 C 
ENDBRANCH  17  18
ENDBRANCH  16  17
ENDBRANCH  13  16
ENDBRANCH  11  12
ENDBRANCH   6  11
BRANCH   7  22
HETATM   22  C   UNL     1      41.633 -13.886   2.931  1.00  0.00     0.008 A 
HETATM   23  C   UNL     1      41.807 -12.924   1.919  1.00  0.00     0.125 A 
HETATM   24  F   UNL     1      42.488 -11.800   2.163  1.00  0.00    -0.205 F 
HETATM   25  C   UNL     1      41.291 -13.096   0.637  1.00  0.00     0.043 A 
HETATM   26  C   UNL     1      40.561 -14.238   0.333  1.00  0.00     0.003 A 
HETATM   27  C   UNL     1      40.334 -15.193   1.320  1.00  0.00     0.001 A 
HETATM   28  C   UNL     1      40.852 -15.018   2.608  1.00  0.00     0.013 A 
ENDBRANCH   7  22
BRANCH  10  29
HETATM   29  C   UNL     1      43.011 -15.532   5.789  1.00  0.00     0.294 C 
HETATM   30  O   UNL     1      43.480 -15.299   6.899  1.00  0.00    -0.259 OA
BRANCH  29  31
HETATM   31  O   UNL     1      43.561 -16.182   4.754  1.00  0.00    -0.313 OA
BRANCH  31  32
HETATM   32  C   UNL     1      44.303 -17.367   5.084  1.00  0.00     0.217 C 
BRANCH  32  33
HETATM   33  C   UNL     1      43.966 -18.490   4.148  1.00  0.00    -0.034 A 
HETATM   34  C   UNL     1      43.418 -18.215   2.888  1.00  0.00     0.009 A 
HETATM   35  C   UNL     1      43.136 -19.252   2.000  1.00  0.00     0.001 A 
HETATM   36  C   UNL     1      43.392 -20.572   2.365  1.00  0.00     0.000 A 
HETATM   37  C   UNL     1      43.927 -20.858   3.620  1.00  0.00     0.001 A 
HETATM   38  C   UNL     1      44.210 -19.822   4.510  1.00  0.00     0.009 A 
ENDBRANCH  32  33
ENDBRANCH  31  32
ENDBRANCH  29  31
ENDBRANCH  10  29
TORSDOF 10
ENDMDL
MODEL 3
REMARK VINA RESULT:      -8.5      2.318      6.005
REMARK  10 active torsions:
REMARK  status: ('A' for Active; 'I' for Inactive)
REMARK    1  A    between atoms: C_6  and  C_7 
REMARK    2  A    between atoms: C_7  and  C_8 
REMARK       I    between atoms: C_8  and  N_9 
REMARK    3  A    between atoms: N_9  and  C_10 
REMARK    4  A    between atoms: C_10  and  C_11 
REMARK    5  A    between atoms: C_11  and  N_12 
REMARK    6  A    between atoms: C_17  and  C_18 
REMARK    7  A    between atoms: C_27  and  C_28 
REMARK    8  A    between atoms: C_28  and  O_29 
REMARK    9  A    between atoms: O_29  and  C_30 
REMARK   10  A    between atoms: C_30  and  C_31 
ROOT
HETATM    1  C   UNL     1      40.207 -14.829   6.922  1.00  0.00     0.071 C 
HETATM    2  C   UNL     1      40.610 -14.204   5.611  1.00  0.00     0.048 C 
HETATM    3  N   UNL     1      39.845 -13.094   5.246  1.00  0.00    -0.229 NA
HETATM    4  C   UNL     1      40.439 -12.227   4.498  1.00  0.00     0.170 C 
HETATM    5  N   UNL     1      41.849 -12.465   3.898  1.00  0.00    -0.318 N 
HETATM    6  C   UNL     1      42.554 -11.391   3.990  1.00  0.00     0.011 C 
HETATM    7  C   UNL     1      42.070 -13.895   3.624  1.00  0.00     0.169 C 
HETATM    8  S   UNL     1      39.977 -10.573   4.308  1.00  0.00    -0.086 SA
HETATM    9  C   UNL     1      41.750 -10.113   4.170  1.00  0.00     0.135 C 
HETATM   10  C   UNL     1      41.691 -14.581   4.896  1.00  0.00     0.069 C 
ENDROOT
BRANCH   6  11
HETATM   11  C   UNL     1      44.053 -11.449   4.046  1.00  0.00     0.156 C 
BRANCH  11  12
HETATM   12  C   UNL     1      44.541 -11.432   5.485  1.00  0.00     0.223 C 
HETATM   13  N   UNL     1      43.621 -11.726   6.456  1.00  0.00    -0.359 N 
HETATM   14  H   UNL     1      42.669 -11.996   6.204  1.00  0.00     0.162 HD
HETATM   15  O   UNL     1      45.687 -11.083   5.764  1.00  0.00    -0.273 OA
BRANCH  13  16
HETATM   16  C   UNL     1      43.854 -11.462   7.885  1.00  0.00     0.150 C 
BRANCH  16  17
HETATM   17  C   UNL     1      43.500 -10.041   8.390  1.00  0.00     0.253 C 
BRANCH  17  18
HETATM   18  N   UNL     1      42.837 -10.043   9.754  1.00  0.00    -0.077 N 
HETATM   19  H   UNL     1      42.586 -11.028   9.971  1.00  0.00     0.279 HD
HETATM   20  C   UNL     1      43.737  -9.600  10.875  1.00  0.00     0.269 C 
HETATM   21  C   UNL     1      41.550  -9.263   9.761  1.00  0.00     0.269 C 
ENDBRANCH  17  18
ENDBRANCH  16  17
ENDBRANCH  13  16
ENDBRANCH  11  12
ENDBRANCH   6  11
BRANCH   7  22
HETATM   22  C   UNL     1      41.322 -14.321   2.359  1.00  0.00     0.008 A 
HETATM   23  C   UNL     1      40.619 -15.536   2.264  1.00  0.00     0.125 A 
HETATM   24  F   UNL     1      40.604 -16.392   3.291  1.00  0.00    -0.205 F 
HETATM   25  C   UNL     1      39.914 -15.896   1.119  1.00  0.00     0.043 A 
HETATM   26  C   UNL     1      39.909 -15.052   0.016  1.00  0.00     0.003 A 
HETATM   27  C   UNL     1      40.627 -13.860   0.058  1.00  0.00     0.001 A 
HETATM   28  C   UNL     1      41.336 -13.500   1.210  1.00  0.00     0.013 A 
ENDBRANCH   7  22
BRANCH  10  29
HETATM   29  C   UNL     1      42.809 -15.363   5.439  1.00  0.00     0.294 C 
HETATM   30  O   UNL     1      43.845 -14.774   5.730  1.00  0.00    -0.259 OA
BRANCH  29  31
HETATM   31  O   UNL     1      42.600 -16.672   5.246  1.00  0.00    -0.313 OA
BRANCH  31  32
HETATM   32  C   UNL     1      43.767 -17.506   5.309  1.00  0.00     0.217 C 
BRANCH  32  33
HETATM   33  C   UNL     1      43.729 -18.565   4.246  1.00  0.00    -0.034 A 
HETATM   34  C   UNL     1      44.050 -19.891   4.565  1.00  0.00     0.009 A 
HETATM   35  C   UNL     1      43.982 -20.886   3.591  1.00  0.00     0.001 A 
HETATM   36  C   UNL     1      43.600 -20.565   2.290  1.00  0.00     0.000 A 
HETATM   37  C   UNL     1      43.289 -19.247   1.959  1.00  0.00     0.001 A 
HETATM   38  C   UNL     1      43.356 -18.250   2.933  1.00  0.00     0.009 A 
ENDBRANCH  32  33
ENDBRANCH  31  32
ENDBRANCH  29  31
ENDBRANCH  10  29
TORSDOF 10
ENDMDL
MODEL 4
REMARK VINA RESULT:      -8.4      3.634      7.722
REMARK  10 active torsions:
REMARK  status: ('A' for Active; 'I' for Inactive)
REMARK    1  A    between atoms: C_6  and  C_7 
REMARK    2  A    between atoms: C_7  and  C_8 
REMARK       I    between atoms: C_8  and  N_9 
REMARK    3  A    between atoms: N_9  and  C_10 
REMARK    4  A    between atoms: C_10  and  C_11 
REMARK    5  A    between atoms: C_11  and  N_12 
REMARK    6  A    between atoms: C_17  and  C_18 
REMARK    7  A    between atoms: C_27  and  C_28 
REMARK    8  A    between atoms: C_28  and  O_29 
REMARK    9  A    between atoms: O_29  and  C_30 
REMARK   10  A    between atoms: C_30  and  C_31 
ROOT
HETATM    1  C   UNL     1      43.202 -12.688   2.998  1.00  0.00     0.071 C 
HETATM    2  C   UNL     1      42.958 -11.829   4.212  1.00  0.00     0.048 C 
HETATM    3  N   UNL     1      42.766 -10.476   3.927  1.00  0.00    -0.229 NA
HETATM    4  C   UNL     1      42.040  -9.823   4.770  1.00  0.00     0.170 C 
HETATM    5  N   UNL     1      41.545 -10.443   6.102  1.00  0.00    -0.318 N 
HETATM    6  C   UNL     1      40.316 -10.115   6.311  1.00  0.00     0.011 C 
HETATM    7  C   UNL     1      42.517 -11.419   6.623  1.00  0.00     0.169 C 
HETATM    8  S   UNL     1      41.216  -8.338   4.456  1.00  0.00    -0.086 SA
HETATM    9  C   UNL     1      39.844  -8.889   5.545  1.00  0.00     0.135 C 
HETATM   10  C   UNL     1      42.803 -12.315   5.461  1.00  0.00     0.069 C 
ENDROOT
BRANCH   6  11
HETATM   11  C   UNL     1      39.415 -10.977   7.147  1.00  0.00     0.156 C 
BRANCH  11  12
HETATM   12  C   UNL     1      39.269 -10.406   8.548  1.00  0.00     0.223 C 
HETATM   13  N   UNL     1      40.229  -9.523   8.962  1.00  0.00    -0.359 N 
HETATM   14  H   UNL     1      40.973  -9.229   8.326  1.00  0.00     0.162 HD
HETATM   15  O   UNL     1      38.376 -10.792   9.300  1.00  0.00    -0.273 OA
BRANCH  13  16
HETATM   16  C   UNL     1      40.394  -9.121  10.368  1.00  0.00     0.150 C 
BRANCH  16  17
HETATM   17  C   UNL     1      41.557  -9.788  11.143  1.00  0.00     0.253 C 
BRANCH  17  18
HETATM   18  N   UNL     1      41.170 -10.215  12.546  1.00  0.00    -0.077 N 
HETATM   19  H   UNL     1      41.631 -11.128  12.726  1.00  0.00     0.279 HD
HETATM   20  C   UNL     1      41.664  -9.294  13.627  1.00  0.00     0.269 C 
HETATM   21  C   UNL     1      39.690 -10.450  12.679  1.00  0.00     0.269 C 
ENDBRANCH  17  18
ENDBRANCH  16  17
ENDBRANCH  13  16
ENDBRANCH  11  12
ENDBRANCH   6  11
BRANCH   7  22
HETATM   22  C   UNL     1      43.712 -10.702   7.255  1.00  0.00     0.008 A 
HETATM   23  C   UNL     1      45.015 -11.233   7.234  1.00  0.00     0.125 A 
HETATM   24  F   UNL     1      45.253 -12.423   6.672  1.00  0.00    -0.205 F 
HETATM   25  C   UNL     1      46.100 -10.555   7.782  1.00  0.00     0.043 A 
HETATM   26  C   UNL     1      45.908  -9.322   8.393  1.00  0.00     0.003 A 
HETATM   27  C   UNL     1      44.626  -8.784   8.469  1.00  0.00     0.001 A 
HETATM   28  C   UNL     1      43.537  -9.468   7.918  1.00  0.00     0.013 A 
ENDBRANCH   7  22
BRANCH  10  29
HETATM   29  C   UNL     1      42.484 -13.714   5.770  1.00  0.00     0.294 C 
HETATM   30  O   UNL     1      41.403 -13.964   6.294  1.00  0.00    -0.259 OA
BRANCH  29  31
HETATM   31  O   UNL     1      43.585 -14.472   5.689  1.00  0.00    -0.313 OA
BRANCH  31  32
HETATM   32  C   UNL     1      43.416 -15.856   6.034  1.00  0.00     0.217 C 
BRANCH  32  33
HETATM   33  C   UNL     1      43.466 -16.726   4.812  1.00  0.00    -0.034 A 
HETATM   34  C   UNL     1      44.258 -17.883   4.806  1.00  0.00     0.009 A 
HETATM   35  C   UNL     1      44.281 -18.714   3.687  1.00  0.00     0.001 A 
HETATM   36  C   UNL     1      43.520 -18.395   2.564  1.00  0.00     0.000 A 
HETATM   37  C   UNL     1      42.738 -17.241   2.556  1.00  0.00     0.001 A 
HETATM   38  C   UNL     1      42.713 -16.408   3.674  1.00  0.00     0.009 A 
ENDBRANCH  32  33
ENDBRANCH  31  32
ENDBRANCH  29  31
ENDBRANCH  10  29
TORSDOF 10
ENDMDL
MODEL 5
REMARK VINA RESULT:      -8.2      4.032      7.817
REMARK  10 active torsions:
REMARK  status: ('A' for Active; 'I' for Inactive)
REMARK    1  A    between atoms: C_6  and  C_7 
REMARK    2  A    between atoms: C_7  and  C_8 
REMARK       I    between atoms: C_8  and  N_9 
REMARK    3  A    between atoms: N_9  and  C_10 
REMARK    4  A    between atoms: C_10  and  C_11 
REMARK    5  A    between atoms: C_11  and  N_12 
REMARK    6  A    between atoms: C_17  and  C_18 
REMARK    7  A    between atoms: C_27  and  C_28 
REMARK    8  A    between atoms: C_28  and  O_29 
REMARK    9  A    between atoms: O_29  and  C_30 
REMARK   10  A    between atoms: C_30  and  C_31 
ROOT
HETATM    1  C   UNL     1      41.133 -11.819   2.666  1.00  0.00     0.071 C 
HETATM    2  C   UNL     1      41.495 -11.234   4.007  1.00  0.00     0.048 C 
HETATM    3  N   UNL     1      41.687  -9.851   3.996  1.00  0.00    -0.229 NA
HETATM    4  C   UNL     1      41.449  -9.244   5.109  1.00  0.00     0.170 C 
HETATM    5  N   UNL     1      41.133 -10.002   6.424  1.00  0.00    -0.318 N 
HETATM    6  C   UNL     1      40.171  -9.416   7.051  1.00  0.00     0.011 C 
HETATM    7  C   UNL     1      41.833 -11.296   6.468  1.00  0.00     0.169 C 
HETATM    8  S   UNL     1      41.100  -7.561   5.287  1.00  0.00    -0.086 SA
HETATM    9  C   UNL     1      39.944  -7.964   6.657  1.00  0.00     0.135 C 
HETATM   10  C   UNL     1      41.511 -11.939   5.158  1.00  0.00     0.069 C 
ENDROOT
BRANCH   6  11
HETATM   11  C   UNL     1      39.281 -10.175   7.991  1.00  0.00     0.156 C 
BRANCH  11  12
HETATM   12  C   UNL     1      39.243  -9.508   9.355  1.00  0.00     0.223 C 
HETATM   13  N   UNL     1      40.078 -10.012  10.316  1.00  0.00    -0.359 N 
HETATM   14  H   UNL     1      40.730 -10.766  10.094  1.00  0.00     0.162 HD
HETATM   15  O   UNL     1      38.433  -8.616   9.604  1.00  0.00    -0.273 OA
BRANCH  13  16
HETATM   16  C   UNL     1      39.946  -9.681  11.744  1.00  0.00     0.150 C 
BRANCH  16  17
HETATM   17  C   UNL     1      41.257  -9.661  12.570  1.00  0.00     0.253 C 
BRANCH  17  18
HETATM   18  N   UNL     1      42.503  -9.601  11.707  1.00  0.00    -0.077 N 
HETATM   19  H   UNL     1      42.190  -9.627  10.716  1.00  0.00     0.279 HD
HETATM   20  C   UNL     1      43.287  -8.325  11.847  1.00  0.00     0.269 C 
HETATM   21  C   UNL     1      43.390 -10.799  11.907  1.00  0.00     0.269 C 
ENDBRANCH  17  18
ENDBRANCH  16  17
ENDBRANCH  13  16
ENDBRANCH  11  12
ENDBRANCH   6  11
BRANCH   7  22
HETATM   22  C   UNL     1      43.315 -11.094   6.793  1.00  0.00     0.008 A 
HETATM   23  C   UNL     1      43.755 -10.367   7.915  1.00  0.00     0.125 A 
HETATM   24  F   UNL     1      42.872  -9.792   8.738  1.00  0.00    -0.205 F 
HETATM   25  C   UNL     1      45.106 -10.219   8.218  1.00  0.00     0.043 A 
HETATM   26  C   UNL     1      46.067 -10.782   7.388  1.00  0.00     0.003 A 
HETATM   27  C   UNL     1      45.671 -11.474   6.247  1.00  0.00     0.001 A 
HETATM   28  C   UNL     1      44.312 -11.620   5.943  1.00  0.00     0.013 A 
ENDBRANCH   7  22
BRANCH  10  29
HETATM   29  C   UNL     1      40.845 -13.233   5.344  1.00  0.00     0.294 C 
HETATM   30  O   UNL     1      39.820 -13.270   6.017  1.00  0.00    -0.259 OA
BRANCH  29  31
HETATM   31  O   UNL     1      41.656 -14.233   4.975  1.00  0.00    -0.313 OA
BRANCH  31  32
HETATM   32  C   UNL     1      41.032 -15.313   4.263  1.00  0.00     0.217 C 
BRANCH  32  33
HETATM   33  C   UNL     1      42.035 -16.365   3.893  1.00  0.00    -0.034 A 
HETATM   34  C   UNL     1      43.039 -16.729   4.801  1.00  0.00     0.009 A 
HETATM   35  C   UNL     1      43.953 -17.731   4.477  1.00  0.00     0.001 A 
HETATM   36  C   UNL     1      43.876 -18.374   3.243  1.00  0.00     0.000 A 
HETATM   37  C   UNL     1      42.888 -18.012   2.328  1.00  0.00     0.001 A 
HETATM   38  C   UNL     1      41.973 -17.010   2.650  1.00  0.00     0.009 A 
ENDBRANCH  32  33
ENDBRANCH  31  32
ENDBRANCH  29  31
ENDBRANCH  10  29
TORSDOF 10
ENDMDL
MODEL 6
REMARK VINA RESULT:      -8.1      3.434      6.921
REMARK  10 active torsions:
REMARK  status: ('A' for Active; 'I' for Inactive)
REMARK    1  A    between atoms: C_6  and  C_7 
REMARK    2  A    between atoms: C_7  and  C_8 
REMARK       I    between atoms: C_8  and  N_9 
REMARK    3  A    between atoms: N_9  and  C_10 
REMARK    4  A    between atoms: C_10  and  C_11 
REMARK    5  A    between atoms: C_11  and  N_12 
REMARK    6  A    between atoms: C_17  and  C_18 
REMARK    7  A    between atoms: C_27  and  C_28 
REMARK    8  A    between atoms: C_28  and  O_29 
REMARK    9  A    between atoms: O_29  and  C_30 
REMARK   10  A    between atoms: C_30  and  C_31 
ROOT
HETATM    1  C   UNL     1      40.325 -15.684   6.886  1.00  0.00     0.071 C 
HETATM    2  C   UNL     1      40.697 -14.432   6.136  1.00  0.00     0.048 C 
HETATM    3  N   UNL     1      39.724 -13.430   6.173  1.00  0.00    -0.229 NA
HETATM    4  C   UNL     1      40.160 -12.221   6.060  1.00  0.00     0.170 C 
HETATM    5  N   UNL     1      41.640 -11.893   5.736  1.00  0.00    -0.318 N 
HETATM    6  C   UNL     1      42.044 -10.910   6.465  1.00  0.00     0.011 C 
HETATM    7  C   UNL     1      42.237 -12.936   4.884  1.00  0.00     0.169 C 
HETATM    8  S   UNL     1      39.325 -10.796   6.565  1.00  0.00    -0.086 SA
HETATM    9  C   UNL     1      40.933 -10.045   7.040  1.00  0.00     0.135 C 
HETATM   10  C   UNL     1      41.907 -14.217   5.578  1.00  0.00     0.069 C 
ENDROOT
BRANCH   6  11
HETATM   11  C   UNL     1      43.495 -10.742   6.807  1.00  0.00     0.156 C 
BRANCH  11  12
HETATM   12  C   UNL     1      43.658  -9.981   8.112  1.00  0.00     0.223 C 
HETATM   13  N   UNL     1      43.327 -10.644   9.263  1.00  0.00    -0.359 N 
HETATM   14  H   UNL     1      43.039 -11.624   9.233  1.00  0.00     0.162 HD
HETATM   15  O   UNL     1      43.987  -8.796   8.119  1.00  0.00    -0.273 OA
BRANCH  13  16
HETATM   16  C   UNL     1      43.145  -9.963  10.554  1.00  0.00     0.150 C 
BRANCH  16  17
HETATM   17  C   UNL     1      41.710  -9.480  10.882  1.00  0.00     0.253 C 
BRANCH  17  18
HETATM   18  N   UNL     1      41.652  -8.561  12.087  1.00  0.00    -0.077 N 
HETATM   19  H   UNL     1      41.072  -9.036  12.806  1.00  0.00     0.279 HD
HETATM   20  C   UNL     1      42.986  -8.319  12.740  1.00  0.00     0.269 C 
HETATM   21  C   UNL     1      40.966  -7.259  11.775  1.00  0.00     0.269 C 
ENDBRANCH  17  18
ENDBRANCH  16  17
ENDBRANCH  13  16
ENDBRANCH  11  12
ENDBRANCH   6  11
BRANCH   7  22
HETATM   22  C   UNL     1      41.757 -12.788   3.439  1.00  0.00     0.008 A 
HETATM   23  C   UNL     1      41.994 -11.632   2.673  1.00  0.00     0.125 A 
HETATM   24  F   UNL     1      42.639 -10.588   3.204  1.00  0.00    -0.205 F 
HETATM   25  C   UNL     1      41.582 -11.524   1.347  1.00  0.00     0.043 A 
HETATM   26  C   UNL     1      40.893 -12.573   0.750  1.00  0.00     0.003 A 
HETATM   27  C   UNL     1      40.604 -13.716   1.489  1.00  0.00     0.001 A 
HETATM   28  C   UNL     1      41.019 -13.822   2.822  1.00  0.00     0.013 A 
ENDBRANCH   7  22
BRANCH  10  29
HETATM   29  C   UNL     1      43.119 -14.970   5.921  1.00  0.00     0.294 C 
HETATM   30  O   UNL     1      44.091 -14.351   6.344  1.00  0.00    -0.259 OA
BRANCH  29  31
HETATM   31  O   UNL     1      43.054 -16.212   5.424  1.00  0.00    -0.313 OA
BRANCH  31  32
HETATM   32  C   UNL     1      43.381 -16.345   4.032  1.00  0.00     0.217 C 
BRANCH  32  33
HETATM   33  C   UNL     1      43.516 -17.789   3.646  1.00  0.00    -0.034 A 
HETATM   34  C   UNL     1      44.044 -18.713   4.558  1.00  0.00     0.009 A 
HETATM   35  C   UNL     1      44.139 -20.062   4.220  1.00  0.00     0.001 A 
HETATM   36  C   UNL     1      43.714 -20.499   2.966  1.00  0.00     0.000 A 
HETATM   37  C   UNL     1      43.198 -19.586   2.047  1.00  0.00     0.001 A 
HETATM   38  C   UNL     1      43.102 -18.236   2.384  1.00  0.00     0.009 A 
ENDBRANCH  32  33
ENDBRANCH  31  32
ENDBRANCH  29  31
ENDBRANCH  10  29
TORSDOF 10
ENDMDL
MODEL 7
REMARK VINA RESULT:      -7.7      4.039      7.199
REMARK  10 active torsions:
REMARK  status: ('A' for Active; 'I' for Inactive)
REMARK    1  A    between atoms: C_6  and  C_7 
REMARK    2  A    between atoms: C_7  and  C_8 
REMARK       I    between atoms: C_8  and  N_9 
REMARK    3  A    between atoms: N_9  and  C_10 
REMARK    4  A    between atoms: C_10  and  C_11 
REMARK    5  A    between atoms: C_11  and  N_12 
REMARK    6  A    between atoms: C_17  and  C_18 
REMARK    7  A    between atoms: C_27  and  C_28 
REMARK    8  A    between atoms: C_28  and  O_29 
REMARK    9  A    between atoms: O_29  and  C_30 
REMARK   10  A    between atoms: C_30  and  C_31 
ROOT
HETATM    1  C   UNL     1      42.227 -10.869   2.204  1.00  0.00     0.071 C 
HETATM    2  C   UNL     1      42.104 -11.333   3.633  1.00  0.00     0.048 C 
HETATM    3  N   UNL     1      43.149 -10.918   4.461  1.00  0.00    -0.229 NA
HETATM    4  C   UNL     1      42.856 -10.790   5.711  1.00  0.00     0.170 C 
HETATM    5  N   UNL     1      41.487 -11.221   6.297  1.00  0.00    -0.318 N 
HETATM    6  C   UNL     1      41.066 -10.335   7.133  1.00  0.00     0.011 C 
HETATM    7  C   UNL     1      40.941 -12.376   5.565  1.00  0.00     0.169 C 
HETATM    8  S   UNL     1      43.729  -9.841   6.861  1.00  0.00    -0.086 SA
HETATM    9  C   UNL     1      42.146  -9.420   7.689  1.00  0.00     0.135 C 
HETATM   10  C   UNL     1      41.028 -11.979   4.127  1.00  0.00     0.069 C 
ENDROOT
BRANCH   6  11
HETATM   11  C   UNL     1      39.601 -10.163   7.409  1.00  0.00     0.156 C 
BRANCH  11  12
HETATM   12  C   UNL     1      39.379  -9.525   8.770  1.00  0.00     0.223 C 
HETATM   13  N   UNL     1      39.942 -10.152   9.849  1.00  0.00    -0.359 N 
HETATM   14  H   UNL     1      40.527 -10.980   9.721  1.00  0.00     0.162 HD
HETATM   15  O   UNL     1      38.652  -8.541   8.899  1.00  0.00    -0.273 OA
BRANCH  13  16
HETATM   16  C   UNL     1      39.575  -9.836  11.239  1.00  0.00     0.150 C 
BRANCH  16  17
HETATM   17  C   UNL     1      40.554  -8.922  12.018  1.00  0.00     0.253 C 
BRANCH  17  18
HETATM   18  N   UNL     1      41.431  -9.685  12.993  1.00  0.00    -0.077 N 
HETATM   19  H   UNL     1      40.879 -10.498  13.329  1.00  0.00     0.279 HD
HETATM   20  C   UNL     1      42.672 -10.269  12.375  1.00  0.00     0.269 C 
HETATM   21  C   UNL     1      41.773  -8.866  14.208  1.00  0.00     0.269 C 
ENDBRANCH  17  18
ENDBRANCH  16  17
ENDBRANCH  13  16
ENDBRANCH  11  12
ENDBRANCH   6  11
BRANCH   7  22
HETATM   22  C   UNL     1      41.663 -13.662   5.973  1.00  0.00     0.008 A 
HETATM   23  C   UNL     1      40.986 -14.785   6.483  1.00  0.00     0.125 A 
HETATM   24  F   UNL     1      39.660 -14.756   6.657  1.00  0.00    -0.205 F 
HETATM   25  C   UNL     1      41.651 -15.961   6.819  1.00  0.00     0.043 A 
HETATM   26  C   UNL     1      43.030 -16.041   6.673  1.00  0.00     0.003 A 
HETATM   27  C   UNL     1      43.739 -14.936   6.210  1.00  0.00     0.001 A 
HETATM   28  C   UNL     1      43.069 -13.754   5.874  1.00  0.00     0.013 A 
ENDBRANCH   7  22
BRANCH  10  29
HETATM   29  C   UNL     1      39.709 -12.000   3.483  1.00  0.00     0.294 C 
HETATM   30  O   UNL     1      39.011 -10.994   3.551  1.00  0.00    -0.259 OA
BRANCH  29  31
HETATM   31  O   UNL     1      39.363 -13.255   3.168  1.00  0.00    -0.313 OA
BRANCH  31  32
HETATM   32  C   UNL     1      39.890 -13.757   1.929  1.00  0.00     0.217 C 
BRANCH  32  33
HETATM   33  C   UNL     1      40.995 -14.741   2.173  1.00  0.00    -0.034 A 
HETATM   34  C   UNL     1      42.256 -14.540   1.596  1.00  0.00     0.009 A 
HETATM   35  C   UNL     1      43.297 -15.431   1.848  1.00  0.00     0.001 A 
HETATM   36  C   UNL     1      43.087 -16.535   2.673  1.00  0.00     0.000 A 
HETATM   37  C   UNL     1      41.834 -16.751   3.244  1.00  0.00     0.001 A 
HETATM   38  C   UNL     1      40.791 -15.860   2.993  1.00  0.00     0.009 A 
ENDBRANCH  32  33
ENDBRANCH  31  32
ENDBRANCH  29  31
ENDBRANCH  10  29
TORSDOF 10
ENDMDL
MODEL 8
REMARK VINA RESULT:      -7.6      5.856      9.841
REMARK  10 active torsions:
REMARK  status: ('A' for Active; 'I' for Inactive)
REMARK    1  A    between atoms: C_6  and  C_7 
REMARK    2  A    between atoms: C_7  and  C_8 
REMARK       I    between atoms: C_8  and  N_9 
REMARK    3  A    between atoms: N_9  and  C_10 
REMARK    4  A    between atoms: C_10  and  C_11 
REMARK    5  A    between atoms: C_11  and  N_12 
REMARK    6  A    between atoms: C_17  and  C_18 
REMARK    7  A    between atoms: C_27  and  C_28 
REMARK    8  A    between atoms: C_28  and  O_29 
REMARK    9  A    between atoms: O_29  and  C_30 
REMARK   10  A    between atoms: C_30  and  C_31 
ROOT
HETATM    1  C   UNL     1      45.169  -8.829   8.592  1.00  0.00     0.071 C 
HETATM    2  C   UNL     1      43.787  -8.274   8.823  1.00  0.00     0.048 C 
HETATM    3  N   UNL     1      43.360  -7.373   7.845  1.00  0.00    -0.229 NA
HETATM    4  C   UNL     1      42.084  -7.301   7.669  1.00  0.00     0.170 C 
HETATM    5  N   UNL     1      41.071  -8.035   8.584  1.00  0.00    -0.318 N 
HETATM    6  C   UNL     1      40.135  -8.562   7.873  1.00  0.00     0.011 C 
HETATM    7  C   UNL     1      41.582  -8.136   9.961  1.00  0.00     0.169 C 
HETATM    8  S   UNL     1      41.293  -6.706   6.253  1.00  0.00    -0.086 SA
HETATM    9  C   UNL     1      39.972  -7.960   6.485  1.00  0.00     0.135 C 
HETATM   10  C   UNL     1      42.961  -8.691   9.806  1.00  0.00     0.069 C 
ENDROOT
BRANCH   6  11
HETATM   11  C   UNL     1      39.376  -9.764   8.356  1.00  0.00     0.156 C 
BRANCH  11  12
HETATM   12  C   UNL     1      39.263 -10.809   7.259  1.00  0.00     0.223 C 
HETATM   13  N   UNL     1      40.412 -11.462   6.903  1.00  0.00    -0.359 N 
HETATM   14  H   UNL     1      41.287 -11.282   7.400  1.00  0.00     0.162 HD
HETATM   15  O   UNL     1      38.203 -10.991   6.662  1.00  0.00    -0.273 OA
BRANCH  13  16
HETATM   16  C   UNL     1      40.527 -12.268   5.678  1.00  0.00     0.150 C 
BRANCH  16  17
HETATM   17  C   UNL     1      40.259 -13.787   5.825  1.00  0.00     0.253 C 
BRANCH  17  18
HETATM   18  N   UNL     1      41.196 -14.640   4.991  1.00  0.00    -0.077 N 
HETATM   19  H   UNL     1      41.077 -14.346   4.001  1.00  0.00     0.279 HD
HETATM   20  C   UNL     1      42.654 -14.433   5.300  1.00  0.00     0.269 C 
HETATM   21  C   UNL     1      40.838 -16.100   5.050  1.00  0.00     0.269 C 
ENDBRANCH  17  18
ENDBRANCH  16  17
ENDBRANCH  13  16
ENDBRANCH  11  12
ENDBRANCH   6  11
BRANCH   7  22
HETATM   22  C   UNL     1      41.453  -6.793  10.683  1.00  0.00     0.008 A 
HETATM   23  C   UNL     1      40.287  -6.406  11.367  1.00  0.00     0.125 A 
HETATM   24  F   UNL     1      39.216  -7.207  11.387  1.00  0.00    -0.205 F 
HETATM   25  C   UNL     1      40.195  -5.195  12.048  1.00  0.00     0.043 A 
HETATM   26  C   UNL     1      41.271  -4.317  12.047  1.00  0.00     0.003 A 
HETATM   27  C   UNL     1      42.428  -4.648  11.346  1.00  0.00     0.001 A 
HETATM   28  C   UNL     1      42.518  -5.865  10.661  1.00  0.00     0.013 A 
ENDBRANCH   7  22
BRANCH  10  29
HETATM   29  C   UNL     1      43.119  -9.953  10.538  1.00  0.00     0.294 C 
HETATM   30  O   UNL     1      43.884 -10.799  10.084  1.00  0.00    -0.259 OA
BRANCH  29  31
HETATM   31  O   UNL     1      42.148 -10.087  11.451  1.00  0.00    -0.313 OA
BRANCH  31  32
HETATM   32  C   UNL     1      42.587 -10.226  12.812  1.00  0.00     0.217 C 
BRANCH  32  33
HETATM   33  C   UNL     1      42.329  -8.970  13.591  1.00  0.00    -0.034 A 
HETATM   34  C   UNL     1      43.285  -7.946  13.608  1.00  0.00     0.009 A 
HETATM   35  C   UNL     1      43.037  -6.761  14.300  1.00  0.00     0.001 A 
HETATM   36  C   UNL     1      41.836  -6.592  14.987  1.00  0.00     0.000 A 
HETATM   37  C   UNL     1      40.883  -7.610  14.986  1.00  0.00     0.001 A 
HETATM   38  C   UNL     1      41.129  -8.795  14.293  1.00  0.00     0.009 A 
ENDBRANCH  32  33
ENDBRANCH  31  32
ENDBRANCH  29  31
ENDBRANCH  10  29
TORSDOF 10
ENDMDL
MODEL 9
REMARK VINA RESULT:      -7.6      3.352      6.131
REMARK  10 active torsions:
REMARK  status: ('A' for Active; 'I' for Inactive)
REMARK    1  A    between atoms: C_6  and  C_7 
REMARK    2  A    between atoms: C_7  and  C_8 
REMARK       I    between atoms: C_8  and  N_9 
REMARK    3  A    between atoms: N_9  and  C_10 
REMARK    4  A    between atoms: C_10  and  C_11 
REMARK    5  A    between atoms: C_11  and  N_12 
REMARK    6  A    between atoms: C_17  and  C_18 
REMARK    7  A    between atoms: C_27  and  C_28 
REMARK    8  A    between atoms: C_28  and  O_29 
REMARK    9  A    between atoms: O_29  and  C_30 
REMARK   10  A    between atoms: C_30  and  C_31 
ROOT
HETATM    1  C   UNL     1      42.351 -11.078   1.996  1.00  0.00     0.071 C 
HETATM    2  C   UNL     1      42.097 -11.590   3.390  1.00  0.00     0.048 C 
HETATM    3  N   UNL     1      43.044 -11.184   4.332  1.00  0.00    -0.229 NA
HETATM    4  C   UNL     1      42.625 -11.102   5.549  1.00  0.00     0.170 C 
HETATM    5  N   UNL     1      41.213 -11.578   5.981  1.00  0.00    -0.318 N 
HETATM    6  C   UNL     1      40.692 -10.728   6.797  1.00  0.00     0.011 C 
HETATM    7  C   UNL     1      40.769 -12.718   5.162  1.00  0.00     0.169 C 
HETATM    8  S   UNL     1      43.357 -10.175   6.810  1.00  0.00    -0.086 SA
HETATM    9  C   UNL     1      41.689  -9.811   7.487  1.00  0.00     0.135 C 
HETATM   10  C   UNL     1      40.991 -12.273   3.753  1.00  0.00     0.069 C 
ENDROOT
BRANCH   6  11
HETATM   11  C   UNL     1      39.202 -10.592   6.929  1.00  0.00     0.156 C 
BRANCH  11  12
HETATM   12  C   UNL     1      38.647  -9.671   5.856  1.00  0.00     0.223 C 
HETATM   13  N   UNL     1      39.549  -8.902   5.170  1.00  0.00    -0.359 N 
HETATM   14  H   UNL     1      40.551  -8.996   5.346  1.00  0.00     0.162 HD
HETATM   15  O   UNL     1      37.435  -9.561   5.679  1.00  0.00    -0.273 OA
BRANCH  13  16
HETATM   16  C   UNL     1      39.151  -7.763   4.328  1.00  0.00     0.150 C 
BRANCH  16  17
HETATM   17  C   UNL     1      38.783  -8.088   2.859  1.00  0.00     0.253 C 
BRANCH  17  18
HETATM   18  N   UNL     1      37.321  -8.452   2.679  1.00  0.00    -0.077 N 
HETATM   19  H   UNL     1      37.120  -9.238   3.327  1.00  0.00     0.279 HD
HETATM   20  C   UNL     1      36.364  -7.357   3.064  1.00  0.00     0.269 C 
HETATM   21  C   UNL     1      37.028  -8.954   1.291  1.00  0.00     0.269 C 
ENDBRANCH  17  18
ENDBRANCH  16  17
ENDBRANCH  13  16
ENDBRANCH  11  12
ENDBRANCH   6  11
BRANCH   7  22
HETATM   22  C   UNL     1      41.475 -14.003   5.602  1.00  0.00     0.008 A 
HETATM   23  C   UNL     1      40.834 -15.002   6.357  1.00  0.00     0.125 A 
HETATM   24  F   UNL     1      39.565 -14.846   6.750  1.00  0.00    -0.205 F 
HETATM   25  C   UNL     1      41.478 -16.181   6.722  1.00  0.00     0.043 A 
HETATM   26  C   UNL     1      42.801 -16.389   6.355  1.00  0.00     0.003 A 
HETATM   27  C   UNL     1      43.480 -15.405   5.641  1.00  0.00     0.001 A 
HETATM   28  C   UNL     1      42.832 -14.219   5.277  1.00  0.00     0.013 A 
ENDBRANCH   7  22
BRANCH  10  29
HETATM   29  C   UNL     1      39.744 -12.297   2.979  1.00  0.00     0.294 C 
HETATM   30  O   UNL     1      39.036 -11.295   2.981  1.00  0.00    -0.259 OA
BRANCH  29  31
HETATM   31  O   UNL     1      39.438 -13.553   2.625  1.00  0.00    -0.313 OA
BRANCH  31  32
HETATM   32  C   UNL     1      40.078 -14.039   1.435  1.00  0.00     0.217 C 
BRANCH  32  33
HETATM   33  C   UNL     1      41.173 -15.009   1.770  1.00  0.00    -0.034 A 
HETATM   34  C   UNL     1      40.880 -16.179   2.484  1.00  0.00     0.009 A 
HETATM   35  C   UNL     1      41.886 -17.102   2.767  1.00  0.00     0.001 A 
HETATM   36  C   UNL     1      43.193 -16.862   2.345  1.00  0.00     0.000 A 
HETATM   37  C   UNL     1      43.497 -15.696   1.644  1.00  0.00     0.001 A 
HETATM   38  C   UNL     1      42.491 -14.772   1.359  1.00  0.00     0.009 A 
ENDBRANCH  32  33
ENDBRANCH  31  32
ENDBRANCH  29  31
ENDBRANCH  10  29
TORSDOF 10
ENDMDL
MODEL 10
REMARK VINA RESULT:      -7.5      3.494      6.718
REMARK  10 active torsions:
REMARK  status: ('A' for Active; 'I' for Inactive)
REMARK    1  A    between atoms: C_6  and  C_7 
REMARK    2  A    between atoms: C_7  and  C_8 
REMARK       I    between atoms: C_8  and  N_9 
REMARK    3  A    between atoms: N_9  and  C_10 
REMARK    4  A    between atoms: C_10  and  C_11 
REMARK    5  A    between atoms: C_11  and  N_12 
REMARK    6  A    between atoms: C_17  and  C_18 
REMARK    7  A    between atoms: C_27  and  C_28 
REMARK    8  A    between atoms: C_28  and  O_29 
REMARK    9  A    between atoms: O_29  and  C_30 
REMARK   10  A    between atoms: C_30  and  C_31 
ROOT
HETATM    1  C   UNL     1      41.671 -10.539   0.834  1.00  0.00     0.071 C 
HETATM    2  C   UNL     1      41.767 -11.615   1.884  1.00  0.00     0.048 C 
HETATM    3  N   UNL     1      42.869 -11.492   2.733  1.00  0.00    -0.229 NA
HETATM    4  C   UNL     1      42.724 -11.988   3.915  1.00  0.00     0.170 C 
HETATM    5  N   UNL     1      41.480 -12.816   4.327  1.00  0.00    -0.318 N 
HETATM    6  C   UNL     1      41.094 -12.474   5.508  1.00  0.00     0.011 C 
HETATM    7  C   UNL     1      40.944 -13.569   3.181  1.00  0.00     0.169 C 
HETATM    8  S   UNL     1      43.652 -11.564   5.309  1.00  0.00    -0.086 SA
HETATM    9  C   UNL     1      42.154 -11.780   6.350  1.00  0.00     0.135 C 
HETATM   10  C   UNL     1      40.818 -12.552   2.093  1.00  0.00     0.069 C 
ENDROOT
BRANCH   6  11
HETATM   11  C   UNL     1      39.665 -12.642   5.937  1.00  0.00     0.156 C 
BRANCH  11  12
HETATM   12  C   UNL     1      38.960 -11.297   6.004  1.00  0.00     0.223 C 
HETATM   13  N   UNL     1      39.090 -10.473   4.918  1.00  0.00    -0.359 N 
HETATM   14  H   UNL     1      39.596 -10.785   4.087  1.00  0.00     0.162 HD
HETATM   15  O   UNL     1      38.376 -10.937   7.024  1.00  0.00    -0.273 OA
BRANCH  13  16
HETATM   16  C   UNL     1      38.728  -9.047   4.949  1.00  0.00     0.150 C 
BRANCH  16  17
HETATM   17  C   UNL     1      39.722  -8.099   5.666  1.00  0.00     0.253 C 
BRANCH  17  18
HETATM   18  N   UNL     1      39.524  -8.056   7.169  1.00  0.00    -0.077 N 
HETATM   19  H   UNL     1      38.819  -8.783   7.405  1.00  0.00     0.279 HD
HETATM   20  C   UNL     1      40.751  -8.413   7.962  1.00  0.00     0.269 C 
HETATM   21  C   UNL     1      38.953  -6.742   7.628  1.00  0.00     0.269 C 
ENDBRANCH  17  18
ENDBRANCH  16  17
ENDBRANCH  13  16
ENDBRANCH  11  12
ENDBRANCH   6  11
BRANCH   7  22
HETATM   22  C   UNL     1      41.817 -14.792   2.887  1.00  0.00     0.008 A 
HETATM   23  C   UNL     1      41.956 -15.861   3.790  1.00  0.00     0.125 A 
HETATM   24  F   UNL     1      41.338 -15.832   4.976  1.00  0.00    -0.205 F 
HETATM   25  C   UNL     1      42.726 -16.983   3.496  1.00  0.00     0.043 A 
HETATM   26  C   UNL     1      43.403 -17.059   2.285  1.00  0.00     0.003 A 
HETATM   27  C   UNL     1      43.321 -16.002   1.383  1.00  0.00     0.001 A 
HETATM   28  C   UNL     1      42.548 -14.874   1.681  1.00  0.00     0.013 A 
ENDBRANCH   7  22
BRANCH  10  29
HETATM   29  C   UNL     1      39.436 -12.449   1.611  1.00  0.00     0.294 C 
HETATM   30  O   UNL     1      38.591 -11.970   2.360  1.00  0.00    -0.259 OA
BRANCH  29  31
HETATM   31  O   UNL     1      39.272 -13.188   0.506  1.00  0.00    -0.313 OA
BRANCH  31  32
HETATM   32  C   UNL     1      38.482 -12.589  -0.534  1.00  0.00     0.217 C 
BRANCH  32  33
HETATM   33  C   UNL     1      39.355 -11.941  -1.568  1.00  0.00    -0.034 A 
HETATM   34  C   UNL     1      40.444 -12.640  -2.106  1.00  0.00     0.009 A 
HETATM   35  C   UNL     1      41.237 -12.056  -3.093  1.00  0.00     0.001 A 
HETATM   36  C   UNL     1      40.954 -10.769  -3.545  1.00  0.00     0.000 A 
HETATM   37  C   UNL     1      39.881 -10.060  -3.009  1.00  0.00     0.001 A 
HETATM   38  C   UNL     1      39.085 -10.643  -2.021  1.00  0.00     0.009 A 
ENDBRANCH  32  33
ENDBRANCH  31  32
ENDBRANCH  29  31
ENDBRANCH  10  29
TORSDOF 10
ENDMDL
