MODEL 1
REMARK VINA RESULT:      -8.6      0.000      0.000
REMARK  5 active torsions:
REMARK  status: ('A' for Active; 'I' for Inactive)
REMARK    1  A    between atoms: C_2  and  C_3 
REMARK    2  A    between atoms: C_8  and  C_9 
REMARK       I    between atoms: C_9  and  N_10 
REMARK    3  A    between atoms: N_10  and  C_11 
REMARK    4  A    between atoms: C_11  and  C_12 
REMARK    5  A    between atoms: C_19  and  C_20 
ROOT
HETATM    1  C   UNL     1      40.574 -14.719   3.081  1.00  0.00     0.118 C 
HETATM    2  N   UNL     1      39.937 -14.286   4.318  1.00  0.00    -0.366 N 
HETATM    3  C   UNL     1      40.180 -13.088   4.888  1.00  0.00     0.123 A 
HETATM    4  N   UNL     1      41.048 -12.189   4.334  1.00  0.00    -0.240 N 
HETATM    5  N   UNL     1      41.116 -11.019   4.991  1.00  0.00    -0.165 NA
HETATM    6  C   UNL     1      40.303 -11.205   6.056  1.00  0.00     0.148 A 
HETATM    7  C   UNL     1      39.697 -12.492   6.021  1.00  0.00     0.088 A 
HETATM    8  C   UNL     1      41.780 -12.420   3.106  1.00  0.00     0.221 C 
HETATM    9  C   UNL     1      41.089 -13.514   2.271  1.00  0.00     0.066 C 
HETATM   10  H   UNL     1      39.325 -14.968   4.766  1.00  0.00     0.161 HD
ENDROOT
BRANCH   6  11
HETATM   11  C   UNL     1      40.087 -10.169   7.078  1.00  0.00     0.272 C 
HETATM   12  N   UNL     1      41.126 -10.048   7.973  1.00  0.00    -0.353 N 
HETATM   13  H   UNL     1      41.967 -10.574   7.747  1.00  0.00     0.162 HD
HETATM   14  O   UNL     1      39.076  -9.473   7.114  1.00  0.00    -0.266 OA
BRANCH  12  15
HETATM   15  C   UNL     1      41.220  -8.942   8.901  1.00  0.00     0.155 C 
BRANCH  15  16
HETATM   16  C   UNL     1      42.535  -8.965   9.676  1.00  0.00     0.139 C 
HETATM   17  O   UNL     1      42.381  -9.692  10.913  1.00  0.00    -0.384 OA
HETATM   18  C   UNL     1      43.572 -10.465  11.135  1.00  0.00     0.168 C 
HETATM   19  C   UNL     1      44.562 -10.080  10.055  1.00  0.00     0.029 C 
HETATM   20  C   UNL     1      43.654  -9.666   8.924  1.00  0.00     0.035 C 
ENDBRANCH  15  16
ENDBRANCH  12  15
ENDBRANCH   6  11
BRANCH   8  21
HETATM   21  C   UNL     1      43.233 -12.707   3.411  1.00  0.00     0.409 C 
HETATM   22  F   UNL     1      43.432 -13.310   4.597  1.00  0.00    -0.169 F 
HETATM   23  F   UNL     1      43.755 -13.523   2.459  1.00  0.00    -0.169 F 
HETATM   24  F   UNL     1      43.986 -11.583   3.397  1.00  0.00    -0.169 F 
ENDBRANCH   8  21
BRANCH   1  25
HETATM   25  C   UNL     1      41.592 -15.826   3.309  1.00  0.00    -0.034 A 
HETATM   26  C   UNL     1      42.257 -16.482   2.262  1.00  0.00     0.011 A 
HETATM   27  C   UNL     1      43.199 -17.483   2.519  1.00  0.00     0.026 A 
HETATM   28  C   UNL     1      43.507 -17.841   3.832  1.00  0.00     0.055 A 
HETATM   29  C   UNL     1      42.865 -17.194   4.890  1.00  0.00     0.056 A 
HETATM   30 CL   UNL     1      44.685 -19.079   4.076  1.00  0.00    -0.083 Cl
HETATM   31  C   UNL     1      41.917 -16.197   4.628  1.00  0.00     0.034 A 
HETATM   32 CL   UNL     1      43.199 -17.566   6.544  1.00  0.00    -0.083 Cl
ENDBRANCH   1  25
TORSDOF 5
ENDMDL
MODEL 2
REMARK VINA RESULT:      -8.4      4.149      6.962
REMARK  5 active torsions:
REMARK  status: ('A' for Active; 'I' for Inactive)
REMARK    1  A    between atoms: C_2  and  C_3 
REMARK    2  A    between atoms: C_8  and  C_9 
REMARK       I    between atoms: C_9  and  N_10 
REMARK    3  A    between atoms: N_10  and  C_11 
REMARK    4  A    between atoms: C_11  and  C_12 
REMARK    5  A    between atoms: C_19  and  C_20 
ROOT
HETATM    1  C   UNL     1      43.695 -15.200   4.846  1.00  0.00     0.118 C 
HETATM    2  N   UNL     1      43.183 -14.713   3.571  1.00  0.00    -0.366 N 
HETATM    3  C   UNL     1      41.980 -14.116   3.446  1.00  0.00     0.123 A 
HETATM    4  N   UNL     1      41.156 -13.921   4.517  1.00  0.00    -0.240 N 
HETATM    5  N   UNL     1      40.031 -13.245   4.226  1.00  0.00    -0.165 NA
HETATM    6  C   UNL     1      40.109 -13.059   2.889  1.00  0.00     0.148 A 
HETATM    7  C   UNL     1      41.321 -13.591   2.367  1.00  0.00     0.088 A 
HETATM    8  C   UNL     1      41.476 -14.324   5.871  1.00  0.00     0.221 C 
HETATM    9  C   UNL     1      42.998 -14.499   6.028  1.00  0.00     0.066 C 
HETATM   10  H   UNL     1      43.768 -14.897   2.757  1.00  0.00     0.161 HD
ENDROOT
BRANCH   6  11
HETATM   11  C   UNL     1      39.061 -12.368   2.122  1.00  0.00     0.272 C 
HETATM   12  N   UNL     1      39.172 -12.530   0.760  1.00  0.00    -0.353 N 
HETATM   13  H   UNL     1      39.862 -13.211   0.451  1.00  0.00     0.162 HD
HETATM   14  O   UNL     1      38.166 -11.720   2.658  1.00  0.00    -0.266 OA
BRANCH  12  15
HETATM   15  C   UNL     1      38.119 -12.137  -0.152  1.00  0.00     0.155 C 
BRANCH  15  16
HETATM   16  C   UNL     1      38.336 -12.717  -1.548  1.00  0.00     0.139 C 
HETATM   17  O   UNL     1      39.238 -11.885  -2.306  1.00  0.00    -0.384 OA
HETATM   18  C   UNL     1      40.101 -12.738  -3.076  1.00  0.00     0.168 C 
HETATM   19  C   UNL     1      39.606 -14.158  -2.891  1.00  0.00     0.029 C 
HETATM   20  C   UNL     1      38.970 -14.097  -1.525  1.00  0.00     0.035 C 
ENDBRANCH  15  16
ENDBRANCH  12  15
ENDBRANCH   6  11
BRANCH   8  21
HETATM   21  C   UNL     1      40.675 -15.547   6.255  1.00  0.00     0.409 C 
HETATM   22  F   UNL     1      41.246 -16.292   7.220  1.00  0.00    -0.169 F 
HETATM   23  F   UNL     1      39.451 -15.176   6.713  1.00  0.00    -0.169 F 
HETATM   24  F   UNL     1      40.451 -16.360   5.197  1.00  0.00    -0.169 F 
ENDBRANCH   8  21
BRANCH   1  25
HETATM   25  C   UNL     1      43.721 -16.719   4.920  1.00  0.00    -0.034 A 
HETATM   26  C   UNL     1      43.749 -17.426   6.132  1.00  0.00     0.011 A 
HETATM   27  C   UNL     1      43.754 -18.825   6.152  1.00  0.00     0.026 A 
HETATM   28  C   UNL     1      43.718 -19.547   4.959  1.00  0.00     0.055 A 
HETATM   29  C   UNL     1      43.679 -18.863   3.742  1.00  0.00     0.056 A 
HETATM   30 CL   UNL     1      43.718 -21.271   5.059  1.00  0.00    -0.083 Cl
HETATM   31  C   UNL     1      43.681 -17.463   3.726  1.00  0.00     0.034 A 
HETATM   32 CL   UNL     1      43.617 -19.681   2.220  1.00  0.00    -0.083 Cl
ENDBRANCH   1  25
TORSDOF 5
ENDMDL
MODEL 3
REMARK VINA RESULT:      -8.0      3.605      5.742
REMARK  5 active torsions:
REMARK  status: ('A' for Active; 'I' for Inactive)
REMARK    1  A    between atoms: C_2  and  C_3 
REMARK    2  A    between atoms: C_8  and  C_9 
REMARK       I    between atoms: C_9  and  N_10 
REMARK    3  A    between atoms: N_10  and  C_11 
REMARK    4  A    between atoms: C_11  and  C_12 
REMARK    5  A    between atoms: C_19  and  C_20 
ROOT
HETATM    1  C   UNL     1      43.623 -15.029   4.961  1.00  0.00     0.118 C 
HETATM    2  N   UNL     1      43.128 -13.894   4.192  1.00  0.00    -0.366 N 
HETATM    3  C   UNL     1      41.976 -13.258   4.484  1.00  0.00     0.123 A 
HETATM    4  N   UNL     1      41.189 -13.637   5.535  1.00  0.00    -0.240 N 
HETATM    5  N   UNL     1      40.117 -12.849   5.727  1.00  0.00    -0.165 NA
HETATM    6  C   UNL     1      40.186 -11.965   4.707  1.00  0.00     0.148 A 
HETATM    7  C   UNL     1      41.341 -12.191   3.908  1.00  0.00     0.088 A 
HETATM    8  C   UNL     1      41.500 -14.735   6.427  1.00  0.00     0.221 C 
HETATM    9  C   UNL     1      43.006 -15.054   6.372  1.00  0.00     0.066 C 
HETATM   10  H   UNL     1      43.682 -13.634   3.377  1.00  0.00     0.161 HD
ENDROOT
BRANCH   6  11
HETATM   11  C   UNL     1      39.182 -10.908   4.506  1.00  0.00     0.272 C 
HETATM   12  N   UNL     1      39.144 -10.416   3.220  1.00  0.00    -0.353 N 
HETATM   13  H   UNL     1      39.699 -10.926   2.536  1.00  0.00     0.162 HD
HETATM   14  O   UNL     1      38.443 -10.516   5.404  1.00  0.00    -0.266 OA
BRANCH  12  15
HETATM   15  C   UNL     1      38.081  -9.551   2.756  1.00  0.00     0.155 C 
BRANCH  15  16
HETATM   16  C   UNL     1      37.459 -10.068   1.461  1.00  0.00     0.139 C 
HETATM   17  O   UNL     1      37.831  -9.226   0.350  1.00  0.00    -0.384 OA
HETATM   18  C   UNL     1      38.077 -10.065  -0.790  1.00  0.00     0.168 C 
HETATM   19  C   UNL     1      37.697 -11.478  -0.397  1.00  0.00     0.029 C 
HETATM   20  C   UNL     1      37.928 -11.465   1.094  1.00  0.00     0.035 C 
ENDBRANCH  15  16
ENDBRANCH  12  15
ENDBRANCH   6  11
BRANCH   8  21
HETATM   21  C   UNL     1      40.610 -15.920   6.127  1.00  0.00     0.409 C 
HETATM   22  F   UNL     1      41.183 -17.110   6.384  1.00  0.00    -0.169 F 
HETATM   23  F   UNL     1      39.481 -15.853   6.877  1.00  0.00    -0.169 F 
HETATM   24  F   UNL     1      40.206 -15.936   4.837  1.00  0.00    -0.169 F 
ENDBRANCH   8  21
BRANCH   1  25
HETATM   25  C   UNL     1      43.529 -16.337   4.191  1.00  0.00    -0.034 A 
HETATM   26  C   UNL     1      43.044 -16.419   2.877  1.00  0.00     0.011 A 
HETATM   27  C   UNL     1      42.992 -17.643   2.201  1.00  0.00     0.026 A 
HETATM   28  C   UNL     1      43.436 -18.811   2.821  1.00  0.00     0.055 A 
HETATM   29  C   UNL     1      43.932 -18.750   4.125  1.00  0.00     0.056 A 
HETATM   30 CL   UNL     1      43.351 -20.283   1.926  1.00  0.00    -0.083 Cl
HETATM   31  C   UNL     1      43.976 -17.524   4.802  1.00  0.00     0.034 A 
HETATM   32 CL   UNL     1      44.517 -20.146   4.961  1.00  0.00    -0.083 Cl
ENDBRANCH   1  25
TORSDOF 5
ENDMDL
MODEL 4
REMARK VINA RESULT:      -7.9      3.020      3.924
REMARK  5 active torsions:
REMARK  status: ('A' for Active; 'I' for Inactive)
REMARK    1  A    between atoms: C_2  and  C_3 
REMARK    2  A    between atoms: C_8  and  C_9 
REMARK       I    between atoms: C_9  and  N_10 
REMARK    3  A    between atoms: N_10  and  C_11 
REMARK    4  A    between atoms: C_11  and  C_12 
REMARK    5  A    between atoms: C_19  and  C_20 
ROOT
HETATM    1  C   UNL     1      43.631 -15.114   4.902  1.00  0.00     0.118 C 
HETATM    2  N   UNL     1      43.134 -14.012   4.088  1.00  0.00    -0.366 N 
HETATM    3  C   UNL     1      41.965 -13.387   4.336  1.00  0.00     0.123 A 
HETATM    4  N   UNL     1      41.162 -13.747   5.380  1.00  0.00    -0.240 N 
HETATM    5  N   UNL     1      40.073 -12.973   5.525  1.00  0.00    -0.165 NA
HETATM    6  C   UNL     1      40.149 -12.119   4.479  1.00  0.00     0.148 A 
HETATM    7  C   UNL     1      41.326 -12.349   3.713  1.00  0.00     0.088 A 
HETATM    8  C   UNL     1      41.472 -14.812   6.313  1.00  0.00     0.221 C 
HETATM    9  C   UNL     1      42.983 -15.106   6.300  1.00  0.00     0.066 C 
HETATM   10  H   UNL     1      43.702 -13.767   3.277  1.00  0.00     0.161 HD
ENDROOT
BRANCH   6  11
HETATM   11  C   UNL     1      39.133 -11.086   4.224  1.00  0.00     0.272 C 
HETATM   12  N   UNL     1      38.872 -10.284   5.311  1.00  0.00    -0.353 N 
HETATM   13  H   UNL     1      39.500 -10.398   6.105  1.00  0.00     0.162 HD
HETATM   14  O   UNL     1      38.582 -10.953   3.134  1.00  0.00    -0.266 OA
BRANCH  12  15
HETATM   15  C   UNL     1      38.091  -9.070   5.205  1.00  0.00     0.155 C 
BRANCH  15  16
HETATM   16  C   UNL     1      38.673  -7.948   6.060  1.00  0.00     0.139 C 
HETATM   17  O   UNL     1      38.687  -8.327   7.452  1.00  0.00    -0.384 OA
HETATM   18  C   UNL     1      39.905  -7.843   8.041  1.00  0.00     0.168 C 
HETATM   19  C   UNL     1      40.603  -7.000   6.993  1.00  0.00     0.029 C 
HETATM   20  C   UNL     1      40.114  -7.620   5.709  1.00  0.00     0.035 C 
ENDBRANCH  15  16
ENDBRANCH  12  15
ENDBRANCH   6  11
BRANCH   8  21
HETATM   21  C   UNL     1      40.609 -16.021   6.031  1.00  0.00     0.409 C 
HETATM   22  F   UNL     1      41.203 -17.194   6.319  1.00  0.00    -0.169 F 
HETATM   23  F   UNL     1      39.471 -15.961   6.769  1.00  0.00    -0.169 F 
HETATM   24  F   UNL     1      40.217 -16.074   4.737  1.00  0.00    -0.169 F 
ENDBRANCH   8  21
BRANCH   1  25
HETATM   25  C   UNL     1      43.575 -16.447   4.172  1.00  0.00    -0.034 A 
HETATM   26  C   UNL     1      43.140 -16.575   2.844  1.00  0.00     0.011 A 
HETATM   27  C   UNL     1      43.123 -17.819   2.206  1.00  0.00     0.026 A 
HETATM   28  C   UNL     1      43.553 -18.963   2.879  1.00  0.00     0.055 A 
HETATM   29  C   UNL     1      44.000 -18.857   4.198  1.00  0.00     0.056 A 
HETATM   30 CL   UNL     1      43.512 -20.464   2.028  1.00  0.00    -0.083 Cl
HETATM   31  C   UNL     1      44.009 -17.610   4.836  1.00  0.00     0.034 A 
HETATM   32 CL   UNL     1      44.564 -20.220   5.099  1.00  0.00    -0.083 Cl
ENDBRANCH   1  25
TORSDOF 5
ENDMDL
MODEL 5
REMARK VINA RESULT:      -7.9      4.786      8.887
REMARK  5 active torsions:
REMARK  status: ('A' for Active; 'I' for Inactive)
REMARK    1  A    between atoms: C_2  and  C_3 
REMARK    2  A    between atoms: C_8  and  C_9 
REMARK       I    between atoms: C_9  and  N_10 
REMARK    3  A    between atoms: N_10  and  C_11 
REMARK    4  A    between atoms: C_11  and  C_12 
REMARK    5  A    between atoms: C_19  and  C_20 
ROOT
HETATM    1  C   UNL     1      44.520  -9.294   9.517  1.00  0.00     0.118 C 
HETATM    2  N   UNL     1      44.621 -10.655   9.004  1.00  0.00    -0.366 N 
HETATM    3  C   UNL     1      43.964 -11.073   7.903  1.00  0.00     0.123 A 
HETATM    4  N   UNL     1      43.155 -10.239   7.185  1.00  0.00    -0.240 N 
HETATM    5  N   UNL     1      42.637 -10.798   6.077  1.00  0.00    -0.165 NA
HETATM    6  C   UNL     1      43.084 -12.074   6.128  1.00  0.00     0.148 A 
HETATM    7  C   UNL     1      43.922 -12.280   7.259  1.00  0.00     0.088 A 
HETATM    8  C   UNL     1      42.921  -8.849   7.520  1.00  0.00     0.221 C 
HETATM    9  C   UNL     1      44.055  -8.320   8.417  1.00  0.00     0.066 C 
HETATM   10  H   UNL     1      45.183 -11.299   9.559  1.00  0.00     0.161 HD
ENDROOT
BRANCH   6  11
HETATM   11  C   UNL     1      42.740 -13.074   5.106  1.00  0.00     0.272 C 
HETATM   12  N   UNL     1      42.700 -14.365   5.584  1.00  0.00    -0.353 N 
HETATM   13  H   UNL     1      42.769 -14.463   6.595  1.00  0.00     0.162 HD
HETATM   14  O   UNL     1      42.499 -12.775   3.939  1.00  0.00    -0.266 OA
BRANCH  12  15
HETATM   15  C   UNL     1      42.155 -15.458   4.809  1.00  0.00     0.155 C 
BRANCH  15  16
HETATM   16  C   UNL     1      43.251 -16.239   4.087  1.00  0.00     0.139 C 
HETATM   17  O   UNL     1      43.971 -17.076   5.016  1.00  0.00    -0.384 OA
HETATM   18  C   UNL     1      44.257 -18.327   4.370  1.00  0.00     0.168 C 
HETATM   19  C   UNL     1      43.818 -18.195   2.926  1.00  0.00     0.029 C 
HETATM   20  C   UNL     1      42.708 -17.179   3.023  1.00  0.00     0.035 C 
ENDBRANCH  15  16
ENDBRANCH  12  15
ENDBRANCH   6  11
BRANCH   8  21
HETATM   21  C   UNL     1      41.540  -8.680   8.112  1.00  0.00     0.409 C 
HETATM   22  F   UNL     1      40.560  -8.591   7.193  1.00  0.00    -0.169 F 
HETATM   23  F   UNL     1      41.243  -9.739   8.908  1.00  0.00    -0.169 F 
HETATM   24  F   UNL     1      41.457  -7.583   8.899  1.00  0.00    -0.169 F 
ENDBRANCH   8  21
BRANCH   1  25
HETATM   25  C   UNL     1      43.736  -9.221  10.818  1.00  0.00    -0.034 A 
HETATM   26  C   UNL     1      43.325 -10.359  11.529  1.00  0.00     0.011 A 
HETATM   27  C   UNL     1      42.621 -10.243  12.732  1.00  0.00     0.026 A 
HETATM   28  C   UNL     1      42.324  -8.985  13.258  1.00  0.00     0.055 A 
HETATM   29  C   UNL     1      42.733  -7.839  12.571  1.00  0.00     0.056 A 
HETATM   30 CL   UNL     1      41.459  -8.917  14.750  1.00  0.00    -0.083 Cl
HETATM   31  C   UNL     1      43.432  -7.959  11.363  1.00  0.00     0.034 A 
HETATM   32 CL   UNL     1      42.419  -6.244  13.159  1.00  0.00    -0.083 Cl
ENDBRANCH   1  25
TORSDOF 5
ENDMDL
MODEL 6
REMARK VINA RESULT:      -7.8      1.488      2.218
REMARK  5 active torsions:
REMARK  status: ('A' for Active; 'I' for Inactive)
REMARK    1  A    between atoms: C_2  and  C_3 
REMARK    2  A    between atoms: C_8  and  C_9 
REMARK       I    between atoms: C_9  and  N_10 
REMARK    3  A    between atoms: N_10  and  C_11 
REMARK    4  A    between atoms: C_11  and  C_12 
REMARK    5  A    between atoms: C_19  and  C_20 
ROOT
HETATM    1  C   UNL     1      40.516 -14.594   3.700  1.00  0.00     0.118 C 
HETATM    2  N   UNL     1      39.997 -13.975   4.913  1.00  0.00    -0.366 N 
HETATM    3  C   UNL     1      40.306 -12.715   5.282  1.00  0.00     0.123 A 
HETATM    4  N   UNL     1      41.130 -11.925   4.532  1.00  0.00    -0.240 N 
HETATM    5  N   UNL     1      41.271 -10.675   5.007  1.00  0.00    -0.165 NA
HETATM    6  C   UNL     1      40.555 -10.689   6.154  1.00  0.00     0.148 A 
HETATM    7  C   UNL     1      39.933 -11.953   6.357  1.00  0.00     0.088 A 
HETATM    8  C   UNL     1      41.747 -12.344   3.290  1.00  0.00     0.221 C 
HETATM    9  C   UNL     1      40.970 -13.528   2.684  1.00  0.00     0.066 C 
HETATM   10  H   UNL     1      39.420 -14.571   5.505  1.00  0.00     0.161 HD
ENDROOT
BRANCH   6  11
HETATM   11  C   UNL     1      40.444  -9.514   7.033  1.00  0.00     0.272 C 
HETATM   12  N   UNL     1      40.760  -9.773   8.348  1.00  0.00    -0.353 N 
HETATM   13  H   UNL     1      41.164 -10.689   8.532  1.00  0.00     0.162 HD
HETATM   14  O   UNL     1      40.112  -8.407   6.620  1.00  0.00    -0.266 OA
BRANCH  12  15
HETATM   15  C   UNL     1      40.945  -8.717   9.319  1.00  0.00     0.155 C 
BRANCH  15  16
HETATM   16  C   UNL     1      40.959  -9.259  10.746  1.00  0.00     0.139 C 
HETATM   17  O   UNL     1      41.102  -8.182  11.696  1.00  0.00    -0.384 OA
HETATM   18  C   UNL     1      40.264  -8.464  12.829  1.00  0.00     0.168 C 
HETATM   19  C   UNL     1      39.691  -9.851  12.627  1.00  0.00     0.029 C 
HETATM   20  C   UNL     1      39.672  -9.972  11.124  1.00  0.00     0.035 C 
ENDBRANCH  15  16
ENDBRANCH  12  15
ENDBRANCH   6  11
BRANCH   8  21
HETATM   21  C   UNL     1      43.218 -12.621   3.505  1.00  0.00     0.409 C 
HETATM   22  F   UNL     1      44.006 -11.546   3.320  1.00  0.00    -0.169 F 
HETATM   23  F   UNL     1      43.428 -13.053   4.775  1.00  0.00    -0.169 F 
HETATM   24  F   UNL     1      43.673 -13.601   2.692  1.00  0.00    -0.169 F 
ENDBRANCH   8  21
BRANCH   1  25
HETATM   25  C   UNL     1      41.536 -15.682   3.994  1.00  0.00    -0.034 A 
HETATM   26  C   UNL     1      42.146 -15.842   5.248  1.00  0.00     0.011 A 
HETATM   27  C   UNL     1      43.066 -16.869   5.478  1.00  0.00     0.026 A 
HETATM   28  C   UNL     1      43.389 -17.769   4.461  1.00  0.00     0.055 A 
HETATM   29  C   UNL     1      42.786 -17.634   3.208  1.00  0.00     0.056 A 
HETATM   30 CL   UNL     1      44.526 -19.017   4.817  1.00  0.00    -0.083 Cl
HETATM   31  C   UNL     1      41.870 -16.600   2.980  1.00  0.00     0.034 A 
HETATM   32 CL   UNL     1      43.117 -18.714   1.899  1.00  0.00    -0.083 Cl
ENDBRANCH   1  25
TORSDOF 5
ENDMDL
MODEL 7
REMARK VINA RESULT:      -7.6     17.725     18.876
REMARK  5 active torsions:
REMARK  status: ('A' for Active; 'I' for Inactive)
REMARK    1  A    between atoms: C_2  and  C_3 
REMARK    2  A    between atoms: C_8  and  C_9 
REMARK       I    between atoms: C_9  and  N_10 
REMARK    3  A    between atoms: N_10  and  C_11 
REMARK    4  A    between atoms: C_11  and  C_12 
REMARK    5  A    between atoms: C_19  and  C_20 
ROOT
HETATM    1  C   UNL     1      45.599 -27.987  -0.880  1.00  0.00     0.118 C 
HETATM    2  N   UNL     1      45.181 -28.525   0.408  1.00  0.00    -0.366 N 
HETATM    3  C   UNL     1      46.048 -29.037   1.304  1.00  0.00     0.123 A 
HETATM    4  N   UNL     1      47.392 -29.082   1.064  1.00  0.00    -0.240 N 
HETATM    5  N   UNL     1      48.116 -29.555   2.093  1.00  0.00    -0.165 NA
HETATM    6  C   UNL     1      47.181 -29.893   3.010  1.00  0.00     0.148 A 
HETATM    7  C   UNL     1      45.872 -29.579   2.549  1.00  0.00     0.088 A 
HETATM    8  C   UNL     1      48.015 -28.596  -0.150  1.00  0.00     0.221 C 
HETATM    9  C   UNL     1      47.088 -27.591  -0.858  1.00  0.00     0.066 C 
HETATM   10  H   UNL     1      44.175 -28.540   0.577  1.00  0.00     0.161 HD
ENDROOT
BRANCH   6  11
HETATM   11  C   UNL     1      47.527 -30.484   4.312  1.00  0.00     0.272 C 
HETATM   12  N   UNL     1      46.447 -30.651   5.149  1.00  0.00    -0.353 N 
HETATM   13  H   UNL     1      45.533 -30.487   4.730  1.00  0.00     0.162 HD
HETATM   14  O   UNL     1      48.673 -30.805   4.611  1.00  0.00    -0.266 OA
BRANCH  12  15
HETATM   15  C   UNL     1      46.529 -31.426   6.369  1.00  0.00     0.155 C 
BRANCH  15  16
HETATM   16  C   UNL     1      45.301 -32.313   6.558  1.00  0.00     0.139 C 
HETATM   17  O   UNL     1      44.515 -31.858   7.679  1.00  0.00    -0.384 OA
HETATM   18  C   UNL     1      43.125 -31.986   7.338  1.00  0.00     0.168 C 
HETATM   19  C   UNL     1      43.055 -32.690   5.999  1.00  0.00     0.029 C 
HETATM   20  C   UNL     1      44.363 -32.291   5.362  1.00  0.00     0.035 C 
ENDBRANCH  15  16
ENDBRANCH  12  15
ENDBRANCH   6  11
BRANCH   8  21
HETATM   21  C   UNL     1      48.441 -29.757  -1.019  1.00  0.00     0.409 C 
HETATM   22  F   UNL     1      47.703 -30.869  -0.843  1.00  0.00    -0.169 F 
HETATM   23  F   UNL     1      48.338 -29.417  -2.330  1.00  0.00    -0.169 F 
HETATM   24  F   UNL     1      49.735 -30.094  -0.817  1.00  0.00    -0.169 F 
ENDBRANCH   8  21
BRANCH   1  25
HETATM   25  C   UNL     1      45.184 -28.874  -2.043  1.00  0.00    -0.034 A 
HETATM   26  C   UNL     1      45.272 -28.470  -3.385  1.00  0.00     0.011 A 
HETATM   27  C   UNL     1      44.895 -29.328  -4.423  1.00  0.00     0.026 A 
HETATM   28  C   UNL     1      44.434 -30.614  -4.144  1.00  0.00     0.055 A 
HETATM   29  C   UNL     1      44.348 -31.040  -2.817  1.00  0.00     0.056 A 
HETATM   30 CL   UNL     1      43.994 -31.621  -5.475  1.00  0.00    -0.083 Cl
HETATM   31  C   UNL     1      44.720 -30.177  -1.779  1.00  0.00     0.034 A 
HETATM   32 CL   UNL     1      43.802 -32.622  -2.384  1.00  0.00    -0.083 Cl
ENDBRANCH   1  25
TORSDOF 5
ENDMDL
MODEL 8
REMARK VINA RESULT:      -7.5      5.157      9.347
REMARK  5 active torsions:
REMARK  status: ('A' for Active; 'I' for Inactive)
REMARK    1  A    between atoms: C_2  and  C_3 
REMARK    2  A    between atoms: C_8  and  C_9 
REMARK       I    between atoms: C_9  and  N_10 
REMARK    3  A    between atoms: N_10  and  C_11 
REMARK    4  A    between atoms: C_11  and  C_12 
REMARK    5  A    between atoms: C_19  and  C_20 
ROOT
HETATM    1  C   UNL     1      42.068  -9.416   9.979  1.00  0.00     0.118 C 
HETATM    2  N   UNL     1      41.619  -9.708   8.623  1.00  0.00    -0.366 N 
HETATM    3  C   UNL     1      42.417 -10.269   7.692  1.00  0.00     0.123 A 
HETATM    4  N   UNL     1      43.712 -10.609   7.962  1.00  0.00    -0.240 N 
HETATM    5  N   UNL     1      44.340 -11.224   6.945  1.00  0.00    -0.165 NA
HETATM    6  C   UNL     1      43.421 -11.215   5.953  1.00  0.00     0.148 A 
HETATM    7  C   UNL     1      42.201 -10.626   6.388  1.00  0.00     0.088 A 
HETATM    8  C   UNL     1      44.353 -10.409   9.246  1.00  0.00     0.221 C 
HETATM    9  C   UNL     1      43.292 -10.274  10.354  1.00  0.00     0.066 C 
HETATM   10  H   UNL     1      40.669  -9.415   8.397  1.00  0.00     0.161 HD
ENDROOT
BRANCH   6  11
HETATM   11  C   UNL     1      43.688 -11.778   4.620  1.00  0.00     0.272 C 
HETATM   12  N   UNL     1      43.026 -12.960   4.374  1.00  0.00    -0.353 N 
HETATM   13  H   UNL     1      42.331 -13.229   5.067  1.00  0.00     0.162 HD
HETATM   14  O   UNL     1      44.425 -11.230   3.805  1.00  0.00    -0.266 OA
BRANCH  12  15
HETATM   15  C   UNL     1      42.964 -13.548   3.053  1.00  0.00     0.155 C 
BRANCH  15  16
HETATM   16  C   UNL     1      43.120 -15.066   3.103  1.00  0.00     0.139 C 
HETATM   17  O   UNL     1      41.889 -15.687   3.529  1.00  0.00    -0.384 OA
HETATM   18  C   UNL     1      41.702 -16.889   2.764  1.00  0.00     0.168 C 
HETATM   19  C   UNL     1      42.952 -17.089   1.933  1.00  0.00     0.029 C 
HETATM   20  C   UNL     1      43.441 -15.675   1.749  1.00  0.00     0.035 C 
ENDBRANCH  15  16
ENDBRANCH  12  15
ENDBRANCH   6  11
BRANCH   8  21
HETATM   21  C   UNL     1      45.317  -9.246   9.173  1.00  0.00     0.409 C 
HETATM   22  F   UNL     1      44.927  -8.267   8.336  1.00  0.00    -0.169 F 
HETATM   23  F   UNL     1      45.459  -8.684  10.401  1.00  0.00    -0.169 F 
HETATM   24  F   UNL     1      46.554  -9.636   8.790  1.00  0.00    -0.169 F 
ENDBRANCH   8  21
BRANCH   1  25
HETATM   25  C   UNL     1      42.223  -7.925  10.231  1.00  0.00    -0.034 A 
HETATM   26  C   UNL     1      42.286  -6.976   9.198  1.00  0.00     0.011 A 
HETATM   27  C   UNL     1      42.411  -5.611   9.477  1.00  0.00     0.026 A 
HETATM   28  C   UNL     1      42.462  -5.163  10.797  1.00  0.00     0.055 A 
HETATM   29  C   UNL     1      42.390  -6.089  11.841  1.00  0.00     0.056 A 
HETATM   30 CL   UNL     1      42.607  -3.465  11.069  1.00  0.00    -0.083 Cl
HETATM   31  C   UNL     1      42.272  -7.456  11.557  1.00  0.00     0.034 A 
HETATM   32 CL   UNL     1      42.430  -5.618  13.503  1.00  0.00    -0.083 Cl
ENDBRANCH   1  25
TORSDOF 5
ENDMDL
MODEL 9
REMARK VINA RESULT:      -7.5      7.554     10.547
REMARK  5 active torsions:
REMARK  status: ('A' for Active; 'I' for Inactive)
REMARK    1  A    between atoms: C_2  and  C_3 
REMARK    2  A    between atoms: C_8  and  C_9 
REMARK       I    between atoms: C_9  and  N_10 
REMARK    3  A    between atoms: N_10  and  C_11 
REMARK    4  A    between atoms: C_11  and  C_12 
REMARK    5  A    between atoms: C_19  and  C_20 
ROOT
HETATM    1  C   UNL     1      43.547  -8.966  11.601  1.00  0.00     0.118 C 
HETATM    2  N   UNL     1      43.703  -7.997  12.678  1.00  0.00    -0.366 N 
HETATM    3  C   UNL     1      42.863  -7.932  13.732  1.00  0.00     0.123 A 
HETATM    4  N   UNL     1      41.802  -8.781  13.862  1.00  0.00    -0.240 N 
HETATM    5  N   UNL     1      41.114  -8.625  15.006  1.00  0.00    -0.165 NA
HETATM    6  C   UNL     1      41.726  -7.578  15.605  1.00  0.00     0.148 A 
HETATM    7  C   UNL     1      42.830  -7.119  14.833  1.00  0.00     0.088 A 
HETATM    8  C   UNL     1      41.471  -9.819  12.907  1.00  0.00     0.221 C 
HETATM    9  C   UNL     1      42.707 -10.174  12.059  1.00  0.00     0.066 C 
HETATM   10  H   UNL     1      44.463  -7.327  12.567  1.00  0.00     0.161 HD
ENDROOT
BRANCH   6  11
HETATM   11  C   UNL     1      41.283  -7.036  16.899  1.00  0.00     0.272 C 
HETATM   12  N   UNL     1      42.305  -6.513  17.659  1.00  0.00    -0.353 N 
HETATM   13  H   UNL     1      43.206  -6.430  17.192  1.00  0.00     0.162 HD
HETATM   14  O   UNL     1      40.108  -7.043  17.253  1.00  0.00    -0.266 OA
BRANCH  12  15
HETATM   15  C   UNL     1      42.056  -5.724  18.847  1.00  0.00     0.155 C 
BRANCH  15  16
HETATM   16  C   UNL     1      42.419  -6.488  20.118  1.00  0.00     0.139 C 
HETATM   17  O   UNL     1      41.422  -7.491  20.407  1.00  0.00    -0.384 OA
HETATM   18  C   UNL     1      42.091  -8.667  20.891  1.00  0.00     0.168 C 
HETATM   19  C   UNL     1      43.557  -8.317  21.043  1.00  0.00     0.029 C 
HETATM   20  C   UNL     1      43.735  -7.238  20.005  1.00  0.00     0.035 C 
ENDBRANCH  15  16
ENDBRANCH  12  15
ENDBRANCH   6  11
BRANCH   8  21
HETATM   21  C   UNL     1      40.263  -9.415  12.093  1.00  0.00     0.409 C 
HETATM   22  F   UNL     1      40.193  -8.095  11.841  1.00  0.00    -0.169 F 
HETATM   23  F   UNL     1      40.279 -10.048  10.892  1.00  0.00    -0.169 F 
HETATM   24  F   UNL     1      39.105  -9.774  12.693  1.00  0.00    -0.169 F 
ENDBRANCH   8  21
BRANCH   1  25
HETATM   25  C   UNL     1      43.095  -8.321  10.300  1.00  0.00    -0.034 A 
HETATM   26  C   UNL     1      42.869  -6.941  10.168  1.00  0.00     0.011 A 
HETATM   27  C   UNL     1      42.471  -6.389   8.946  1.00  0.00     0.026 A 
HETATM   28  C   UNL     1      42.304  -7.202   7.825  1.00  0.00     0.055 A 
HETATM   29  C   UNL     1      42.534  -8.576   7.932  1.00  0.00     0.056 A 
HETATM   30 CL   UNL     1      41.819  -6.452   6.348  1.00  0.00    -0.083 Cl
HETATM   31  C   UNL     1      42.925  -9.127   9.159  1.00  0.00     0.034 A 
HETATM   32 CL   UNL     1      42.364  -9.651   6.590  1.00  0.00    -0.083 Cl
ENDBRANCH   1  25
TORSDOF 5
ENDMDL
MODEL 10
REMARK VINA RESULT:      -7.4      4.237      6.412
REMARK  5 active torsions:
REMARK  status: ('A' for Active; 'I' for Inactive)
REMARK    1  A    between atoms: C_2  and  C_3 
REMARK    2  A    between atoms: C_8  and  C_9 
REMARK       I    between atoms: C_9  and  N_10 
REMARK    3  A    between atoms: N_10  and  C_11 
REMARK    4  A    between atoms: C_11  and  C_12 
REMARK    5  A    between atoms: C_19  and  C_20 
ROOT
HETATM    1  C   UNL     1      42.806 -14.930   4.768  1.00  0.00     0.118 C 
HETATM    2  N   UNL     1      43.346 -13.783   4.050  1.00  0.00    -0.366 N 
HETATM    3  C   UNL     1      42.570 -12.898   3.392  1.00  0.00     0.123 A 
HETATM    4  N   UNL     1      41.209 -13.016   3.360  1.00  0.00    -0.240 N 
HETATM    5  N   UNL     1      40.587 -12.009   2.724  1.00  0.00    -0.165 NA
HETATM    6  C   UNL     1      41.606 -11.244   2.268  1.00  0.00     0.148 A 
HETATM    7  C   UNL     1      42.864 -11.772   2.672  1.00  0.00     0.088 A 
HETATM    8  C   UNL     1      40.472 -14.079   4.013  1.00  0.00     0.221 C 
HETATM    9  C   UNL     1      41.324 -14.709   5.130  1.00  0.00     0.066 C 
HETATM   10  H   UNL     1      44.363 -13.712   4.026  1.00  0.00     0.161 HD
ENDROOT
BRANCH   6  11
HETATM   11  C   UNL     1      41.387 -10.021   1.481  1.00  0.00     0.272 C 
HETATM   12  N   UNL     1      41.613 -10.181   0.133  1.00  0.00    -0.353 N 
HETATM   13  H   UNL     1      41.760 -11.139  -0.180  1.00  0.00     0.162 HD
HETATM   14  O   UNL     1      41.025  -8.963   1.988  1.00  0.00    -0.266 OA
BRANCH  12  15
HETATM   15  C   UNL     1      41.229  -9.178  -0.838  1.00  0.00     0.155 C 
BRANCH  15  16
HETATM   16  C   UNL     1      42.447  -8.540  -1.501  1.00  0.00     0.139 C 
HETATM   17  O   UNL     1      42.198  -8.312  -2.904  1.00  0.00    -0.384 OA
HETATM   18  C   UNL     1      42.781  -7.050  -3.267  1.00  0.00     0.168 C 
HETATM   19  C   UNL     1      43.550  -6.549  -2.062  1.00  0.00     0.029 C 
HETATM   20  C   UNL     1      42.796  -7.181  -0.919  1.00  0.00     0.035 C 
ENDBRANCH  15  16
ENDBRANCH  12  15
ENDBRANCH   6  11
BRANCH   8  21
HETATM   21  C   UNL     1      39.970 -15.071   2.989  1.00  0.00     0.409 C 
HETATM   22  F   UNL     1      40.734 -15.147   1.883  1.00  0.00    -0.169 F 
HETATM   23  F   UNL     1      39.931 -16.316   3.530  1.00  0.00    -0.169 F 
HETATM   24  F   UNL     1      38.708 -14.794   2.590  1.00  0.00    -0.169 F 
ENDBRANCH   8  21
BRANCH   1  25
HETATM   25  C   UNL     1      43.112 -16.247   4.074  1.00  0.00    -0.034 A 
HETATM   26  C   UNL     1      43.181 -16.380   2.678  1.00  0.00     0.011 A 
HETATM   27  C   UNL     1      43.484 -17.609   2.084  1.00  0.00     0.026 A 
HETATM   28  C   UNL     1      43.738 -18.731   2.873  1.00  0.00     0.055 A 
HETATM   29  C   UNL     1      43.686 -18.619   4.264  1.00  0.00     0.056 A 
HETATM   30 CL   UNL     1      44.114 -20.213   2.072  1.00  0.00    -0.083 Cl
HETATM   31  C   UNL     1      43.375 -17.388   4.856  1.00  0.00     0.034 A 
HETATM   32 CL   UNL     1      44.002 -19.955   5.315  1.00  0.00    -0.083 Cl
ENDBRANCH   1  25
TORSDOF 5
ENDMDL
