MODEL 1
REMARK VINA RESULT:      -9.2      0.000      0.000
REMARK  6 active torsions:
REMARK  status: ('A' for Active; 'I' for Inactive)
REMARK    1  A    between atoms: C_3  and  C_4 
REMARK    2  A    between atoms: C_4  and  C_5 
REMARK    3  A    between atoms: N_8  and  C_10 
REMARK    4  A    between atoms: C_10  and  C_11 
REMARK    5  A    between atoms: N_24  and  C_25 
REMARK    6  A    between atoms: C_25  and  C_26 
ROOT
HETATM    1  C   UNL     1      40.709 -12.853   2.363  1.00  0.00     0.164 C 
HETATM    2  N   UNL     1      42.151 -13.005   2.254  1.00  0.00    -0.319 N 
HETATM    3  C   UNL     1      42.821 -12.113   3.062  1.00  0.00     0.326 C 
HETATM    4  O   UNL     1      44.026 -11.945   2.994  1.00  0.00    -0.247 OA
HETATM    5  N   UNL     1      41.930 -11.479   3.863  1.00  0.00    -0.265 N 
HETATM    6  C   UNL     1      40.660 -11.727   3.422  1.00  0.00     0.263 C 
HETATM    7  O   UNL     1      39.638 -11.180   3.815  1.00  0.00    -0.270 OA
HETATM    8  H   UNL     1      42.565 -13.121   1.332  1.00  0.00     0.166 HD
ENDROOT
BRANCH   1   9
HETATM    9  C   UNL     1      40.155 -12.422   1.008  1.00  0.00     0.072 A 
HETATM   10  C   UNL     1      38.830 -12.043   0.814  1.00  0.00     0.030 A 
HETATM   11  C   UNL     1      38.417 -11.668  -0.462  1.00  0.00     0.003 A 
HETATM   12  C   UNL     1      39.324 -11.691  -1.514  1.00  0.00     0.019 A 
HETATM   13  C   UNL     1      40.615 -12.106  -1.253  1.00  0.00     0.117 A 
HETATM   14  N   UNL     1      41.047 -12.490  -0.029  1.00  0.00    -0.262 NA
ENDBRANCH   1   9
BRANCH   1  15
HETATM   15  C   UNL     1      40.020 -14.145   2.933  1.00  0.00     0.033 C 
HETATM   16  C   UNL     1      40.521 -14.581   4.328  1.00  0.00     0.036 C 
HETATM   17  C   UNL     1      41.898 -15.243   4.340  1.00  0.00     0.235 C 
HETATM   18  N   UNL     1      41.990 -16.354   3.319  1.00  0.00    -0.067 N 
HETATM   19  H   UNL     1      41.415 -17.132   3.673  1.00  0.00     0.280 HD
HETATM   20  C   UNL     1      41.477 -15.987   1.943  1.00  0.00     0.235 C 
HETATM   21  C   UNL     1      40.086 -15.389   2.029  1.00  0.00     0.036 C 
BRANCH  18  22
HETATM   22  C   UNL     1      43.408 -16.907   3.179  1.00  0.00     0.278 C 
BRANCH  22  23
HETATM   23  C   UNL     1      43.641 -18.301   3.676  1.00  0.00     0.028 A 
HETATM   24  C   UNL     1      43.946 -18.608   5.007  1.00  0.00     0.045 A 
HETATM   25 CL   UNL     1      44.127 -17.359   6.185  1.00  0.00    -0.084 Cl
HETATM   26  C   UNL     1      44.133 -19.934   5.409  1.00  0.00     0.024 A 
HETATM   27  C   UNL     1      44.012 -20.973   4.485  1.00  0.00     0.005 A 
HETATM   28  C   UNL     1      43.706 -20.685   3.158  1.00  0.00     0.043 A 
HETATM   29  C   UNL     1      43.524 -19.363   2.771  1.00  0.00     0.126 A 
HETATM   30  F   UNL     1      43.234 -19.103   1.489  1.00  0.00    -0.205 F 
ENDBRANCH  22  23
ENDBRANCH  18  22
ENDBRANCH   1  15
BRANCH   5  31
HETATM   31  C   UNL     1      42.309 -10.464   4.836  1.00  0.00     0.168 C 
BRANCH  31  32
HETATM   32  C   UNL     1      42.876 -11.041   6.136  1.00  0.00     0.140 C 
HETATM   33  O   UNL     1      42.562 -12.443   6.260  1.00  0.00    -0.384 OA
HETATM   34  C   UNL     1      43.533 -12.967   7.178  1.00  0.00     0.168 C 
HETATM   35  C   UNL     1      44.828 -12.284   6.802  1.00  0.00     0.029 C 
HETATM   36  C   UNL     1      44.396 -10.950   6.225  1.00  0.00     0.036 C 
ENDBRANCH  31  32
ENDBRANCH   5  31
TORSDOF 6
ENDMDL
MODEL 2
REMARK VINA RESULT:      -8.9      3.045      7.532
REMARK  6 active torsions:
REMARK  status: ('A' for Active; 'I' for Inactive)
REMARK    1  A    between atoms: C_3  and  C_4 
REMARK    2  A    between atoms: C_4  and  C_5 
REMARK    3  A    between atoms: N_8  and  C_10 
REMARK    4  A    between atoms: C_10  and  C_11 
REMARK    5  A    between atoms: N_24  and  C_25 
REMARK    6  A    between atoms: C_25  and  C_26 
ROOT
HETATM    1  C   UNL     1      42.348 -15.789   4.792  1.00  0.00     0.164 C 
HETATM    2  N   UNL     1      43.276 -14.843   4.191  1.00  0.00    -0.319 N 
HETATM    3  C   UNL     1      42.785 -14.326   3.012  1.00  0.00     0.326 C 
HETATM    4  O   UNL     1      43.468 -13.657   2.257  1.00  0.00    -0.247 OA
HETATM    5  N   UNL     1      41.496 -14.716   2.855  1.00  0.00    -0.265 N 
HETATM    6  C   UNL     1      41.201 -15.699   3.758  1.00  0.00     0.263 C 
HETATM    7  O   UNL     1      40.185 -16.380   3.780  1.00  0.00    -0.270 OA
HETATM    8  H   UNL     1      44.266 -15.075   4.162  1.00  0.00     0.166 HD
ENDROOT
BRANCH   1   9
HETATM    9  C   UNL     1      43.007 -17.165   4.832  1.00  0.00     0.072 A 
HETATM   10  C   UNL     1      43.582 -17.766   3.716  1.00  0.00     0.030 A 
HETATM   11  C   UNL     1      44.158 -19.027   3.851  1.00  0.00     0.003 A 
HETATM   12  C   UNL     1      44.138 -19.664   5.085  1.00  0.00     0.019 A 
HETATM   13  C   UNL     1      43.525 -19.020   6.142  1.00  0.00     0.117 A 
HETATM   14  N   UNL     1      42.944 -17.802   6.043  1.00  0.00    -0.262 NA
ENDBRANCH   1   9
BRANCH   1  15
HETATM   15  C   UNL     1      41.836 -15.305   6.195  1.00  0.00     0.033 C 
HETATM   16  C   UNL     1      40.775 -14.183   6.142  1.00  0.00     0.036 C 
HETATM   17  C   UNL     1      41.320 -12.797   5.800  1.00  0.00     0.235 C 
HETATM   18  N   UNL     1      42.501 -12.435   6.671  1.00  0.00    -0.067 N 
HETATM   19  H   UNL     1      42.131 -12.254   7.615  1.00  0.00     0.280 HD
HETATM   20  C   UNL     1      43.553 -13.517   6.784  1.00  0.00     0.235 C 
HETATM   21  C   UNL     1      42.925 -14.839   7.178  1.00  0.00     0.036 C 
BRANCH  18  22
HETATM   22  C   UNL     1      43.180 -11.139   6.228  1.00  0.00     0.278 C 
BRANCH  22  23
HETATM   23  C   UNL     1      44.017 -10.431   7.251  1.00  0.00     0.028 A 
HETATM   24  C   UNL     1      43.483  -9.660   8.289  1.00  0.00     0.045 A 
HETATM   25 CL   UNL     1      41.778  -9.428   8.433  1.00  0.00    -0.084 Cl
HETATM   26  C   UNL     1      44.321  -9.041   9.222  1.00  0.00     0.024 A 
HETATM   27  C   UNL     1      45.705  -9.189   9.132  1.00  0.00     0.005 A 
HETATM   28  C   UNL     1      46.252  -9.956   8.107  1.00  0.00     0.043 A 
HETATM   29  C   UNL     1      45.409 -10.565   7.185  1.00  0.00     0.126 A 
HETATM   30  F   UNL     1      45.952 -11.295   6.202  1.00  0.00    -0.205 F 
ENDBRANCH  22  23
ENDBRANCH  18  22
ENDBRANCH   1  15
BRANCH   5  31
HETATM   31  C   UNL     1      40.683 -14.347   1.705  1.00  0.00     0.168 C 
BRANCH  31  32
HETATM   32  C   UNL     1      40.222 -12.887   1.722  1.00  0.00     0.140 C 
HETATM   33  O   UNL     1      39.657 -12.508   0.450  1.00  0.00    -0.384 OA
HETATM   34  C   UNL     1      38.825 -11.373   0.730  1.00  0.00     0.168 C 
HETATM   35  C   UNL     1      38.149 -11.703   2.041  1.00  0.00     0.029 C 
HETATM   36  C   UNL     1      39.133 -12.609   2.754  1.00  0.00     0.036 C 
ENDBRANCH  31  32
ENDBRANCH   5  31
TORSDOF 6
ENDMDL
MODEL 3
REMARK VINA RESULT:      -8.9      1.678      2.074
REMARK  6 active torsions:
REMARK  status: ('A' for Active; 'I' for Inactive)
REMARK    1  A    between atoms: C_3  and  C_4 
REMARK    2  A    between atoms: C_4  and  C_5 
REMARK    3  A    between atoms: N_8  and  C_10 
REMARK    4  A    between atoms: C_10  and  C_11 
REMARK    5  A    between atoms: N_24  and  C_25 
REMARK    6  A    between atoms: C_25  and  C_26 
ROOT
HETATM    1  C   UNL     1      40.542 -13.193   1.472  1.00  0.00     0.164 C 
HETATM    2  N   UNL     1      41.944 -13.071   1.840  1.00  0.00    -0.319 N 
HETATM    3  C   UNL     1      42.197 -11.889   2.501  1.00  0.00     0.326 C 
HETATM    4  O   UNL     1      43.327 -11.503   2.742  1.00  0.00    -0.247 OA
HETATM    5  N   UNL     1      41.022 -11.271   2.776  1.00  0.00    -0.265 N 
HETATM    6  C   UNL     1      40.013 -11.873   2.078  1.00  0.00     0.263 C 
HETATM    7  O   UNL     1      38.864 -11.465   1.971  1.00  0.00    -0.270 OA
HETATM    8  H   UNL     1      42.656 -13.327   1.160  1.00  0.00     0.166 HD
ENDROOT
BRANCH   1   9
HETATM    9  C   UNL     1      40.436 -13.235  -0.050  1.00  0.00     0.072 A 
HETATM   10  C   UNL     1      39.773 -14.247  -0.739  1.00  0.00     0.030 A 
HETATM   11  C   UNL     1      39.732 -14.199  -2.130  1.00  0.00     0.003 A 
HETATM   12  C   UNL     1      40.359 -13.159  -2.803  1.00  0.00     0.019 A 
HETATM   13  C   UNL     1      41.023 -12.205  -2.055  1.00  0.00     0.117 A 
HETATM   14  N   UNL     1      41.094 -12.228  -0.704  1.00  0.00    -0.262 NA
ENDBRANCH   1   9
BRANCH   1  15
HETATM   15  C   UNL     1      39.849 -14.414   2.176  1.00  0.00     0.033 C 
HETATM   16  C   UNL     1      40.067 -14.486   3.704  1.00  0.00     0.036 C 
HETATM   17  C   UNL     1      41.457 -14.954   4.135  1.00  0.00     0.235 C 
HETATM   18  N   UNL     1      41.856 -16.232   3.433  1.00  0.00    -0.067 N 
HETATM   19  H   UNL     1      41.280 -16.985   3.837  1.00  0.00     0.280 HD
HETATM   20  C   UNL     1      41.628 -16.225   1.938  1.00  0.00     0.235 C 
HETATM   21  C   UNL     1      40.209 -15.801   1.611  1.00  0.00     0.036 C 
BRANCH  18  22
HETATM   22  C   UNL     1      43.309 -16.621   3.704  1.00  0.00     0.278 C 
BRANCH  22  23
HETATM   23  C   UNL     1      43.557 -18.020   4.179  1.00  0.00     0.028 A 
HETATM   24  C   UNL     1      43.599 -18.383   5.530  1.00  0.00     0.045 A 
HETATM   25 CL   UNL     1      43.412 -17.198   6.771  1.00  0.00    -0.084 Cl
HETATM   26  C   UNL     1      43.816 -19.712   5.905  1.00  0.00     0.024 A 
HETATM   27  C   UNL     1      43.989 -20.699   4.935  1.00  0.00     0.005 A 
HETATM   28  C   UNL     1      43.947 -20.355   3.586  1.00  0.00     0.043 A 
HETATM   29  C   UNL     1      43.731 -19.030   3.226  1.00  0.00     0.126 A 
HETATM   30  F   UNL     1      43.698 -18.716   1.924  1.00  0.00    -0.205 F 
ENDBRANCH  22  23
ENDBRANCH  18  22
ENDBRANCH   1  15
BRANCH   5  31
HETATM   31  C   UNL     1      40.934  -9.991   3.464  1.00  0.00     0.168 C 
BRANCH  31  32
HETATM   32  C   UNL     1      40.427 -10.101   4.905  1.00  0.00     0.140 C 
HETATM   33  O   UNL     1      38.986 -10.127   4.945  1.00  0.00    -0.384 OA
HETATM   34  C   UNL     1      38.655 -10.734   6.203  1.00  0.00     0.168 C 
HETATM   35  C   UNL     1      39.659 -11.853   6.367  1.00  0.00     0.029 C 
HETATM   36  C   UNL     1      40.882 -11.375   5.610  1.00  0.00     0.036 C 
ENDBRANCH  31  32
ENDBRANCH   5  31
TORSDOF 6
ENDMDL
MODEL 4
REMARK VINA RESULT:      -8.7      3.251      7.603
REMARK  6 active torsions:
REMARK  status: ('A' for Active; 'I' for Inactive)
REMARK    1  A    between atoms: C_3  and  C_4 
REMARK    2  A    between atoms: C_4  and  C_5 
REMARK    3  A    between atoms: N_8  and  C_10 
REMARK    4  A    between atoms: C_10  and  C_11 
REMARK    5  A    between atoms: N_24  and  C_25 
REMARK    6  A    between atoms: C_25  and  C_26 
ROOT
HETATM    1  C   UNL     1      42.004 -15.129   4.201  1.00  0.00     0.164 C 
HETATM    2  N   UNL     1      42.811 -14.004   3.754  1.00  0.00    -0.319 N 
HETATM    3  C   UNL     1      42.218 -13.336   2.706  1.00  0.00     0.326 C 
HETATM    4  O   UNL     1      42.799 -12.478   2.064  1.00  0.00    -0.247 OA
HETATM    5  N   UNL     1      40.964 -13.816   2.522  1.00  0.00    -0.265 N 
HETATM    6  C   UNL     1      40.804 -14.968   3.239  1.00  0.00     0.263 C 
HETATM    7  O   UNL     1      39.856 -15.739   3.169  1.00  0.00    -0.270 OA
HETATM    8  H   UNL     1      43.816 -14.129   3.652  1.00  0.00     0.166 HD
ENDROOT
BRANCH   1   9
HETATM    9  C   UNL     1      42.787 -16.418   3.968  1.00  0.00     0.072 A 
HETATM   10  C   UNL     1      42.946 -16.995   2.712  1.00  0.00     0.030 A 
HETATM   11  C   UNL     1      43.676 -18.176   2.600  1.00  0.00     0.003 A 
HETATM   12  C   UNL     1      44.217 -18.761   3.737  1.00  0.00     0.019 A 
HETATM   13  C   UNL     1      43.995 -18.148   4.955  1.00  0.00     0.117 A 
HETATM   14  N   UNL     1      43.279 -17.009   5.101  1.00  0.00    -0.262 NA
ENDBRANCH   1   9
BRANCH   1  15
HETATM   15  C   UNL     1      41.520 -14.957   5.685  1.00  0.00     0.033 C 
HETATM   16  C   UNL     1      40.477 -13.836   5.897  1.00  0.00     0.036 C 
HETATM   17  C   UNL     1      41.041 -12.416   5.857  1.00  0.00     0.235 C 
HETATM   18  N   UNL     1      42.241 -12.269   6.764  1.00  0.00    -0.067 N 
HETATM   19  H   UNL     1      41.887 -12.294   7.732  1.00  0.00     0.280 HD
HETATM   20  C   UNL     1      43.276 -13.363   6.620  1.00  0.00     0.235 C 
HETATM   21  C   UNL     1      42.631 -14.731   6.727  1.00  0.00     0.036 C 
BRANCH  18  22
HETATM   22  C   UNL     1      42.935 -10.917   6.604  1.00  0.00     0.278 C 
BRANCH  22  23
HETATM   23  C   UNL     1      43.578 -10.338   7.828  1.00  0.00     0.028 A 
HETATM   24  C   UNL     1      44.956 -10.369   8.068  1.00  0.00     0.045 A 
HETATM   25 CL   UNL     1      46.030 -11.142   6.960  1.00  0.00    -0.084 Cl
HETATM   26  C   UNL     1      45.492  -9.791   9.223  1.00  0.00     0.024 A 
HETATM   27  C   UNL     1      44.657  -9.171  10.153  1.00  0.00     0.005 A 
HETATM   28  C   UNL     1      43.284  -9.128   9.927  1.00  0.00     0.043 A 
HETATM   29  C   UNL     1      42.763  -9.706   8.776  1.00  0.00     0.126 A 
HETATM   30  F   UNL     1      41.439  -9.661   8.577  1.00  0.00    -0.205 F 
ENDBRANCH  22  23
ENDBRANCH  18  22
ENDBRANCH   1  15
BRANCH   5  31
HETATM   31  C   UNL     1      40.065 -13.328   1.486  1.00  0.00     0.168 C 
BRANCH  31  32
HETATM   32  C   UNL     1      40.487 -13.727   0.069  1.00  0.00     0.140 C 
HETATM   33  O   UNL     1      39.449 -14.486  -0.585  1.00  0.00    -0.384 OA
HETATM   34  C   UNL     1      39.710 -14.350  -1.989  1.00  0.00     0.168 C 
HETATM   35  C   UNL     1      40.127 -12.908  -2.167  1.00  0.00     0.029 C 
HETATM   36  C   UNL     1      40.757 -12.532  -0.841  1.00  0.00     0.036 C 
ENDBRANCH  31  32
ENDBRANCH   5  31
TORSDOF 6
ENDMDL
MODEL 5
REMARK VINA RESULT:      -8.6      2.445      5.810
REMARK  6 active torsions:
REMARK  status: ('A' for Active; 'I' for Inactive)
REMARK    1  A    between atoms: C_3  and  C_4 
REMARK    2  A    between atoms: C_4  and  C_5 
REMARK    3  A    between atoms: N_8  and  C_10 
REMARK    4  A    between atoms: C_10  and  C_11 
REMARK    5  A    between atoms: N_24  and  C_25 
REMARK    6  A    between atoms: C_25  and  C_26 
ROOT
HETATM    1  C   UNL     1      42.249 -10.811   6.182  1.00  0.00     0.164 C 
HETATM    2  N   UNL     1      41.295 -11.847   6.544  1.00  0.00    -0.319 N 
HETATM    3  C   UNL     1      40.109 -11.712   5.856  1.00  0.00     0.326 C 
HETATM    4  O   UNL     1      39.115 -12.359   6.132  1.00  0.00    -0.247 OA
HETATM    5  N   UNL     1      40.251 -10.756   4.904  1.00  0.00    -0.265 N 
HETATM    6  C   UNL     1      41.410 -10.064   5.119  1.00  0.00     0.263 C 
HETATM    7  O   UNL     1      41.756  -9.038   4.548  1.00  0.00    -0.270 OA
HETATM    8  H   UNL     1      41.180 -12.089   7.525  1.00  0.00     0.166 HD
ENDROOT
BRANCH   1   9
HETATM    9  C   UNL     1      42.543  -9.961   7.415  1.00  0.00     0.072 A 
HETATM   10  C   UNL     1      43.833  -9.653   7.836  1.00  0.00     0.030 A 
HETATM   11  C   UNL     1      44.001  -8.871   8.977  1.00  0.00     0.003 A 
HETATM   12  C   UNL     1      42.887  -8.427   9.677  1.00  0.00     0.019 A 
HETATM   13  C   UNL     1      41.638  -8.795   9.217  1.00  0.00     0.117 A 
HETATM   14  N   UNL     1      41.439  -9.564   8.121  1.00  0.00    -0.262 NA
ENDBRANCH   1   9
BRANCH   1  15
HETATM   15  C   UNL     1      43.541 -11.403   5.515  1.00  0.00     0.033 C 
HETATM   16  C   UNL     1      43.331 -11.969   4.092  1.00  0.00     0.036 C 
HETATM   17  C   UNL     1      42.615 -13.318   4.035  1.00  0.00     0.235 C 
HETATM   18  N   UNL     1      43.248 -14.323   4.970  1.00  0.00    -0.067 N 
HETATM   19  H   UNL     1      44.155 -14.584   4.556  1.00  0.00     0.280 HD
HETATM   20  C   UNL     1      43.508 -13.805   6.367  1.00  0.00     0.235 C 
HETATM   21  C   UNL     1      44.268 -12.494   6.322  1.00  0.00     0.036 C 
BRANCH  18  22
HETATM   22  C   UNL     1      42.443 -15.618   5.072  1.00  0.00     0.278 C 
BRANCH  22  23
HETATM   23  C   UNL     1      42.960 -16.798   4.307  1.00  0.00     0.028 A 
HETATM   24  C   UNL     1      42.461 -17.193   3.061  1.00  0.00     0.045 A 
HETATM   25 CL   UNL     1      41.146 -16.350   2.327  1.00  0.00    -0.084 Cl
HETATM   26  C   UNL     1      43.004 -18.294   2.392  1.00  0.00     0.024 A 
HETATM   27  C   UNL     1      44.057 -19.014   2.957  1.00  0.00     0.005 A 
HETATM   28  C   UNL     1      44.567 -18.632   4.195  1.00  0.00     0.043 A 
HETATM   29  C   UNL     1      44.018 -17.536   4.851  1.00  0.00     0.126 A 
HETATM   30  F   UNL     1      44.518 -17.186   6.043  1.00  0.00    -0.205 F 
ENDBRANCH  22  23
ENDBRANCH  18  22
ENDBRANCH   1  15
BRANCH   5  31
HETATM   31  C   UNL     1      39.179 -10.360   4.002  1.00  0.00     0.168 C 
BRANCH  31  32
HETATM   32  C   UNL     1      39.292 -10.976   2.605  1.00  0.00     0.140 C 
HETATM   33  O   UNL     1      40.657 -10.953   2.139  1.00  0.00    -0.384 OA
HETATM   34  C   UNL     1      40.728 -11.969   1.129  1.00  0.00     0.168 C 
HETATM   35  C   UNL     1      39.899 -13.111   1.671  1.00  0.00     0.029 C 
HETATM   36  C   UNL     1      38.865 -12.440   2.553  1.00  0.00     0.036 C 
ENDBRANCH  31  32
ENDBRANCH   5  31
TORSDOF 6
ENDMDL
MODEL 6
REMARK VINA RESULT:      -8.6      3.358      7.307
REMARK  6 active torsions:
REMARK  status: ('A' for Active; 'I' for Inactive)
REMARK    1  A    between atoms: C_3  and  C_4 
REMARK    2  A    between atoms: C_4  and  C_5 
REMARK    3  A    between atoms: N_8  and  C_10 
REMARK    4  A    between atoms: C_10  and  C_11 
REMARK    5  A    between atoms: N_24  and  C_25 
REMARK    6  A    between atoms: C_25  and  C_26 
ROOT
HETATM    1  C   UNL     1      41.488 -13.632   3.682  1.00  0.00     0.164 C 
HETATM    2  N   UNL     1      42.413 -12.532   3.462  1.00  0.00    -0.319 N 
HETATM    3  C   UNL     1      41.867 -11.559   2.655  1.00  0.00     0.326 C 
HETATM    4  O   UNL     1      42.525 -10.641   2.199  1.00  0.00    -0.247 OA
HETATM    5  N   UNL     1      40.554 -11.830   2.454  1.00  0.00    -0.265 N 
HETATM    6  C   UNL     1      40.278 -13.099   2.881  1.00  0.00     0.263 C 
HETATM    7  O   UNL     1      39.235 -13.713   2.696  1.00  0.00    -0.270 OA
HETATM    8  H   UNL     1      43.388 -12.742   3.258  1.00  0.00     0.166 HD
ENDROOT
BRANCH   1   9
HETATM    9  C   UNL     1      42.085 -14.904   3.085  1.00  0.00     0.072 A 
HETATM   10  C   UNL     1      43.010 -14.894   2.046  1.00  0.00     0.030 A 
HETATM   11  C   UNL     1      43.497 -16.107   1.566  1.00  0.00     0.003 A 
HETATM   12  C   UNL     1      43.044 -17.298   2.118  1.00  0.00     0.019 A 
HETATM   13  C   UNL     1      42.104 -17.232   3.128  1.00  0.00     0.117 A 
HETATM   14  N   UNL     1      41.599 -16.072   3.609  1.00  0.00    -0.262 NA
ENDBRANCH   1   9
BRANCH   1  15
HETATM   15  C   UNL     1      41.095 -13.782   5.195  1.00  0.00     0.033 C 
HETATM   16  C   UNL     1      40.287 -12.599   5.772  1.00  0.00     0.036 C 
HETATM   17  C   UNL     1      41.103 -11.336   6.050  1.00  0.00     0.235 C 
HETATM   18  N   UNL     1      42.340 -11.642   6.863  1.00  0.00    -0.067 N 
HETATM   19  H   UNL     1      42.022 -11.864   7.818  1.00  0.00     0.280 HD
HETATM   20  C   UNL     1      43.148 -12.818   6.359  1.00  0.00     0.235 C 
HETATM   21  C   UNL     1      42.264 -14.035   6.165  1.00  0.00     0.036 C 
BRANCH  18  22
HETATM   22  C   UNL     1      43.267 -10.435   6.997  1.00  0.00     0.278 C 
BRANCH  22  23
HETATM   23  C   UNL     1      43.601  -9.991   8.389  1.00  0.00     0.028 A 
HETATM   24  C   UNL     1      42.740  -9.229   9.187  1.00  0.00     0.045 A 
HETATM   25 CL   UNL     1      41.213  -8.696   8.583  1.00  0.00    -0.084 Cl
HETATM   26  C   UNL     1      43.106  -8.865  10.486  1.00  0.00     0.024 A 
HETATM   27  C   UNL     1      44.338  -9.260  11.007  1.00  0.00     0.005 A 
HETATM   28  C   UNL     1      45.206 -10.020  10.228  1.00  0.00     0.043 A 
HETATM   29  C   UNL     1      44.830 -10.376   8.938  1.00  0.00     0.126 A 
HETATM   30  F   UNL     1      45.679 -11.104   8.200  1.00  0.00    -0.205 F 
ENDBRANCH  22  23
ENDBRANCH  18  22
ENDBRANCH   1  15
BRANCH   5  31
HETATM   31  C   UNL     1      39.681 -10.999   1.638  1.00  0.00     0.168 C 
BRANCH  31  32
HETATM   32  C   UNL     1      39.707 -11.357   0.149  1.00  0.00     0.140 C 
HETATM   33  O   UNL     1      40.781 -12.275  -0.143  1.00  0.00    -0.384 OA
HETATM   34  C   UNL     1      40.405 -12.918  -1.369  1.00  0.00     0.168 C 
HETATM   35  C   UNL     1      38.918 -13.162  -1.237  1.00  0.00     0.029 C 
HETATM   36  C   UNL     1      38.434 -12.049  -0.329  1.00  0.00     0.036 C 
ENDBRANCH  31  32
ENDBRANCH   5  31
TORSDOF 6
ENDMDL
MODEL 7
REMARK VINA RESULT:      -8.4      3.446      6.986
REMARK  6 active torsions:
REMARK  status: ('A' for Active; 'I' for Inactive)
REMARK    1  A    between atoms: C_3  and  C_4 
REMARK    2  A    between atoms: C_4  and  C_5 
REMARK    3  A    between atoms: N_8  and  C_10 
REMARK    4  A    between atoms: C_10  and  C_11 
REMARK    5  A    between atoms: N_24  and  C_25 
REMARK    6  A    between atoms: C_25  and  C_26 
ROOT
HETATM    1  C   UNL     1      41.479 -13.619   3.679  1.00  0.00     0.164 C 
HETATM    2  N   UNL     1      42.406 -12.520   3.457  1.00  0.00    -0.319 N 
HETATM    3  C   UNL     1      41.857 -11.543   2.655  1.00  0.00     0.326 C 
HETATM    4  O   UNL     1      42.515 -10.625   2.198  1.00  0.00    -0.247 OA
HETATM    5  N   UNL     1      40.542 -11.812   2.461  1.00  0.00    -0.265 N 
HETATM    6  C   UNL     1      40.266 -13.082   2.885  1.00  0.00     0.263 C 
HETATM    7  O   UNL     1      39.221 -13.694   2.705  1.00  0.00    -0.270 OA
HETATM    8  H   UNL     1      43.379 -12.731   3.247  1.00  0.00     0.166 HD
ENDROOT
BRANCH   1   9
HETATM    9  C   UNL     1      42.071 -14.890   3.076  1.00  0.00     0.072 A 
HETATM   10  C   UNL     1      43.010 -14.878   2.049  1.00  0.00     0.030 A 
HETATM   11  C   UNL     1      43.490 -16.091   1.562  1.00  0.00     0.003 A 
HETATM   12  C   UNL     1      43.018 -17.284   2.096  1.00  0.00     0.019 A 
HETATM   13  C   UNL     1      42.066 -17.219   3.094  1.00  0.00     0.117 A 
HETATM   14  N   UNL     1      41.568 -16.059   3.582  1.00  0.00    -0.262 NA
ENDBRANCH   1   9
BRANCH   1  15
HETATM   15  C   UNL     1      41.095 -13.772   5.194  1.00  0.00     0.033 C 
HETATM   16  C   UNL     1      40.235 -12.620   5.760  1.00  0.00     0.036 C 
HETATM   17  C   UNL     1      40.994 -11.320   6.026  1.00  0.00     0.235 C 
HETATM   18  N   UNL     1      42.244 -11.563   6.841  1.00  0.00    -0.067 N 
HETATM   19  H   UNL     1      41.936 -11.790   7.798  1.00  0.00     0.280 HD
HETATM   20  C   UNL     1      43.103 -12.707   6.347  1.00  0.00     0.235 C 
HETATM   21  C   UNL     1      42.274 -13.963   6.165  1.00  0.00     0.036 C 
BRANCH  18  22
HETATM   22  C   UNL     1      43.117 -10.315   6.963  1.00  0.00     0.278 C 
BRANCH  22  23
HETATM   23  C   UNL     1      43.613  -9.969   8.334  1.00  0.00     0.028 A 
HETATM   24  C   UNL     1      44.943 -10.129   8.740  1.00  0.00     0.045 A 
HETATM   25 CL   UNL     1      46.120 -10.803   7.672  1.00  0.00    -0.084 Cl
HETATM   26  C   UNL     1      45.343  -9.768  10.030  1.00  0.00     0.024 A 
HETATM   27  C   UNL     1      44.420  -9.236  10.931  1.00  0.00     0.005 A 
HETATM   28  C   UNL     1      43.095  -9.066  10.541  1.00  0.00     0.043 A 
HETATM   29  C   UNL     1      42.709  -9.430   9.257  1.00  0.00     0.126 A 
HETATM   30  F   UNL     1      41.428  -9.265   8.900  1.00  0.00    -0.205 F 
ENDBRANCH  22  23
ENDBRANCH  18  22
ENDBRANCH   1  15
BRANCH   5  31
HETATM   31  C   UNL     1      39.667 -10.977   1.651  1.00  0.00     0.168 C 
BRANCH  31  32
HETATM   32  C   UNL     1      38.912  -9.915   2.456  1.00  0.00     0.140 C 
HETATM   33  O   UNL     1      38.470 -10.444   3.723  1.00  0.00    -0.384 OA
HETATM   34  C   UNL     1      38.267  -9.297   4.560  1.00  0.00     0.168 C 
HETATM   35  C   UNL     1      39.418  -8.372   4.235  1.00  0.00     0.029 C 
HETATM   36  C   UNL     1      39.764  -8.696   2.795  1.00  0.00     0.036 C 
ENDBRANCH  31  32
ENDBRANCH   5  31
TORSDOF 6
ENDMDL
MODEL 8
REMARK VINA RESULT:      -8.3      3.018      6.550
REMARK  6 active torsions:
REMARK  status: ('A' for Active; 'I' for Inactive)
REMARK    1  A    between atoms: C_3  and  C_4 
REMARK    2  A    between atoms: C_4  and  C_5 
REMARK    3  A    between atoms: N_8  and  C_10 
REMARK    4  A    between atoms: C_10  and  C_11 
REMARK    5  A    between atoms: N_24  and  C_25 
REMARK    6  A    between atoms: C_25  and  C_26 
ROOT
HETATM    1  C   UNL     1      40.842 -12.803   2.491  1.00  0.00     0.164 C 
HETATM    2  N   UNL     1      40.422 -12.970   3.874  1.00  0.00    -0.319 N 
HETATM    3  C   UNL     1      40.471 -14.290   4.266  1.00  0.00     0.326 C 
HETATM    4  O   UNL     1      39.997 -14.678   5.320  1.00  0.00    -0.247 OA
HETATM    5  N   UNL     1      41.076 -15.022   3.298  1.00  0.00    -0.265 N 
HETATM    6  C   UNL     1      41.184 -14.274   2.159  1.00  0.00     0.263 C 
HETATM    7  O   UNL     1      41.529 -14.681   1.057  1.00  0.00    -0.270 OA
HETATM    8  H   UNL     1      39.600 -12.470   4.202  1.00  0.00     0.166 HD
ENDROOT
BRANCH   1   9
HETATM    9  C   UNL     1      39.664 -12.268   1.681  1.00  0.00     0.072 A 
HETATM   10  C   UNL     1      38.454 -11.892   2.257  1.00  0.00     0.030 A 
HETATM   11  C   UNL     1      37.435 -11.417   1.434  1.00  0.00     0.003 A 
HETATM   12  C   UNL     1      37.638 -11.340   0.062  1.00  0.00     0.019 A 
HETATM   13  C   UNL     1      38.854 -11.757  -0.442  1.00  0.00     0.117 A 
HETATM   14  N   UNL     1      39.860 -12.236   0.326  1.00  0.00    -0.262 NA
ENDBRANCH   1   9
BRANCH   1  15
HETATM   15  C   UNL     1      42.133 -11.918   2.367  1.00  0.00     0.033 C 
HETATM   16  C   UNL     1      43.409 -12.552   2.965  1.00  0.00     0.036 C 
HETATM   17  C   UNL     1      43.479 -12.540   4.492  1.00  0.00     0.235 C 
HETATM   18  N   UNL     1      43.201 -11.163   5.050  1.00  0.00    -0.067 N 
HETATM   19  H   UNL     1      44.021 -10.581   4.829  1.00  0.00     0.280 HD
HETATM   20  C   UNL     1      41.980 -10.484   4.468  1.00  0.00     0.235 C 
HETATM   21  C   UNL     1      42.027 -10.499   2.953  1.00  0.00     0.036 C 
BRANCH  18  22
HETATM   22  C   UNL     1      43.081 -11.161   6.574  1.00  0.00     0.278 C 
BRANCH  22  23
HETATM   23  C   UNL     1      44.061 -10.315   7.328  1.00  0.00     0.028 A 
HETATM   24  C   UNL     1      43.707  -9.157   8.030  1.00  0.00     0.045 A 
HETATM   25 CL   UNL     1      42.078  -8.587   8.032  1.00  0.00    -0.084 Cl
HETATM   26  C   UNL     1      44.671  -8.424   8.729  1.00  0.00     0.024 A 
HETATM   27  C   UNL     1      46.002  -8.841   8.740  1.00  0.00     0.005 A 
HETATM   28  C   UNL     1      46.370  -9.992   8.049  1.00  0.00     0.043 A 
HETATM   29  C   UNL     1      45.404 -10.712   7.357  1.00  0.00     0.126 A 
HETATM   30  F   UNL     1      45.776 -11.814   6.693  1.00  0.00    -0.205 F 
ENDBRANCH  22  23
ENDBRANCH  18  22
ENDBRANCH   1  15
BRANCH   5  31
HETATM   31  C   UNL     1      41.282 -16.460   3.394  1.00  0.00     0.168 C 
BRANCH  31  32
HETATM   32  C   UNL     1      42.757 -16.867   3.441  1.00  0.00     0.140 C 
HETATM   33  O   UNL     1      43.067 -17.548   4.674  1.00  0.00    -0.384 OA
HETATM   34  C   UNL     1      44.253 -18.307   4.398  1.00  0.00     0.168 C 
HETATM   35  C   UNL     1      44.045 -18.855   3.004  1.00  0.00     0.029 C 
HETATM   36  C   UNL     1      43.153 -17.833   2.328  1.00  0.00     0.036 C 
ENDBRANCH  31  32
ENDBRANCH   5  31
TORSDOF 6
ENDMDL
MODEL 9
REMARK VINA RESULT:      -8.3      2.833      7.450
REMARK  6 active torsions:
REMARK  status: ('A' for Active; 'I' for Inactive)
REMARK    1  A    between atoms: C_3  and  C_4 
REMARK    2  A    between atoms: C_4  and  C_5 
REMARK    3  A    between atoms: N_8  and  C_10 
REMARK    4  A    between atoms: C_10  and  C_11 
REMARK    5  A    between atoms: N_24  and  C_25 
REMARK    6  A    between atoms: C_25  and  C_26 
ROOT
HETATM    1  C   UNL     1      42.454 -15.921   4.944  1.00  0.00     0.164 C 
HETATM    2  N   UNL     1      43.387 -15.013   4.296  1.00  0.00    -0.319 N 
HETATM    3  C   UNL     1      42.871 -14.499   3.126  1.00  0.00     0.326 C 
HETATM    4  O   UNL     1      43.546 -13.861   2.338  1.00  0.00    -0.247 OA
HETATM    5  N   UNL     1      41.566 -14.852   3.021  1.00  0.00    -0.265 N 
HETATM    6  C   UNL     1      41.274 -15.811   3.950  1.00  0.00     0.263 C 
HETATM    7  O   UNL     1      40.239 -16.461   4.018  1.00  0.00    -0.270 OA
HETATM    8  H   UNL     1      44.368 -15.275   4.236  1.00  0.00     0.166 HD
ENDROOT
BRANCH   1   9
HETATM    9  C   UNL     1      43.073 -17.315   4.983  1.00  0.00     0.072 A 
HETATM   10  C   UNL     1      43.130 -18.089   6.138  1.00  0.00     0.030 A 
HETATM   11  C   UNL     1      43.718 -19.351   6.076  1.00  0.00     0.003 A 
HETATM   12  C   UNL     1      44.244 -19.806   4.874  1.00  0.00     0.019 A 
HETATM   13  C   UNL     1      44.177 -18.972   3.775  1.00  0.00     0.117 A 
HETATM   14  N   UNL     1      43.626 -17.736   3.803  1.00  0.00    -0.262 NA
ENDBRANCH   1   9
BRANCH   1  15
HETATM   15  C   UNL     1      42.006 -15.401   6.356  1.00  0.00     0.033 C 
HETATM   16  C   UNL     1      40.818 -14.412   6.332  1.00  0.00     0.036 C 
HETATM   17  C   UNL     1      41.165 -13.001   5.860  1.00  0.00     0.235 C 
HETATM   18  N   UNL     1      42.364 -12.447   6.596  1.00  0.00    -0.067 N 
HETATM   19  H   UNL     1      42.054 -12.243   7.558  1.00  0.00     0.280 HD
HETATM   20  C   UNL     1      43.542 -13.393   6.678  1.00  0.00     0.235 C 
HETATM   21  C   UNL     1      43.110 -14.747   7.207  1.00  0.00     0.036 C 
BRANCH  18  22
HETATM   22  C   UNL     1      42.845 -11.117   6.017  1.00  0.00     0.278 C 
BRANCH  22  23
HETATM   23  C   UNL     1      41.839 -10.308   5.257  1.00  0.00     0.028 A 
HETATM   24  C   UNL     1      40.788  -9.610   5.863  1.00  0.00     0.045 A 
HETATM   25 CL   UNL     1      40.549  -9.678   7.571  1.00  0.00    -0.084 Cl
HETATM   26  C   UNL     1      39.895  -8.857   5.095  1.00  0.00     0.024 A 
HETATM   27  C   UNL     1      40.042  -8.788   3.709  1.00  0.00     0.005 A 
HETATM   28  C   UNL     1      41.084  -9.474   3.091  1.00  0.00     0.043 A 
HETATM   29  C   UNL     1      41.965 -10.220   3.865  1.00  0.00     0.126 A 
HETATM   30  F   UNL     1      42.959 -10.878   3.253  1.00  0.00    -0.205 F 
ENDBRANCH  22  23
ENDBRANCH  18  22
ENDBRANCH   1  15
BRANCH   5  31
HETATM   31  C   UNL     1      40.724 -14.475   1.895  1.00  0.00     0.168 C 
BRANCH  31  32
HETATM   32  C   UNL     1      40.309 -13.001   1.904  1.00  0.00     0.140 C 
HETATM   33  O   UNL     1      39.863 -12.582   0.598  1.00  0.00    -0.384 OA
HETATM   34  C   UNL     1      39.047 -11.425   0.831  1.00  0.00     0.168 C 
HETATM   35  C   UNL     1      38.255 -11.756   2.075  1.00  0.00     0.029 C 
HETATM   36  C   UNL     1      39.148 -12.706   2.848  1.00  0.00     0.036 C 
ENDBRANCH  31  32
ENDBRANCH   5  31
TORSDOF 6
ENDMDL
MODEL 10
REMARK VINA RESULT:      -8.2      3.004      7.472
REMARK  6 active torsions:
REMARK  status: ('A' for Active; 'I' for Inactive)
REMARK    1  A    between atoms: C_3  and  C_4 
REMARK    2  A    between atoms: C_4  and  C_5 
REMARK    3  A    between atoms: N_8  and  C_10 
REMARK    4  A    between atoms: C_10  and  C_11 
REMARK    5  A    between atoms: N_24  and  C_25 
REMARK    6  A    between atoms: C_25  and  C_26 
ROOT
HETATM    1  C   UNL     1      42.439 -12.749   4.258  1.00  0.00     0.164 C 
HETATM    2  N   UNL     1      43.129 -12.950   2.994  1.00  0.00    -0.319 N 
HETATM    3  C   UNL     1      43.101 -14.271   2.601  1.00  0.00     0.326 C 
HETATM    4  O   UNL     1      43.766 -14.691   1.671  1.00  0.00    -0.247 OA
HETATM    5  N   UNL     1      42.274 -14.963   3.422  1.00  0.00    -0.265 N 
HETATM    6  C   UNL     1      41.965 -14.199   4.513  1.00  0.00     0.263 C 
HETATM    7  O   UNL     1      41.379 -14.577   5.518  1.00  0.00    -0.270 OA
HETATM    8  H   UNL     1      44.025 -12.492   2.844  1.00  0.00     0.166 HD
ENDROOT
BRANCH   1   9
HETATM    9  C   UNL     1      43.445 -12.260   5.295  1.00  0.00     0.072 A 
HETATM   10  C   UNL     1      43.243 -12.381   6.667  1.00  0.00     0.030 A 
HETATM   11  C   UNL     1      44.220 -11.901   7.537  1.00  0.00     0.003 A 
HETATM   12  C   UNL     1      45.364 -11.302   7.025  1.00  0.00     0.019 A 
HETATM   13  C   UNL     1      45.483 -11.191   5.653  1.00  0.00     0.117 A 
HETATM   14  N   UNL     1      44.549 -11.633   4.780  1.00  0.00    -0.262 NA
ENDBRANCH   1   9
BRANCH   1  15
HETATM   15  C   UNL     1      41.193 -11.804   4.108  1.00  0.00     0.033 C 
HETATM   16  C   UNL     1      39.926 -12.491   3.550  1.00  0.00     0.036 C 
HETATM   17  C   UNL     1      39.958 -12.780   2.049  1.00  0.00     0.235 C 
HETATM   18  N   UNL     1      40.349 -11.555   1.255  1.00  0.00    -0.067 N 
HETATM   19  H   UNL     1      39.549 -10.907   1.296  1.00  0.00     0.280 HD
HETATM   20  C   UNL     1      41.565 -10.825   1.784  1.00  0.00     0.235 C 
HETATM   21  C   UNL     1      41.417 -10.535   3.265  1.00  0.00     0.036 C 
BRANCH  18  22
HETATM   22  C   UNL     1      40.570 -11.861  -0.226  1.00  0.00     0.278 C 
BRANCH  22  23
HETATM   23  C   UNL     1      39.347 -11.951  -1.086  1.00  0.00     0.028 A 
HETATM   24  C   UNL     1      38.767 -13.162  -1.484  1.00  0.00     0.045 A 
HETATM   25 CL   UNL     1      39.474 -14.671  -1.035  1.00  0.00    -0.084 Cl
HETATM   26  C   UNL     1      37.613 -13.174  -2.273  1.00  0.00     0.024 A 
HETATM   27  C   UNL     1      37.019 -11.977  -2.672  1.00  0.00     0.005 A 
HETATM   28  C   UNL     1      37.581 -10.764  -2.282  1.00  0.00     0.043 A 
HETATM   29  C   UNL     1      38.729 -10.764  -1.498  1.00  0.00     0.126 A 
HETATM   30  F   UNL     1      39.259  -9.589  -1.137  1.00  0.00    -0.205 F 
ENDBRANCH  22  23
ENDBRANCH  18  22
ENDBRANCH   1  15
BRANCH   5  31
HETATM   31  C   UNL     1      42.024 -16.391   3.287  1.00  0.00     0.168 C 
BRANCH  31  32
HETATM   32  C   UNL     1      43.286 -17.250   3.411  1.00  0.00     0.140 C 
HETATM   33  O   UNL     1      43.377 -17.848   4.720  1.00  0.00    -0.384 OA
HETATM   34  C   UNL     1      44.245 -18.980   4.558  1.00  0.00     0.168 C 
HETATM   35  C   UNL     1      43.846 -19.585   3.232  1.00  0.00     0.029 C 
HETATM   36  C   UNL     1      43.326 -18.413   2.424  1.00  0.00     0.036 C 
ENDBRANCH  31  32
ENDBRANCH   5  31
TORSDOF 6
ENDMDL
