MODEL 1
REMARK VINA RESULT:      -8.4      0.000      0.000
REMARK  8 active torsions:
REMARK  status: ('A' for Active; 'I' for Inactive)
REMARK    1  A    between atoms: C_2  and  C_3 
REMARK    2  A    between atoms: C_3  and  O_4 
REMARK    3  A    between atoms: O_4  and  C_5 
REMARK    4  A    between atoms: C_8  and  C_9 
REMARK    5  A    between atoms: C_13  and  C_14 
REMARK       I    between atoms: C_14  and  N_15 
REMARK    6  A    between atoms: N_15  and  N_16 
REMARK    7  A    between atoms: C_17  and  C_18 
REMARK    8  A    between atoms: C_19  and  O_20 
ROOT
HETATM    1  C   UNL     1      43.367 -13.322   5.397  1.00  0.00     0.089 A 
HETATM    2  N   UNL     1      43.468 -12.132   4.788  1.00  0.00    -0.174 NA
HETATM    3  N   UNL     1      43.663 -11.255   5.785  1.00  0.00    -0.272 N 
HETATM    4  H   UNL     1      43.765 -10.269   5.563  1.00  0.00     0.189 HD
HETATM    5  C   UNL     1      43.736 -11.826   7.026  1.00  0.00     0.121 A 
HETATM    6  C   UNL     1      43.519 -13.171   6.804  1.00  0.00     0.071 A 
ENDROOT
BRANCH   5   7
HETATM    7  C   UNL     1      44.009 -11.037   8.202  1.00  0.00     0.289 C 
HETATM    8  N   UNL     1      42.941 -10.271   8.643  1.00  0.00    -0.242 N 
HETATM    9  H   UNL     1      42.054 -10.302   8.157  1.00  0.00     0.192 HD
HETATM   10  O   UNL     1      45.101 -11.078   8.761  1.00  0.00    -0.264 OA
BRANCH   8  11
HETATM   11  N   UNL     1      43.046  -9.544   9.792  1.00  0.00    -0.183 NA
HETATM   12  C   UNL     1      42.315  -9.953  10.781  1.00  0.00     0.153 C 
BRANCH  12  13
HETATM   13  C   UNL     1      42.352  -9.273  12.089  1.00  0.00     0.016 A 
HETATM   14  C   UNL     1      41.536  -9.663  13.157  1.00  0.00     0.077 A 
HETATM   15  C   UNL     1      41.598  -8.982  14.370  1.00  0.00     0.037 A 
HETATM   16  C   UNL     1      42.475  -7.908  14.522  1.00  0.00     0.003 A 
HETATM   17  C   UNL     1      43.291  -7.514  13.461  1.00  0.00     0.001 A 
HETATM   18  C   UNL     1      43.232  -8.194  12.243  1.00  0.00     0.016 A 
BRANCH  14  19
HETATM   19  O   UNL     1      40.649 -10.703  13.088  1.00  0.00    -0.360 OA
HETATM   20  H   UNL     1      40.597 -11.005  12.152  1.00  0.00     0.217 HD
ENDBRANCH  14  19
ENDBRANCH  12  13
ENDBRANCH   8  11
ENDBRANCH   5   7
BRANCH   1  21
HETATM   21  C   UNL     1      43.174 -14.565   4.649  1.00  0.00    -0.005 A 
HETATM   22  C   UNL     1      42.932 -14.533   3.269  1.00  0.00     0.016 A 
HETATM   23  C   UNL     1      42.816 -15.717   2.532  1.00  0.00     0.037 A 
HETATM   24  C   UNL     1      42.940 -16.950   3.169  1.00  0.00     0.068 A 
HETATM   25  C   UNL     1      43.133 -16.991   4.550  1.00  0.00     0.037 A 
HETATM   26  C   UNL     1      43.258 -15.810   5.287  1.00  0.00     0.016 A 
BRANCH  24  27
HETATM   27  O   UNL     1      42.866 -18.169   2.555  1.00  0.00    -0.351 OA
BRANCH  27  28
HETATM   28  C   UNL     1      44.034 -18.986   2.657  1.00  0.00     0.175 C 
BRANCH  28  29
HETATM   29  C   UNL     1      43.577 -20.434   2.807  1.00  0.00     0.022 C 
HETATM   30  C   UNL     1      43.904 -20.992   4.181  1.00  0.00     0.007 C 
ENDBRANCH  28  29
ENDBRANCH  27  28
ENDBRANCH  24  27
ENDBRANCH   1  21
TORSDOF 8
ENDMDL
MODEL 2
REMARK VINA RESULT:      -7.9      2.037     11.308
REMARK  8 active torsions:
REMARK  status: ('A' for Active; 'I' for Inactive)
REMARK    1  A    between atoms: C_2  and  C_3 
REMARK    2  A    between atoms: C_3  and  O_4 
REMARK    3  A    between atoms: O_4  and  C_5 
REMARK    4  A    between atoms: C_8  and  C_9 
REMARK    5  A    between atoms: C_13  and  C_14 
REMARK       I    between atoms: C_14  and  N_15 
REMARK    6  A    between atoms: N_15  and  N_16 
REMARK    7  A    between atoms: C_17  and  C_18 
REMARK    8  A    between atoms: C_19  and  O_20 
ROOT
HETATM    1  C   UNL     1      43.466  -9.238  10.933  1.00  0.00     0.089 A 
HETATM    2  N   UNL     1      43.817  -8.284  10.058  1.00  0.00    -0.174 NA
HETATM    3  N   UNL     1      44.229  -8.956   8.971  1.00  0.00    -0.272 N 
HETATM    4  H   UNL     1      44.556  -8.435   8.163  1.00  0.00     0.189 HD
HETATM    5  C   UNL     1      44.122 -10.315   9.079  1.00  0.00     0.121 A 
HETATM    6  C   UNL     1      43.653 -10.527  10.360  1.00  0.00     0.071 A 
ENDROOT
BRANCH   5   7
HETATM    7  C   UNL     1      44.458 -11.185   7.980  1.00  0.00     0.289 C 
HETATM    8  N   UNL     1      43.575 -12.238   7.787  1.00  0.00    -0.242 N 
HETATM    9  H   UNL     1      42.766 -12.341   8.384  1.00  0.00     0.192 HD
HETATM   10  O   UNL     1      45.439 -10.975   7.272  1.00  0.00    -0.264 OA
BRANCH   8  11
HETATM   11  N   UNL     1      43.737 -13.083   6.729  1.00  0.00    -0.183 NA
HETATM   12  C   UNL     1      43.385 -14.313   6.937  1.00  0.00     0.153 C 
BRANCH  12  13
HETATM   13  C   UNL     1      43.485 -15.326   5.870  1.00  0.00     0.016 A 
HETATM   14  C   UNL     1      42.922 -15.136   4.603  1.00  0.00     0.077 A 
HETATM   15  C   UNL     1      43.033 -16.127   3.632  1.00  0.00     0.037 A 
HETATM   16  C   UNL     1      43.708 -17.315   3.922  1.00  0.00     0.003 A 
HETATM   17  C   UNL     1      44.271 -17.510   5.183  1.00  0.00     0.001 A 
HETATM   18  C   UNL     1      44.162 -16.518   6.160  1.00  0.00     0.016 A 
BRANCH  14  19
HETATM   19  O   UNL     1      42.244 -14.004   4.242  1.00  0.00    -0.360 OA
HETATM   20  H   UNL     1      41.599 -14.239   3.536  1.00  0.00     0.217 HD
ENDBRANCH  14  19
ENDBRANCH  12  13
ENDBRANCH   8  11
ENDBRANCH   5   7
BRANCH   1  21
HETATM   21  C   UNL     1      42.927  -8.920  12.256  1.00  0.00    -0.005 A 
HETATM   22  C   UNL     1      43.453  -7.854  12.999  1.00  0.00     0.016 A 
HETATM   23  C   UNL     1      42.900  -7.497  14.234  1.00  0.00     0.037 A 
HETATM   24  C   UNL     1      41.813  -8.205  14.742  1.00  0.00     0.068 A 
HETATM   25  C   UNL     1      41.315  -9.298  14.032  1.00  0.00     0.037 A 
HETATM   26  C   UNL     1      41.859  -9.650  12.794  1.00  0.00     0.016 A 
BRANCH  24  27
HETATM   27  O   UNL     1      41.177  -7.939  15.923  1.00  0.00    -0.351 OA
BRANCH  27  28
HETATM   28  C   UNL     1      40.825  -6.572  16.143  1.00  0.00     0.175 C 
BRANCH  28  29
HETATM   29  C   UNL     1      39.840  -6.527  17.308  1.00  0.00     0.022 C 
HETATM   30  C   UNL     1      40.042  -7.689  18.265  1.00  0.00     0.007 C 
ENDBRANCH  28  29
ENDBRANCH  27  28
ENDBRANCH  24  27
ENDBRANCH   1  21
TORSDOF 8
ENDMDL
MODEL 3
REMARK VINA RESULT:      -7.6      2.274     11.010
REMARK  8 active torsions:
REMARK  status: ('A' for Active; 'I' for Inactive)
REMARK    1  A    between atoms: C_2  and  C_3 
REMARK    2  A    between atoms: C_3  and  O_4 
REMARK    3  A    between atoms: O_4  and  C_5 
REMARK    4  A    between atoms: C_8  and  C_9 
REMARK    5  A    between atoms: C_13  and  C_14 
REMARK       I    between atoms: C_14  and  N_15 
REMARK    6  A    between atoms: N_15  and  N_16 
REMARK    7  A    between atoms: C_17  and  C_18 
REMARK    8  A    between atoms: C_19  and  O_20 
ROOT
HETATM    1  C   UNL     1      44.141  -9.353   9.965  1.00  0.00     0.089 A 
HETATM    2  N   UNL     1      45.474  -9.491   9.908  1.00  0.00    -0.174 NA
HETATM    3  N   UNL     1      45.682 -10.380   8.924  1.00  0.00    -0.272 N 
HETATM    4  H   UNL     1      46.634 -10.652   8.697  1.00  0.00     0.189 HD
HETATM    5  C   UNL     1      44.540 -10.801   8.300  1.00  0.00     0.121 A 
HETATM    6  C   UNL     1      43.519 -10.167   8.978  1.00  0.00     0.071 A 
ENDROOT
BRANCH   5   7
HETATM    7  C   UNL     1      44.586 -11.703   7.177  1.00  0.00     0.289 C 
HETATM    8  N   UNL     1      43.650 -12.726   7.219  1.00  0.00    -0.242 N 
HETATM    9  H   UNL     1      42.997 -12.789   7.988  1.00  0.00     0.192 HD
HETATM   10  O   UNL     1      45.385 -11.542   6.258  1.00  0.00    -0.264 OA
BRANCH   8  11
HETATM   11  N   UNL     1      43.538 -13.597   6.175  1.00  0.00    -0.183 NA
HETATM   12  C   UNL     1      43.688 -14.849   6.472  1.00  0.00     0.153 C 
BRANCH  12  13
HETATM   13  C   UNL     1      43.568 -15.898   5.442  1.00  0.00     0.016 A 
HETATM   14  C   UNL     1      42.628 -15.826   4.409  1.00  0.00     0.077 A 
HETATM   15  C   UNL     1      42.545 -16.847   3.466  1.00  0.00     0.037 A 
HETATM   16  C   UNL     1      43.401 -17.946   3.552  1.00  0.00     0.003 A 
HETATM   17  C   UNL     1      44.340 -18.024   4.580  1.00  0.00     0.001 A 
HETATM   18  C   UNL     1      44.427 -17.001   5.527  1.00  0.00     0.016 A 
BRANCH  14  19
HETATM   19  O   UNL     1      41.753 -14.785   4.257  1.00  0.00    -0.360 OA
HETATM   20  H   UNL     1      41.252 -14.674   5.097  1.00  0.00     0.217 HD
ENDBRANCH  14  19
ENDBRANCH  12  13
ENDBRANCH   8  11
ENDBRANCH   5   7
BRANCH   1  21
HETATM   21  C   UNL     1      43.493  -8.437  10.905  1.00  0.00    -0.005 A 
HETATM   22  C   UNL     1      43.522  -8.696  12.282  1.00  0.00     0.016 A 
HETATM   23  C   UNL     1      42.966  -7.792  13.195  1.00  0.00     0.037 A 
HETATM   24  C   UNL     1      42.373  -6.616  12.739  1.00  0.00     0.068 A 
HETATM   25  C   UNL     1      42.297  -6.375  11.367  1.00  0.00     0.037 A 
HETATM   26  C   UNL     1      42.859  -7.272  10.454  1.00  0.00     0.016 A 
BRANCH  24  27
HETATM   27  O   UNL     1      41.817  -5.652  13.531  1.00  0.00    -0.351 OA
BRANCH  27  28
HETATM   28  C   UNL     1      40.464  -5.305  13.230  1.00  0.00     0.175 C 
BRANCH  28  29
HETATM   29  C   UNL     1      39.557  -6.261  13.999  1.00  0.00     0.022 C 
HETATM   30  C   UNL     1      38.761  -7.159  13.068  1.00  0.00     0.007 C 
ENDBRANCH  28  29
ENDBRANCH  27  28
ENDBRANCH  24  27
ENDBRANCH   1  21
TORSDOF 8
ENDMDL
MODEL 4
REMARK VINA RESULT:      -7.6      2.267      2.857
REMARK  8 active torsions:
REMARK  status: ('A' for Active; 'I' for Inactive)
REMARK    1  A    between atoms: C_2  and  C_3 
REMARK    2  A    between atoms: C_3  and  O_4 
REMARK    3  A    between atoms: O_4  and  C_5 
REMARK    4  A    between atoms: C_8  and  C_9 
REMARK    5  A    between atoms: C_13  and  C_14 
REMARK       I    between atoms: C_14  and  N_15 
REMARK    6  A    between atoms: N_15  and  N_16 
REMARK    7  A    between atoms: C_17  and  C_18 
REMARK    8  A    between atoms: C_19  and  O_20 
ROOT
HETATM    1  C   UNL     1      44.232 -11.845   6.174  1.00  0.00     0.089 A 
HETATM    2  N   UNL     1      45.554 -11.661   6.298  1.00  0.00    -0.174 NA
HETATM    3  N   UNL     1      45.698 -11.004   7.460  1.00  0.00    -0.272 N 
HETATM    4  H   UNL     1      46.630 -10.746   7.769  1.00  0.00     0.189 HD
HETATM    5  C   UNL     1      44.525 -10.785   8.128  1.00  0.00     0.121 A 
HETATM    6  C   UNL     1      43.550 -11.299   7.297  1.00  0.00     0.071 A 
ENDROOT
BRANCH   5   7
HETATM    7  C   UNL     1      44.504 -10.153   9.423  1.00  0.00     0.289 C 
HETATM    8  N   UNL     1      43.479 -10.577  10.257  1.00  0.00    -0.242 N 
HETATM    9  H   UNL     1      42.829 -11.286   9.946  1.00  0.00     0.192 HD
HETATM   10  O   UNL     1      45.352  -9.324   9.746  1.00  0.00    -0.264 OA
BRANCH   8  11
HETATM   11  N   UNL     1      43.401 -10.115  11.537  1.00  0.00    -0.183 NA
HETATM   12  C   UNL     1      42.545  -9.162  11.736  1.00  0.00     0.153 C 
BRANCH  12  13
HETATM   13  C   UNL     1      42.342  -8.587  13.079  1.00  0.00     0.016 A 
HETATM   14  C   UNL     1      41.305  -9.002  13.921  1.00  0.00     0.077 A 
HETATM   15  C   UNL     1      41.146  -8.421  15.176  1.00  0.00     0.037 A 
HETATM   16  C   UNL     1      42.024  -7.420  15.596  1.00  0.00     0.003 A 
HETATM   17  C   UNL     1      43.060  -7.001  14.761  1.00  0.00     0.001 A 
HETATM   18  C   UNL     1      43.222  -7.582  13.501  1.00  0.00     0.016 A 
BRANCH  14  19
HETATM   19  O   UNL     1      40.403  -9.974  13.582  1.00  0.00    -0.360 OA
HETATM   20  H   UNL     1      39.634  -9.912  14.194  1.00  0.00     0.217 HD
ENDBRANCH  14  19
ENDBRANCH  12  13
ENDBRANCH   8  11
ENDBRANCH   5   7
BRANCH   1  21
HETATM   21  C   UNL     1      43.649 -12.559   5.036  1.00  0.00    -0.005 A 
HETATM   22  C   UNL     1      43.652 -11.981   3.760  1.00  0.00     0.016 A 
HETATM   23  C   UNL     1      43.160 -12.683   2.653  1.00  0.00     0.037 A 
HETATM   24  C   UNL     1      42.658 -13.974   2.812  1.00  0.00     0.068 A 
HETATM   25  C   UNL     1      42.606 -14.536   4.087  1.00  0.00     0.037 A 
HETATM   26  C   UNL     1      43.105 -13.840   5.193  1.00  0.00     0.016 A 
BRANCH  24  27
HETATM   27  O   UNL     1      42.171 -14.763   1.808  1.00  0.00    -0.351 OA
BRANCH  27  28
HETATM   28  C   UNL     1      41.405 -15.895   2.225  1.00  0.00     0.175 C 
BRANCH  28  29
HETATM   29  C   UNL     1      39.990 -15.725   1.679  1.00  0.00     0.022 C 
HETATM   30  C   UNL     1      39.985 -15.061   0.314  1.00  0.00     0.007 C 
ENDBRANCH  28  29
ENDBRANCH  27  28
ENDBRANCH  24  27
ENDBRANCH   1  21
TORSDOF 8
ENDMDL
MODEL 5
REMARK VINA RESULT:      -7.5      8.249     11.433
REMARK  8 active torsions:
REMARK  status: ('A' for Active; 'I' for Inactive)
REMARK    1  A    between atoms: C_2  and  C_3 
REMARK    2  A    between atoms: C_3  and  O_4 
REMARK    3  A    between atoms: O_4  and  C_5 
REMARK    4  A    between atoms: C_8  and  C_9 
REMARK    5  A    between atoms: C_13  and  C_14 
REMARK       I    between atoms: C_14  and  N_15 
REMARK    6  A    between atoms: N_15  and  N_16 
REMARK    7  A    between atoms: C_17  and  C_18 
REMARK    8  A    between atoms: C_19  and  O_20 
ROOT
HETATM    1  C   UNL     1      40.516 -12.157  -0.653  1.00  0.00     0.089 A 
HETATM    2  N   UNL     1      39.298 -12.658  -0.906  1.00  0.00    -0.174 NA
HETATM    3  N   UNL     1      39.278 -13.838  -0.267  1.00  0.00    -0.272 N 
HETATM    4  H   UNL     1      38.443 -14.414  -0.319  1.00  0.00     0.189 HD
HETATM    5  C   UNL     1      40.419 -14.115   0.434  1.00  0.00     0.121 A 
HETATM    6  C   UNL     1      41.254 -13.047   0.176  1.00  0.00     0.071 A 
ENDROOT
BRANCH   5   7
HETATM    7  C   UNL     1      40.541 -15.310   1.232  1.00  0.00     0.289 C 
HETATM    8  N   UNL     1      41.828 -15.583   1.670  1.00  0.00    -0.242 N 
HETATM    9  H   UNL     1      42.589 -14.960   1.437  1.00  0.00     0.192 HD
HETATM   10  O   UNL     1      39.562 -15.999   1.507  1.00  0.00    -0.264 OA
BRANCH   8  11
HETATM   11  N   UNL     1      42.060 -16.639   2.501  1.00  0.00    -0.183 NA
HETATM   12  C   UNL     1      43.071 -17.386   2.189  1.00  0.00     0.153 C 
BRANCH  12  13
HETATM   13  C   UNL     1      43.448 -18.547   3.016  1.00  0.00     0.016 A 
HETATM   14  C   UNL     1      43.811 -18.420   4.362  1.00  0.00     0.077 A 
HETATM   15  C   UNL     1      44.170 -19.545   5.100  1.00  0.00     0.037 A 
HETATM   16  C   UNL     1      44.168 -20.803   4.496  1.00  0.00     0.003 A 
HETATM   17  C   UNL     1      43.808 -20.936   3.155  1.00  0.00     0.001 A 
HETATM   18  C   UNL     1      43.447 -19.810   2.412  1.00  0.00     0.016 A 
BRANCH  14  19
HETATM   19  O   UNL     1      43.840 -17.223   5.025  1.00  0.00    -0.360 OA
HETATM   20  H   UNL     1      43.765 -16.498   4.363  1.00  0.00     0.217 HD
ENDBRANCH  14  19
ENDBRANCH  12  13
ENDBRANCH   8  11
ENDBRANCH   5   7
BRANCH   1  21
HETATM   21  C   UNL     1      40.938 -10.848  -1.155  1.00  0.00    -0.005 A 
HETATM   22  C   UNL     1      40.571 -10.429  -2.440  1.00  0.00     0.016 A 
HETATM   23  C   UNL     1      40.910  -9.152  -2.904  1.00  0.00     0.037 A 
HETATM   24  C   UNL     1      41.622  -8.278  -2.084  1.00  0.00     0.068 A 
HETATM   25  C   UNL     1      42.033  -8.706  -0.822  1.00  0.00     0.037 A 
HETATM   26  C   UNL     1      41.688  -9.977  -0.353  1.00  0.00     0.016 A 
BRANCH  24  27
HETATM   27  O   UNL     1      41.992  -7.005  -2.417  1.00  0.00    -0.351 OA
BRANCH  27  28
HETATM   28  C   UNL     1      42.525  -6.216  -1.351  1.00  0.00     0.175 C 
BRANCH  28  29
HETATM   29  C   UNL     1      43.916  -5.749  -1.770  1.00  0.00     0.022 C 
HETATM   30  C   UNL     1      44.312  -4.457  -1.079  1.00  0.00     0.007 C 
ENDBRANCH  28  29
ENDBRANCH  27  28
ENDBRANCH  24  27
ENDBRANCH   1  21
TORSDOF 8
ENDMDL
MODEL 6
REMARK VINA RESULT:      -7.5      1.834      2.210
REMARK  8 active torsions:
REMARK  status: ('A' for Active; 'I' for Inactive)
REMARK    1  A    between atoms: C_2  and  C_3 
REMARK    2  A    between atoms: C_3  and  O_4 
REMARK    3  A    between atoms: O_4  and  C_5 
REMARK    4  A    between atoms: C_8  and  C_9 
REMARK    5  A    between atoms: C_13  and  C_14 
REMARK       I    between atoms: C_14  and  N_15 
REMARK    6  A    between atoms: N_15  and  N_16 
REMARK    7  A    between atoms: C_17  and  C_18 
REMARK    8  A    between atoms: C_19  and  O_20 
ROOT
HETATM    1  C   UNL     1      42.395 -13.041   4.711  1.00  0.00     0.089 A 
HETATM    2  N   UNL     1      42.047 -12.078   3.845  1.00  0.00    -0.174 NA
HETATM    3  N   UNL     1      41.772 -11.013   4.614  1.00  0.00    -0.272 N 
HETATM    4  H   UNL     1      41.475 -10.148   4.172  1.00  0.00     0.189 HD
HETATM    5  C   UNL     1      41.967 -11.222   5.951  1.00  0.00     0.121 A 
HETATM    6  C   UNL     1      42.347 -12.546   6.044  1.00  0.00     0.071 A 
ENDROOT
BRANCH   5   7
HETATM    7  C   UNL     1      41.784 -10.164   6.913  1.00  0.00     0.289 C 
HETATM    8  N   UNL     1      42.730 -10.136   7.927  1.00  0.00    -0.242 N 
HETATM    9  H   UNL     1      43.480 -10.813   7.944  1.00  0.00     0.192 HD
HETATM   10  O   UNL     1      40.868  -9.353   6.806  1.00  0.00    -0.264 OA
BRANCH   8  11
HETATM   11  N   UNL     1      42.713  -9.133   8.852  1.00  0.00    -0.183 NA
HETATM   12  C   UNL     1      42.489  -9.503  10.073  1.00  0.00     0.153 C 
BRANCH  12  13
HETATM   13  C   UNL     1      42.469  -8.524  11.176  1.00  0.00     0.016 A 
HETATM   14  C   UNL     1      41.697  -7.358  11.124  1.00  0.00     0.077 A 
HETATM   15  C   UNL     1      41.719  -6.456  12.186  1.00  0.00     0.037 A 
HETATM   16  C   UNL     1      42.513  -6.716  13.304  1.00  0.00     0.003 A 
HETATM   17  C   UNL     1      43.285  -7.877  13.360  1.00  0.00     0.001 A 
HETATM   18  C   UNL     1      43.265  -8.783  12.298  1.00  0.00     0.016 A 
BRANCH  14  19
HETATM   19  O   UNL     1      40.896  -7.029  10.065  1.00  0.00    -0.360 OA
HETATM   20  H   UNL     1      40.764  -6.054  10.064  1.00  0.00     0.217 HD
ENDBRANCH  14  19
ENDBRANCH  12  13
ENDBRANCH   8  11
ENDBRANCH   5   7
BRANCH   1  21
HETATM   21  C   UNL     1      42.802 -14.375   4.268  1.00  0.00    -0.005 A 
HETATM   22  C   UNL     1      43.076 -15.381   5.205  1.00  0.00     0.016 A 
HETATM   23  C   UNL     1      43.398 -16.679   4.792  1.00  0.00     0.037 A 
HETATM   24  C   UNL     1      43.452 -16.986   3.434  1.00  0.00     0.068 A 
HETATM   25  C   UNL     1      43.229 -15.978   2.495  1.00  0.00     0.037 A 
HETATM   26  C   UNL     1      42.898 -14.684   2.905  1.00  0.00     0.016 A 
BRANCH  24  27
HETATM   27  O   UNL     1      43.735 -18.217   2.911  1.00  0.00    -0.351 OA
BRANCH  27  28
HETATM   28  C   UNL     1      44.100 -19.223   3.857  1.00  0.00     0.175 C 
BRANCH  28  29
HETATM   29  C   UNL     1      43.756 -20.580   3.250  1.00  0.00     0.022 C 
HETATM   30  C   UNL     1      43.549 -20.492   1.748  1.00  0.00     0.007 C 
ENDBRANCH  28  29
ENDBRANCH  27  28
ENDBRANCH  24  27
ENDBRANCH   1  21
TORSDOF 8
ENDMDL
MODEL 7
REMARK VINA RESULT:      -7.5      7.679     10.416
REMARK  8 active torsions:
REMARK  status: ('A' for Active; 'I' for Inactive)
REMARK    1  A    between atoms: C_2  and  C_3 
REMARK    2  A    between atoms: C_3  and  O_4 
REMARK    3  A    between atoms: O_4  and  C_5 
REMARK    4  A    between atoms: C_8  and  C_9 
REMARK    5  A    between atoms: C_13  and  C_14 
REMARK       I    between atoms: C_14  and  N_15 
REMARK    6  A    between atoms: N_15  and  N_16 
REMARK    7  A    between atoms: C_17  and  C_18 
REMARK    8  A    between atoms: C_19  and  O_20 
ROOT
HETATM    1  C   UNL     1      41.096 -15.410   1.622  1.00  0.00     0.089 A 
HETATM    2  N   UNL     1      39.893 -15.802   1.178  1.00  0.00    -0.174 NA
HETATM    3  N   UNL     1      39.504 -14.824   0.345  1.00  0.00    -0.272 N 
HETATM    4  H   UNL     1      38.603 -14.899  -0.117  1.00  0.00     0.189 HD
HETATM    5  C   UNL     1      40.422 -13.823   0.189  1.00  0.00     0.121 A 
HETATM    6  C   UNL     1      41.459 -14.167   1.033  1.00  0.00     0.071 A 
ENDROOT
BRANCH   5   7
HETATM    7  C   UNL     1      40.195 -12.728  -0.722  1.00  0.00     0.289 C 
HETATM    8  N   UNL     1      41.349 -12.121  -1.195  1.00  0.00    -0.242 N 
HETATM    9  H   UNL     1      42.257 -12.460  -0.909  1.00  0.00     0.192 HD
HETATM   10  O   UNL     1      39.059 -12.396  -1.053  1.00  0.00    -0.264 OA
BRANCH   8  11
HETATM   11  N   UNL     1      41.268 -11.128  -2.126  1.00  0.00    -0.183 NA
HETATM   12  C   UNL     1      41.656  -9.957  -1.729  1.00  0.00     0.153 C 
BRANCH  12  13
HETATM   13  C   UNL     1      41.644  -8.799  -2.642  1.00  0.00     0.016 A 
HETATM   14  C   UNL     1      40.706  -8.669  -3.672  1.00  0.00     0.077 A 
HETATM   15  C   UNL     1      40.742  -7.562  -4.516  1.00  0.00     0.037 A 
HETATM   16  C   UNL     1      41.716  -6.579  -4.335  1.00  0.00     0.003 A 
HETATM   17  C   UNL     1      42.654  -6.703  -3.310  1.00  0.00     0.001 A 
HETATM   18  C   UNL     1      42.621  -7.811  -2.461  1.00  0.00     0.016 A 
BRANCH  14  19
HETATM   19  O   UNL     1      39.723  -9.589  -3.916  1.00  0.00    -0.360 OA
HETATM   20  H   UNL     1      40.042 -10.472  -3.621  1.00  0.00     0.217 HD
ENDBRANCH  14  19
ENDBRANCH  12  13
ENDBRANCH   8  11
ENDBRANCH   5   7
BRANCH   1  21
HETATM   21  C   UNL     1      41.887 -16.223   2.547  1.00  0.00    -0.005 A 
HETATM   22  C   UNL     1      42.889 -17.076   2.063  1.00  0.00     0.016 A 
HETATM   23  C   UNL     1      43.697 -17.806   2.942  1.00  0.00     0.037 A 
HETATM   24  C   UNL     1      43.512 -17.692   4.318  1.00  0.00     0.068 A 
HETATM   25  C   UNL     1      42.485 -16.883   4.806  1.00  0.00     0.037 A 
HETATM   26  C   UNL     1      41.682 -16.146   3.931  1.00  0.00     0.016 A 
BRANCH  24  27
HETATM   27  O   UNL     1      44.249 -18.336   5.272  1.00  0.00    -0.351 OA
BRANCH  27  28
HETATM   28  C   UNL     1      43.620 -19.464   5.885  1.00  0.00     0.175 C 
BRANCH  28  29
HETATM   29  C   UNL     1      44.351 -20.717   5.412  1.00  0.00     0.022 C 
HETATM   30  C   UNL     1      43.896 -21.150   4.029  1.00  0.00     0.007 C 
ENDBRANCH  28  29
ENDBRANCH  27  28
ENDBRANCH  24  27
ENDBRANCH   1  21
TORSDOF 8
ENDMDL
MODEL 8
REMARK VINA RESULT:      -7.4      2.223     10.846
REMARK  8 active torsions:
REMARK  status: ('A' for Active; 'I' for Inactive)
REMARK    1  A    between atoms: C_2  and  C_3 
REMARK    2  A    between atoms: C_3  and  O_4 
REMARK    3  A    between atoms: O_4  and  C_5 
REMARK    4  A    between atoms: C_8  and  C_9 
REMARK    5  A    between atoms: C_13  and  C_14 
REMARK       I    between atoms: C_14  and  N_15 
REMARK    6  A    between atoms: N_15  and  N_16 
REMARK    7  A    between atoms: C_17  and  C_18 
REMARK    8  A    between atoms: C_19  and  O_20 
ROOT
HETATM    1  C   UNL     1      44.199  -8.894   9.566  1.00  0.00     0.089 A 
HETATM    2  N   UNL     1      45.028  -8.282   8.708  1.00  0.00    -0.174 NA
HETATM    3  N   UNL     1      45.378  -9.238   7.834  1.00  0.00    -0.272 N 
HETATM    4  H   UNL     1      46.018  -9.007   7.079  1.00  0.00     0.189 HD
HETATM    5  C   UNL     1      44.778 -10.447   8.056  1.00  0.00     0.121 A 
HETATM    6  C   UNL     1      44.025 -10.257   9.197  1.00  0.00     0.071 A 
ENDROOT
BRANCH   5   7
HETATM    7  C   UNL     1      44.990 -11.566   7.172  1.00  0.00     0.289 C 
HETATM    8  N   UNL     1      44.033 -12.565   7.265  1.00  0.00    -0.242 N 
HETATM    9  H   UNL     1      43.256 -12.469   7.905  1.00  0.00     0.192 HD
HETATM   10  O   UNL     1      45.939 -11.595   6.391  1.00  0.00    -0.264 OA
BRANCH   8  11
HETATM   11  N   UNL     1      44.076 -13.637   6.423  1.00  0.00    -0.183 NA
HETATM   12  C   UNL     1      42.952 -13.954   5.862  1.00  0.00     0.153 C 
BRANCH  12  13
HETATM   13  C   UNL     1      42.863 -15.078   4.911  1.00  0.00     0.016 A 
HETATM   14  C   UNL     1      43.611 -16.250   5.068  1.00  0.00     0.077 A 
HETATM   15  C   UNL     1      43.501 -17.280   4.137  1.00  0.00     0.037 A 
HETATM   16  C   UNL     1      42.644 -17.142   3.044  1.00  0.00     0.003 A 
HETATM   17  C   UNL     1      41.897 -15.976   2.882  1.00  0.00     0.001 A 
HETATM   18  C   UNL     1      42.004 -14.941   3.814  1.00  0.00     0.016 A 
BRANCH  14  19
HETATM   19  O   UNL     1      44.474 -16.460   6.109  1.00  0.00    -0.360 OA
HETATM   20  H   UNL     1      45.372 -16.166   5.834  1.00  0.00     0.217 HD
ENDBRANCH  14  19
ENDBRANCH  12  13
ENDBRANCH   8  11
ENDBRANCH   5   7
BRANCH   1  21
HETATM   21  C   UNL     1      43.562  -8.182  10.675  1.00  0.00    -0.005 A 
HETATM   22  C   UNL     1      42.814  -7.021  10.436  1.00  0.00     0.016 A 
HETATM   23  C   UNL     1      42.144  -6.371  11.479  1.00  0.00     0.037 A 
HETATM   24  C   UNL     1      42.216  -6.876  12.776  1.00  0.00     0.068 A 
HETATM   25  C   UNL     1      42.998  -8.003  13.030  1.00  0.00     0.037 A 
HETATM   26  C   UNL     1      43.661  -8.659  11.988  1.00  0.00     0.016 A 
BRANCH  24  27
HETATM   27  O   UNL     1      41.590  -6.344  13.869  1.00  0.00    -0.351 OA
BRANCH  27  28
HETATM   28  C   UNL     1      40.426  -7.039  14.317  1.00  0.00     0.175 C 
BRANCH  28  29
HETATM   29  C   UNL     1      39.206  -6.307  13.765  1.00  0.00     0.022 C 
HETATM   30  C   UNL     1      38.239  -7.256  13.078  1.00  0.00     0.007 C 
ENDBRANCH  28  29
ENDBRANCH  27  28
ENDBRANCH  24  27
ENDBRANCH   1  21
TORSDOF 8
ENDMDL
MODEL 9
REMARK VINA RESULT:      -7.3      2.843     11.947
REMARK  8 active torsions:
REMARK  status: ('A' for Active; 'I' for Inactive)
REMARK    1  A    between atoms: C_2  and  C_3 
REMARK    2  A    between atoms: C_3  and  O_4 
REMARK    3  A    between atoms: O_4  and  C_5 
REMARK    4  A    between atoms: C_8  and  C_9 
REMARK    5  A    between atoms: C_13  and  C_14 
REMARK       I    between atoms: C_14  and  N_15 
REMARK    6  A    between atoms: N_15  and  N_16 
REMARK    7  A    between atoms: C_17  and  C_18 
REMARK    8  A    between atoms: C_19  and  O_20 
ROOT
HETATM    1  C   UNL     1      42.965  -9.411  12.188  1.00  0.00     0.089 A 
HETATM    2  N   UNL     1      43.311 -10.704  12.274  1.00  0.00    -0.174 NA
HETATM    3  N   UNL     1      43.533 -11.081  11.006  1.00  0.00    -0.272 N 
HETATM    4  H   UNL     1      43.808 -12.041  10.816  1.00  0.00     0.189 HD
HETATM    5  C   UNL     1      43.389 -10.076  10.089  1.00  0.00     0.121 A 
HETATM    6  C   UNL     1      42.991  -8.983  10.832  1.00  0.00     0.071 A 
ENDROOT
BRANCH   5   7
HETATM    7  C   UNL     1      43.656 -10.291   8.689  1.00  0.00     0.289 C 
HETATM    8  N   UNL     1      43.815 -11.621   8.329  1.00  0.00    -0.242 N 
HETATM    9  H   UNL     1      43.729 -12.352   9.022  1.00  0.00     0.192 HD
HETATM   10  O   UNL     1      43.709  -9.355   7.896  1.00  0.00    -0.264 OA
BRANCH   8  11
HETATM   11  N   UNL     1      43.990 -11.961   7.020  1.00  0.00    -0.183 NA
HETATM   12  C   UNL     1      43.095 -12.756   6.524  1.00  0.00     0.153 C 
BRANCH  12  13
HETATM   13  C   UNL     1      43.151 -13.184   5.113  1.00  0.00     0.016 A 
HETATM   14  C   UNL     1      43.333 -12.276   4.064  1.00  0.00     0.077 A 
HETATM   15  C   UNL     1      43.368 -12.726   2.747  1.00  0.00     0.037 A 
HETATM   16  C   UNL     1      43.220 -14.086   2.472  1.00  0.00     0.003 A 
HETATM   17  C   UNL     1      43.038 -14.996   3.513  1.00  0.00     0.001 A 
HETATM   18  C   UNL     1      43.003 -14.548   4.836  1.00  0.00     0.016 A 
BRANCH  14  19
HETATM   19  O   UNL     1      43.483 -10.928   4.251  1.00  0.00    -0.360 OA
HETATM   20  H   UNL     1      42.653 -10.574   4.645  1.00  0.00     0.217 HD
ENDBRANCH  14  19
ENDBRANCH  12  13
ENDBRANCH   8  11
ENDBRANCH   5   7
BRANCH   1  21
HETATM   21  C   UNL     1      42.663  -8.606  13.373  1.00  0.00    -0.005 A 
HETATM   22  C   UNL     1      41.700  -9.036  14.296  1.00  0.00     0.016 A 
HETATM   23  C   UNL     1      41.453  -8.309  15.467  1.00  0.00     0.037 A 
HETATM   24  C   UNL     1      42.167  -7.141  15.726  1.00  0.00     0.068 A 
HETATM   25  C   UNL     1      43.091  -6.681  14.789  1.00  0.00     0.037 A 
HETATM   26  C   UNL     1      43.347  -7.409  13.623  1.00  0.00     0.016 A 
BRANCH  24  27
HETATM   27  O   UNL     1      42.029  -6.360  16.840  1.00  0.00    -0.351 OA
BRANCH  27  28
HETATM   28  C   UNL     1      41.496  -7.014  17.993  1.00  0.00     0.175 C 
BRANCH  28  29
HETATM   29  C   UNL     1      41.880  -6.186  19.216  1.00  0.00     0.022 C 
HETATM   30  C   UNL     1      41.060  -6.565  20.437  1.00  0.00     0.007 C 
ENDBRANCH  28  29
ENDBRANCH  27  28
ENDBRANCH  24  27
ENDBRANCH   1  21
TORSDOF 8
ENDMDL
MODEL 10
REMARK VINA RESULT:      -7.3      2.982      3.316
REMARK  8 active torsions:
REMARK  status: ('A' for Active; 'I' for Inactive)
REMARK    1  A    between atoms: C_2  and  C_3 
REMARK    2  A    between atoms: C_3  and  O_4 
REMARK    3  A    between atoms: O_4  and  C_5 
REMARK    4  A    between atoms: C_8  and  C_9 
REMARK    5  A    between atoms: C_13  and  C_14 
REMARK       I    between atoms: C_14  and  N_15 
REMARK    6  A    between atoms: N_15  and  N_16 
REMARK    7  A    between atoms: C_17  and  C_18 
REMARK    8  A    between atoms: C_19  and  O_20 
ROOT
HETATM    1  C   UNL     1      40.832 -13.892   4.444  1.00  0.00     0.089 A 
HETATM    2  N   UNL     1      40.013 -13.234   3.611  1.00  0.00    -0.174 NA
HETATM    3  N   UNL     1      39.428 -12.300   4.377  1.00  0.00    -0.272 N 
HETATM    4  H   UNL     1      38.749 -11.672   3.958  1.00  0.00     0.189 HD
HETATM    5  C   UNL     1      39.861 -12.289   5.674  1.00  0.00     0.121 A 
HETATM    6  C   UNL     1      40.757 -13.336   5.752  1.00  0.00     0.071 A 
ENDROOT
BRANCH   5   7
HETATM    7  C   UNL     1      39.386 -11.307   6.617  1.00  0.00     0.289 C 
HETATM    8  N   UNL     1      40.365 -10.454   7.105  1.00  0.00    -0.242 N 
HETATM    9  H   UNL     1      41.321 -10.540   6.788  1.00  0.00     0.192 HD
HETATM   10  O   UNL     1      38.200 -11.238   6.928  1.00  0.00    -0.264 OA
BRANCH   8  11
HETATM   11  N   UNL     1      40.028  -9.430   7.940  1.00  0.00    -0.183 NA
HETATM   12  C   UNL     1      40.725  -9.344   9.029  1.00  0.00     0.153 C 
BRANCH  12  13
HETATM   13  C   UNL     1      40.482  -8.268  10.008  1.00  0.00     0.016 A 
HETATM   14  C   UNL     1      39.194  -7.922  10.433  1.00  0.00     0.077 A 
HETATM   15  C   UNL     1      39.013  -6.891  11.351  1.00  0.00     0.037 A 
HETATM   16  C   UNL     1      40.119  -6.201  11.850  1.00  0.00     0.003 A 
HETATM   17  C   UNL     1      41.405  -6.541  11.431  1.00  0.00     0.001 A 
HETATM   18  C   UNL     1      41.590  -7.575  10.510  1.00  0.00     0.016 A 
BRANCH  14  19
HETATM   19  O   UNL     1      38.060  -8.547   9.990  1.00  0.00    -0.360 OA
HETATM   20  H   UNL     1      37.954  -9.390  10.488  1.00  0.00     0.217 HD
ENDBRANCH  14  19
ENDBRANCH  12  13
ENDBRANCH   8  11
ENDBRANCH   5   7
BRANCH   1  21
HETATM   21  C   UNL     1      41.688 -14.988   3.989  1.00  0.00    -0.005 A 
HETATM   22  C   UNL     1      42.703 -15.486   4.817  1.00  0.00     0.016 A 
HETATM   23  C   UNL     1      43.483 -16.580   4.420  1.00  0.00     0.037 A 
HETATM   24  C   UNL     1      43.255 -17.187   3.186  1.00  0.00     0.068 A 
HETATM   25  C   UNL     1      42.279 -16.666   2.336  1.00  0.00     0.037 A 
HETATM   26  C   UNL     1      41.494 -15.581   2.734  1.00  0.00     0.016 A 
BRANCH  24  27
HETATM   27  O   UNL     1      43.934 -18.269   2.699  1.00  0.00    -0.351 OA
BRANCH  27  28
HETATM   28  C   UNL     1      43.125 -19.329   2.185  1.00  0.00     0.175 C 
BRANCH  28  29
HETATM   29  C   UNL     1      43.812 -20.647   2.530  1.00  0.00     0.022 C 
HETATM   30  C   UNL     1      43.883 -20.873   4.030  1.00  0.00     0.007 C 
ENDBRANCH  28  29
ENDBRANCH  27  28
ENDBRANCH  24  27
ENDBRANCH   1  21
TORSDOF 8
ENDMDL
