MODEL 1
REMARK VINA RESULT:      -9.3      0.000      0.000
REMARK  6 active torsions:
REMARK  status: ('A' for Active; 'I' for Inactive)
REMARK    1  A    between atoms: O_2  and  C_3 
REMARK    2  A    between atoms: N_7  and  C_9 
REMARK    3  A    between atoms: C_9  and  C_10 
REMARK    4  A    between atoms: C_11  and  O_12 
REMARK    5  A    between atoms: C_22  and  N_23 
REMARK       I    between atoms: N_23  and  C_24 
REMARK    6  A    between atoms: C_24  and  C_25 
ROOT
HETATM    1  C   UNL     1      41.301 -14.878   5.023  1.00  0.00     0.161 C 
HETATM    2  C   UNL     1      41.757 -15.250   3.564  1.00  0.00     0.019 C 
HETATM    3  C   UNL     1      42.448 -14.061   2.850  1.00  0.00     0.045 C 
HETATM    4  C   UNL     1      41.471 -12.958   2.460  1.00  0.00     0.236 C 
HETATM    5  N   UNL     1      40.342 -13.520   1.636  1.00  0.00    -0.067 N 
HETATM    6  H   UNL     1      39.659 -12.749   1.537  1.00  0.00     0.280 HD
HETATM    7  C   UNL     1      39.621 -14.639   2.342  1.00  0.00     0.236 C 
HETATM    8  C   UNL     1      40.602 -15.757   2.676  1.00  0.00     0.045 C 
HETATM    9  C   UNL     1      42.804 -16.302   3.875  1.00  0.00    -0.038 A 
HETATM   10  C   UNL     1      43.228 -16.224   5.214  1.00  0.00    -0.026 A 
HETATM   11  C   UNL     1      42.525 -15.116   5.968  1.00  0.00     0.148 C 
HETATM   12  C   UNL     1      43.359 -17.242   3.015  1.00  0.00     0.009 A 
HETATM   13  C   UNL     1      44.335 -18.109   3.509  1.00  0.00     0.001 A 
HETATM   14  C   UNL     1      44.750 -18.034   4.846  1.00  0.00     0.001 A 
HETATM   15  C   UNL     1      44.197 -17.086   5.708  1.00  0.00     0.010 A 
ENDROOT
BRANCH   1  16
HETATM   16  O   UNL     1      40.083 -15.556   5.410  1.00  0.00    -0.387 OA
HETATM   17  C   UNL     1      39.943 -15.990   6.758  1.00  0.00     0.202 C 
ENDBRANCH   1  16
BRANCH  11  18
HETATM   18  N   UNL     1      43.487 -14.045   6.211  1.00  0.00    -0.346 N 
HETATM   19  C   UNL     1      43.231 -12.698   6.293  1.00  0.00     0.252 C 
HETATM   20  O   UNL     1      42.205 -12.184   5.860  1.00  0.00    -0.268 OA
HETATM   21  H   UNL     1      44.383 -14.360   6.552  1.00  0.00     0.163 HD
BRANCH  19  22
HETATM   22  C   UNL     1      44.305 -11.888   6.884  1.00  0.00     0.039 A 
HETATM   23  C   UNL     1      44.142 -11.270   8.114  1.00  0.00     0.066 A 
HETATM   24  S   UNL     1      45.515 -10.386   8.618  1.00  0.00    -0.113 SA
HETATM   25  C   UNL     1      46.375 -10.825   7.212  1.00  0.00     0.050 A 
HETATM   26  C   UNL     1      45.624 -11.622   6.374  1.00  0.00     0.024 A 
ENDBRANCH  19  22
ENDBRANCH  11  18
BRANCH   5  27
HETATM   27  C   UNL     1      40.684 -13.829   0.195  1.00  0.00     0.276 C 
BRANCH  27  28
HETATM   28  C   UNL     1      39.602 -13.471  -0.787  1.00  0.00     0.002 A 
HETATM   29  C   UNL     1      38.831 -12.312  -0.627  1.00  0.00     0.073 A 
HETATM   30  C   UNL     1      37.809 -11.993  -1.520  1.00  0.00     0.039 A 
HETATM   31  C   UNL     1      37.547 -12.842  -2.596  1.00  0.00     0.026 A 
HETATM   32  C   UNL     1      38.302 -13.999  -2.767  1.00  0.00     0.034 A 
HETATM   33 CL   UNL     1      37.985 -15.045  -4.094  1.00  0.00    -0.084 Cl
HETATM   34  C   UNL     1      39.322 -14.319  -1.869  1.00  0.00     0.035 A 
BRANCH  29  35
HETATM   35  O   UNL     1      39.123 -11.482   0.421  1.00  0.00    -0.360 OA
HETATM   36  H   UNL     1      39.236 -12.035   1.221  1.00  0.00     0.217 HD
ENDBRANCH  29  35
ENDBRANCH  27  28
ENDBRANCH   5  27
TORSDOF 6
ENDMDL
MODEL 2
REMARK VINA RESULT:      -8.5      1.429      1.636
REMARK  6 active torsions:
REMARK  status: ('A' for Active; 'I' for Inactive)
REMARK    1  A    between atoms: O_2  and  C_3 
REMARK    2  A    between atoms: N_7  and  C_9 
REMARK    3  A    between atoms: C_9  and  C_10 
REMARK    4  A    between atoms: C_11  and  O_12 
REMARK    5  A    between atoms: C_22  and  N_23 
REMARK       I    between atoms: N_23  and  C_24 
REMARK    6  A    between atoms: C_24  and  C_25 
ROOT
HETATM    1  C   UNL     1      41.148 -13.014   4.816  1.00  0.00     0.161 C 
HETATM    2  C   UNL     1      41.634 -13.552   3.419  1.00  0.00     0.019 C 
HETATM    3  C   UNL     1      42.630 -12.583   2.737  1.00  0.00     0.045 C 
HETATM    4  C   UNL     1      41.961 -11.315   2.219  1.00  0.00     0.236 C 
HETATM    5  N   UNL     1      40.809 -11.658   1.311  1.00  0.00    -0.067 N 
HETATM    6  H   UNL     1      40.326 -10.763   1.122  1.00  0.00     0.280 HD
HETATM    7  C   UNL     1      39.800 -12.554   1.980  1.00  0.00     0.236 C 
HETATM    8  C   UNL     1      40.475 -13.840   2.442  1.00  0.00     0.045 C 
HETATM    9  C   UNL     1      42.389 -14.790   3.862  1.00  0.00    -0.038 A 
HETATM   10  C   UNL     1      42.704 -14.736   5.232  1.00  0.00    -0.026 A 
HETATM   11  C   UNL     1      42.204 -13.464   5.880  1.00  0.00     0.148 C 
HETATM   12  C   UNL     1      42.793 -15.872   3.090  1.00  0.00     0.009 A 
HETATM   13  C   UNL     1      43.505 -16.905   3.702  1.00  0.00     0.001 A 
HETATM   14  C   UNL     1      43.810 -16.852   5.069  1.00  0.00     0.001 A 
HETATM   15  C   UNL     1      43.411 -15.763   5.844  1.00  0.00     0.010 A 
ENDROOT
BRANCH   1  16
HETATM   16  O   UNL     1      39.781 -13.387   5.106  1.00  0.00    -0.387 OA
HETATM   17  C   UNL     1      38.918 -12.415   5.683  1.00  0.00     0.202 C 
ENDBRANCH   1  16
BRANCH  11  18
HETATM   18  N   UNL     1      43.355 -12.618   6.179  1.00  0.00    -0.346 N 
HETATM   19  C   UNL     1      43.362 -11.259   6.378  1.00  0.00     0.252 C 
HETATM   20  O   UNL     1      42.445 -10.526   6.023  1.00  0.00    -0.268 OA
HETATM   21  H   UNL     1      44.180 -13.124   6.464  1.00  0.00     0.163 HD
BRANCH  19  22
HETATM   22  C   UNL     1      44.579 -10.720   6.999  1.00  0.00     0.039 A 
HETATM   23  C   UNL     1      44.515  -9.696   7.931  1.00  0.00     0.066 A 
HETATM   24  S   UNL     1      46.045  -9.226   8.531  1.00  0.00    -0.113 SA
HETATM   25  C   UNL     1      46.835 -10.397   7.574  1.00  0.00     0.050 A 
HETATM   26  C   UNL     1      45.947 -11.123   6.808  1.00  0.00     0.024 A 
ENDBRANCH  19  22
ENDBRANCH  11  18
BRANCH   5  27
HETATM   27  C   UNL     1      41.197 -12.110  -0.081  1.00  0.00     0.276 C 
BRANCH  27  28
HETATM   28  C   UNL     1      40.029 -12.466  -0.960  1.00  0.00     0.002 A 
HETATM   29  C   UNL     1      39.089 -11.502  -1.348  1.00  0.00     0.073 A 
HETATM   30  C   UNL     1      37.992 -11.836  -2.139  1.00  0.00     0.039 A 
HETATM   31  C   UNL     1      37.824 -13.157  -2.557  1.00  0.00     0.026 A 
HETATM   32  C   UNL     1      38.747 -14.128  -2.179  1.00  0.00     0.034 A 
HETATM   33 CL   UNL     1      38.544 -15.755  -2.696  1.00  0.00    -0.084 Cl
HETATM   34  C   UNL     1      39.843 -13.792  -1.382  1.00  0.00     0.035 A 
BRANCH  29  35
HETATM   35  O   UNL     1      39.289 -10.209  -0.946  1.00  0.00    -0.360 OA
HETATM   36  H   UNL     1      38.473  -9.902  -0.502  1.00  0.00     0.217 HD
ENDBRANCH  29  35
ENDBRANCH  27  28
ENDBRANCH   5  27
TORSDOF 6
ENDMDL
MODEL 3
REMARK VINA RESULT:      -8.3      3.770      6.405
REMARK  6 active torsions:
REMARK  status: ('A' for Active; 'I' for Inactive)
REMARK    1  A    between atoms: O_2  and  C_3 
REMARK    2  A    between atoms: N_7  and  C_9 
REMARK    3  A    between atoms: C_9  and  C_10 
REMARK    4  A    between atoms: C_11  and  O_12 
REMARK    5  A    between atoms: C_22  and  N_23 
REMARK       I    between atoms: N_23  and  C_24 
REMARK    6  A    between atoms: C_24  and  C_25 
ROOT
HETATM    1  C   UNL     1      43.063 -10.832   6.722  1.00  0.00     0.161 C 
HETATM    2  C   UNL     1      41.818 -10.524   5.810  1.00  0.00     0.019 C 
HETATM    3  C   UNL     1      40.521 -11.168   6.361  1.00  0.00     0.045 C 
HETATM    4  C   UNL     1      40.497 -12.683   6.195  1.00  0.00     0.236 C 
HETATM    5  N   UNL     1      40.738 -13.061   4.756  1.00  0.00    -0.067 N 
HETATM    6  H   UNL     1      40.849 -14.089   4.753  1.00  0.00     0.280 HD
HETATM    7  C   UNL     1      42.026 -12.491   4.223  1.00  0.00     0.236 C 
HETATM    8  C   UNL     1      42.010 -10.972   4.346  1.00  0.00     0.045 C 
HETATM    9  C   UNL     1      41.725  -9.021   5.989  1.00  0.00    -0.038 A 
HETATM   10  C   UNL     1      42.436  -8.595   7.126  1.00  0.00    -0.026 A 
HETATM   11  C   UNL     1      43.091  -9.750   7.852  1.00  0.00     0.148 C 
HETATM   12  C   UNL     1      41.032  -8.104   5.209  1.00  0.00     0.009 A 
HETATM   13  C   UNL     1      41.064  -6.756   5.570  1.00  0.00     0.001 A 
HETATM   14  C   UNL     1      41.778  -6.334   6.699  1.00  0.00     0.001 A 
HETATM   15  C   UNL     1      42.470  -7.255   7.486  1.00  0.00     0.010 A 
ENDROOT
BRANCH   1  16
HETATM   16  O   UNL     1      44.286 -10.961   5.960  1.00  0.00    -0.387 OA
HETATM   17  C   UNL     1      45.482 -11.315   6.646  1.00  0.00     0.202 C 
ENDBRANCH   1  16
BRANCH  11  18
HETATM   18  N   UNL     1      42.372  -9.973   9.103  1.00  0.00    -0.346 N 
HETATM   19  C   UNL     1      42.843  -9.782  10.379  1.00  0.00     0.252 C 
HETATM   20  O   UNL     1      44.037  -9.697  10.647  1.00  0.00    -0.268 OA
HETATM   21  H   UNL     1      41.375 -10.079   8.996  1.00  0.00     0.163 HD
BRANCH  19  22
HETATM   22  C   UNL     1      41.817  -9.747  11.429  1.00  0.00     0.039 A 
HETATM   23  C   UNL     1      40.468  -9.700  11.112  1.00  0.00     0.066 A 
HETATM   24  S   UNL     1      39.447  -9.673  12.482  1.00  0.00    -0.113 SA
HETATM   25  C   UNL     1      40.784  -9.745  13.540  1.00  0.00     0.050 A 
HETATM   26  C   UNL     1      41.982  -9.780  12.858  1.00  0.00     0.024 A 
ENDBRANCH  19  22
ENDBRANCH  11  18
BRANCH   5  27
HETATM   27  C   UNL     1      39.556 -12.866   3.831  1.00  0.00     0.276 C 
BRANCH  27  28
HETATM   28  C   UNL     1      39.686 -13.573   2.509  1.00  0.00     0.002 A 
HETATM   29  C   UNL     1      39.872 -14.960   2.441  1.00  0.00     0.073 A 
HETATM   30  C   UNL     1      40.021 -15.611   1.218  1.00  0.00     0.039 A 
HETATM   31  C   UNL     1      39.982 -14.871   0.035  1.00  0.00     0.026 A 
HETATM   32  C   UNL     1      39.800 -13.491   0.086  1.00  0.00     0.034 A 
HETATM   33 CL   UNL     1      39.748 -12.578  -1.369  1.00  0.00    -0.084 Cl
HETATM   34  C   UNL     1      39.656 -12.840   1.312  1.00  0.00     0.035 A 
BRANCH  29  35
HETATM   35  O   UNL     1      39.882 -15.667   3.612  1.00  0.00    -0.360 OA
HETATM   36  H   UNL     1      39.018 -15.533   4.052  1.00  0.00     0.217 HD
ENDBRANCH  29  35
ENDBRANCH  27  28
ENDBRANCH   5  27
TORSDOF 6
ENDMDL
MODEL 4
REMARK VINA RESULT:      -8.0      4.254      7.041
REMARK  6 active torsions:
REMARK  status: ('A' for Active; 'I' for Inactive)
REMARK    1  A    between atoms: O_2  and  C_3 
REMARK    2  A    between atoms: N_7  and  C_9 
REMARK    3  A    between atoms: C_9  and  C_10 
REMARK    4  A    between atoms: C_11  and  O_12 
REMARK    5  A    between atoms: C_22  and  N_23 
REMARK       I    between atoms: N_23  and  C_24 
REMARK    6  A    between atoms: C_24  and  C_25 
ROOT
HETATM    1  C   UNL     1      43.404 -11.670   5.580  1.00  0.00     0.161 C 
HETATM    2  C   UNL     1      42.256 -12.721   5.345  1.00  0.00     0.019 C 
HETATM    3  C   UNL     1      42.152 -13.738   6.508  1.00  0.00     0.045 C 
HETATM    4  C   UNL     1      43.306 -14.733   6.528  1.00  0.00     0.236 C 
HETATM    5  N   UNL     1      43.433 -15.424   5.196  1.00  0.00    -0.067 N 
HETATM    6  H   UNL     1      44.313 -15.965   5.244  1.00  0.00     0.280 HD
HETATM    7  C   UNL     1      43.595 -14.449   4.059  1.00  0.00     0.236 C 
HETATM    8  C   UNL     1      42.405 -13.497   4.019  1.00  0.00     0.045 C 
HETATM    9  C   UNL     1      41.048 -11.806   5.392  1.00  0.00    -0.038 A 
HETATM   10  C   UNL     1      41.358 -10.578   6.004  1.00  0.00    -0.026 A 
HETATM   11  C   UNL     1      42.804 -10.512   6.444  1.00  0.00     0.148 C 
HETATM   12  C   UNL     1      39.757 -12.064   4.947  1.00  0.00     0.009 A 
HETATM   13  C   UNL     1      38.782 -11.079   5.111  1.00  0.00     0.001 A 
HETATM   14  C   UNL     1      39.096  -9.854   5.715  1.00  0.00     0.001 A 
HETATM   15  C   UNL     1      40.390  -9.596   6.167  1.00  0.00     0.010 A 
ENDROOT
BRANCH   1  16
HETATM   16  O   UNL     1      44.035 -11.257   4.346  1.00  0.00    -0.387 OA
HETATM   17  C   UNL     1      45.442 -11.421   4.212  1.00  0.00     0.202 C 
ENDBRANCH   1  16
BRANCH  11  18
HETATM   18  N   UNL     1      42.844 -10.583   7.902  1.00  0.00    -0.346 N 
HETATM   19  C   UNL     1      43.360  -9.650   8.768  1.00  0.00     0.252 C 
HETATM   20  O   UNL     1      44.139  -8.770   8.418  1.00  0.00    -0.268 OA
HETATM   21  H   UNL     1      42.250 -11.295   8.300  1.00  0.00     0.163 HD
BRANCH  19  22
HETATM   22  C   UNL     1      42.962  -9.808  10.172  1.00  0.00     0.039 A 
HETATM   23  C   UNL     1      41.707  -9.416  10.611  1.00  0.00     0.066 A 
HETATM   24  S   UNL     1      41.450  -9.697  12.277  1.00  0.00    -0.113 SA
HETATM   25  C   UNL     1      43.006 -10.372  12.454  1.00  0.00     0.050 A 
HETATM   26  C   UNL     1      43.708 -10.374  11.267  1.00  0.00     0.024 A 
ENDBRANCH  19  22
ENDBRANCH  11  18
BRANCH   5  27
HETATM   27  C   UNL     1      42.408 -16.506   4.929  1.00  0.00     0.276 C 
BRANCH  27  28
HETATM   28  C   UNL     1      42.993 -17.882   4.766  1.00  0.00     0.002 A 
HETATM   29  C   UNL     1      43.407 -18.632   5.875  1.00  0.00     0.073 A 
HETATM   30  C   UNL     1      43.975 -19.896   5.723  1.00  0.00     0.039 A 
HETATM   31  C   UNL     1      44.135 -20.428   4.443  1.00  0.00     0.026 A 
HETATM   32  C   UNL     1      43.732 -19.695   3.331  1.00  0.00     0.034 A 
HETATM   33 CL   UNL     1      43.924 -20.349   1.753  1.00  0.00    -0.084 Cl
HETATM   34  C   UNL     1      43.167 -18.427   3.485  1.00  0.00     0.035 A 
BRANCH  29  35
HETATM   35  O   UNL     1      43.217 -18.100   7.121  1.00  0.00    -0.360 OA
HETATM   36  H   UNL     1      42.331 -18.376   7.435  1.00  0.00     0.217 HD
ENDBRANCH  29  35
ENDBRANCH  27  28
ENDBRANCH   5  27
TORSDOF 6
ENDMDL
MODEL 5
REMARK VINA RESULT:      -8.0      4.021      8.600
REMARK  6 active torsions:
REMARK  status: ('A' for Active; 'I' for Inactive)
REMARK    1  A    between atoms: O_2  and  C_3 
REMARK    2  A    between atoms: N_7  and  C_9 
REMARK    3  A    between atoms: C_9  and  C_10 
REMARK    4  A    between atoms: C_11  and  O_12 
REMARK    5  A    between atoms: C_22  and  N_23 
REMARK       I    between atoms: N_23  and  C_24 
REMARK    6  A    between atoms: C_24  and  C_25 
ROOT
HETATM    1  C   UNL     1      40.273 -13.307  -0.709  1.00  0.00     0.161 C 
HETATM    2  C   UNL     1      39.977 -13.018   0.810  1.00  0.00     0.019 C 
HETATM    3  C   UNL     1      41.158 -12.298   1.506  1.00  0.00     0.045 C 
HETATM    4  C   UNL     1      42.359 -13.211   1.726  1.00  0.00     0.236 C 
HETATM    5  N   UNL     1      41.949 -14.454   2.471  1.00  0.00    -0.067 N 
HETATM    6  H   UNL     1      42.776 -15.076   2.452  1.00  0.00     0.280 HD
HETATM    7  C   UNL     1      40.840 -15.198   1.775  1.00  0.00     0.236 C 
HETATM    8  C   UNL     1      39.628 -14.289   1.613  1.00  0.00     0.045 C 
HETATM    9  C   UNL     1      38.827 -12.040   0.673  1.00  0.00    -0.038 A 
HETATM   10  C   UNL     1      38.773 -11.491  -0.622  1.00  0.00    -0.026 A 
HETATM   11  C   UNL     1      39.872 -12.026  -1.512  1.00  0.00     0.148 C 
HETATM   12  C   UNL     1      37.913 -11.646   1.642  1.00  0.00     0.009 A 
HETATM   13  C   UNL     1      36.939 -10.706   1.304  1.00  0.00     0.001 A 
HETATM   14  C   UNL     1      36.883 -10.166   0.012  1.00  0.00     0.001 A 
HETATM   15  C   UNL     1      37.803 -10.556  -0.961  1.00  0.00     0.010 A 
ENDROOT
BRANCH   1  16
HETATM   16  O   UNL     1      39.665 -14.538  -1.165  1.00  0.00    -0.387 OA
HETATM   17  C   UNL     1      39.195 -14.608  -2.507  1.00  0.00     0.202 C 
ENDBRANCH   1  16
BRANCH  11  18
HETATM   18  N   UNL     1      40.845 -10.959  -1.732  1.00  0.00    -0.346 N 
HETATM   19  C   UNL     1      40.811  -9.988  -2.702  1.00  0.00     0.252 C 
HETATM   20  O   UNL     1      40.119 -10.074  -3.712  1.00  0.00    -0.268 OA
HETATM   21  H   UNL     1      41.484 -10.815  -0.965  1.00  0.00     0.163 HD
BRANCH  19  22
HETATM   22  C   UNL     1      41.713  -8.850  -2.485  1.00  0.00     0.039 A 
HETATM   23  C   UNL     1      41.845  -7.847  -3.434  1.00  0.00     0.066 A 
HETATM   24  S   UNL     1      42.938  -6.617  -2.976  1.00  0.00    -0.113 SA
HETATM   25  C   UNL     1      43.250  -7.380  -1.483  1.00  0.00     0.050 A 
HETATM   26  C   UNL     1      42.539  -8.554  -1.344  1.00  0.00     0.024 A 
ENDBRANCH  19  22
ENDBRANCH  11  18
BRANCH   5  27
HETATM   27  C   UNL     1      41.722 -14.271   3.957  1.00  0.00     0.276 C 
BRANCH  27  28
HETATM   28  C   UNL     1      42.601 -15.131   4.825  1.00  0.00     0.002 A 
HETATM   29  C   UNL     1      42.885 -14.776   6.150  1.00  0.00     0.073 A 
HETATM   30  C   UNL     1      43.721 -15.557   6.945  1.00  0.00     0.039 A 
HETATM   31  C   UNL     1      44.286 -16.718   6.415  1.00  0.00     0.026 A 
HETATM   32  C   UNL     1      44.016 -17.084   5.099  1.00  0.00     0.034 A 
HETATM   33 CL   UNL     1      44.708 -18.515   4.445  1.00  0.00    -0.084 Cl
HETATM   34  C   UNL     1      43.182 -16.297   4.303  1.00  0.00     0.035 A 
BRANCH  29  35
HETATM   35  O   UNL     1      42.299 -13.647   6.655  1.00  0.00    -0.360 OA
HETATM   36  H   UNL     1      41.329 -13.745   6.563  1.00  0.00     0.217 HD
ENDBRANCH  29  35
ENDBRANCH  27  28
ENDBRANCH   5  27
TORSDOF 6
ENDMDL
MODEL 6
REMARK VINA RESULT:      -8.0      3.234      5.377
REMARK  6 active torsions:
REMARK  status: ('A' for Active; 'I' for Inactive)
REMARK    1  A    between atoms: O_2  and  C_3 
REMARK    2  A    between atoms: N_7  and  C_9 
REMARK    3  A    between atoms: C_9  and  C_10 
REMARK    4  A    between atoms: C_11  and  O_12 
REMARK    5  A    between atoms: C_22  and  N_23 
REMARK       I    between atoms: N_23  and  C_24 
REMARK    6  A    between atoms: C_24  and  C_25 
ROOT
HETATM    1  C   UNL     1      42.744 -13.561   2.501  1.00  0.00     0.161 C 
HETATM    2  C   UNL     1      41.195 -13.340   2.327  1.00  0.00     0.019 C 
HETATM    3  C   UNL     1      40.514 -14.537   1.617  1.00  0.00     0.045 C 
HETATM    4  C   UNL     1      40.855 -14.616   0.133  1.00  0.00     0.236 C 
HETATM    5  N   UNL     1      40.540 -13.312  -0.551  1.00  0.00    -0.067 N 
HETATM    6  H   UNL     1      40.929 -13.397  -1.506  1.00  0.00     0.280 HD
HETATM    7  C   UNL     1      41.243 -12.144   0.091  1.00  0.00     0.236 C 
HETATM    8  C   UNL     1      40.848 -12.047   1.560  1.00  0.00     0.045 C 
HETATM    9  C   UNL     1      40.765 -13.331   3.780  1.00  0.00    -0.038 A 
HETATM   10  C   UNL     1      41.746 -13.904   4.610  1.00  0.00    -0.026 A 
HETATM   11  C   UNL     1      42.952 -14.370   3.824  1.00  0.00     0.148 C 
HETATM   12  C   UNL     1      39.570 -12.870   4.319  1.00  0.00     0.009 A 
HETATM   13  C   UNL     1      39.369 -12.979   5.696  1.00  0.00     0.001 A 
HETATM   14  C   UNL     1      40.351 -13.544   6.521  1.00  0.00     0.001 A 
HETATM   15  C   UNL     1      41.548 -14.013   5.980  1.00  0.00     0.010 A 
ENDROOT
BRANCH   1  16
HETATM   16  O   UNL     1      43.491 -12.325   2.410  1.00  0.00    -0.387 OA
HETATM   17  C   UNL     1      43.971 -11.729   3.610  1.00  0.00     0.202 C 
ENDBRANCH   1  16
BRANCH  11  18
HETATM   18  N   UNL     1      42.950 -15.830   3.802  1.00  0.00    -0.346 N 
HETATM   19  C   UNL     1      43.391 -16.649   2.792  1.00  0.00     0.252 C 
HETATM   20  O   UNL     1      43.560 -16.261   1.641  1.00  0.00    -0.268 OA
HETATM   21  H   UNL     1      42.796 -16.259   4.702  1.00  0.00     0.163 HD
BRANCH  19  22
HETATM   22  C   UNL     1      43.595 -18.054   3.166  1.00  0.00     0.039 A 
HETATM   23  C   UNL     1      44.030 -18.403   4.436  1.00  0.00     0.066 A 
HETATM   24  S   UNL     1      44.193 -20.089   4.660  1.00  0.00    -0.113 SA
HETATM   25  C   UNL     1      43.665 -20.402   3.068  1.00  0.00     0.050 A 
HETATM   26  C   UNL     1      43.379 -19.241   2.381  1.00  0.00     0.024 A 
ENDBRANCH  19  22
ENDBRANCH  11  18
BRANCH   5  27
HETATM   27  C   UNL     1      39.072 -13.064  -0.826  1.00  0.00     0.276 C 
BRANCH  27  28
HETATM   28  C   UNL     1      38.793 -11.797  -1.588  1.00  0.00     0.002 A 
HETATM   29  C   UNL     1      39.370 -11.562  -2.843  1.00  0.00     0.073 A 
HETATM   30  C   UNL     1      39.134 -10.376  -3.537  1.00  0.00     0.039 A 
HETATM   31  C   UNL     1      38.307  -9.403  -2.975  1.00  0.00     0.026 A 
HETATM   32  C   UNL     1      37.728  -9.620  -1.727  1.00  0.00     0.034 A 
HETATM   33 CL   UNL     1      36.706  -8.425  -1.034  1.00  0.00    -0.084 Cl
HETATM   34  C   UNL     1      37.969 -10.807  -1.031  1.00  0.00     0.035 A 
BRANCH  29  35
HETATM   35  O   UNL     1      40.157 -12.541  -3.385  1.00  0.00    -0.360 OA
HETATM   36  H   UNL     1      39.683 -13.393  -3.294  1.00  0.00     0.217 HD
ENDBRANCH  29  35
ENDBRANCH  27  28
ENDBRANCH   5  27
TORSDOF 6
ENDMDL
MODEL 7
REMARK VINA RESULT:      -7.9      3.958      8.800
REMARK  6 active torsions:
REMARK  status: ('A' for Active; 'I' for Inactive)
REMARK    1  A    between atoms: O_2  and  C_3 
REMARK    2  A    between atoms: N_7  and  C_9 
REMARK    3  A    between atoms: C_9  and  C_10 
REMARK    4  A    between atoms: C_11  and  O_12 
REMARK    5  A    between atoms: C_22  and  N_23 
REMARK       I    between atoms: N_23  and  C_24 
REMARK    6  A    between atoms: C_24  and  C_25 
ROOT
HETATM    1  C   UNL     1      40.274 -11.183   0.505  1.00  0.00     0.161 C 
HETATM    2  C   UNL     1      40.115 -12.705   0.872  1.00  0.00     0.019 C 
HETATM    3  C   UNL     1      39.024 -12.933   1.948  1.00  0.00     0.045 C 
HETATM    4  C   UNL     1      39.451 -12.456   3.332  1.00  0.00     0.236 C 
HETATM    5  N   UNL     1      40.761 -13.086   3.727  1.00  0.00    -0.067 N 
HETATM    6  H   UNL     1      41.048 -12.608   4.598  1.00  0.00     0.280 HD
HETATM    7  C   UNL     1      41.849 -12.823   2.719  1.00  0.00     0.236 C 
HETATM    8  C   UNL     1      41.429 -13.356   1.354  1.00  0.00     0.045 C 
HETATM    9  C   UNL     1      39.608 -13.244  -0.451  1.00  0.00    -0.038 A 
HETATM   10  C   UNL     1      39.110 -12.213  -1.268  1.00  0.00    -0.026 A 
HETATM   11  C   UNL     1      39.216 -10.859  -0.601  1.00  0.00     0.148 C 
HETATM   12  C   UNL     1      39.569 -14.564  -0.883  1.00  0.00     0.009 A 
HETATM   13  C   UNL     1      39.035 -14.843  -2.143  1.00  0.00     0.001 A 
HETATM   14  C   UNL     1      38.546 -13.813  -2.957  1.00  0.00     0.001 A 
HETATM   15  C   UNL     1      38.580 -12.488  -2.522  1.00  0.00     0.010 A 
ENDROOT
BRANCH   1  16
HETATM   16  O   UNL     1      41.639 -10.835   0.175  1.00  0.00    -0.387 OA
HETATM   17  C   UNL     1      41.869  -9.745  -0.709  1.00  0.00     0.202 C 
ENDBRANCH   1  16
BRANCH  11  18
HETATM   18  N   UNL     1      37.873 -10.423  -0.232  1.00  0.00    -0.346 N 
HETATM   19  C   UNL     1      37.457  -9.142   0.037  1.00  0.00     0.252 C 
HETATM   20  O   UNL     1      38.231  -8.229   0.307  1.00  0.00    -0.268 OA
HETATM   21  H   UNL     1      37.153 -11.111  -0.394  1.00  0.00     0.163 HD
BRANCH  19  22
HETATM   22  C   UNL     1      36.003  -8.940   0.040  1.00  0.00     0.039 A 
HETATM   23  C   UNL     1      35.371  -8.289   1.089  1.00  0.00     0.066 A 
HETATM   24  S   UNL     1      33.680  -8.156   0.887  1.00  0.00    -0.113 SA
HETATM   25  C   UNL     1      33.747  -8.948  -0.622  1.00  0.00     0.050 A 
HETATM   26  C   UNL     1      35.034  -9.313  -0.957  1.00  0.00     0.024 A 
ENDBRANCH  19  22
ENDBRANCH  11  18
BRANCH   5  27
HETATM   27  C   UNL     1      40.676 -14.531   4.170  1.00  0.00     0.276 C 
BRANCH  27  28
HETATM   28  C   UNL     1      41.871 -15.008   4.949  1.00  0.00     0.002 A 
HETATM   29  C   UNL     1      42.326 -14.316   6.079  1.00  0.00     0.073 A 
HETATM   30  C   UNL     1      43.450 -14.741   6.785  1.00  0.00     0.039 A 
HETATM   31  C   UNL     1      44.138 -15.879   6.362  1.00  0.00     0.026 A 
HETATM   32  C   UNL     1      43.700 -16.577   5.239  1.00  0.00     0.034 A 
HETATM   33 CL   UNL     1      44.543 -17.981   4.718  1.00  0.00    -0.084 Cl
HETATM   34  C   UNL     1      42.577 -16.146   4.530  1.00  0.00     0.035 A 
BRANCH  29  35
HETATM   35  O   UNL     1      41.620 -13.217   6.490  1.00  0.00    -0.360 OA
HETATM   36  H   UNL     1      41.404 -12.685   5.697  1.00  0.00     0.217 HD
ENDBRANCH  29  35
ENDBRANCH  27  28
ENDBRANCH   5  27
TORSDOF 6
ENDMDL
MODEL 8
REMARK VINA RESULT:      -7.6      7.592     12.157
REMARK  6 active torsions:
REMARK  status: ('A' for Active; 'I' for Inactive)
REMARK    1  A    between atoms: O_2  and  C_3 
REMARK    2  A    between atoms: N_7  and  C_9 
REMARK    3  A    between atoms: C_9  and  C_10 
REMARK    4  A    between atoms: C_11  and  O_12 
REMARK    5  A    between atoms: C_22  and  N_23 
REMARK       I    between atoms: N_23  and  C_24 
REMARK    6  A    between atoms: C_24  and  C_25 
ROOT
HETATM    1  C   UNL     1      41.820  -7.435   8.681  1.00  0.00     0.161 C 
HETATM    2  C   UNL     1      42.067  -8.051  10.109  1.00  0.00     0.019 C 
HETATM    3  C   UNL     1      40.981  -9.087  10.491  1.00  0.00     0.045 C 
HETATM    4  C   UNL     1      39.634  -8.443  10.801  1.00  0.00     0.236 C 
HETATM    5  N   UNL     1      39.787  -7.382  11.860  1.00  0.00    -0.067 N 
HETATM    6  H   UNL     1      38.872  -6.902  11.908  1.00  0.00     0.280 HD
HETATM    7  C   UNL     1      40.798  -6.334  11.477  1.00  0.00     0.236 C 
HETATM    8  C   UNL     1      42.152  -6.987  11.224  1.00  0.00     0.045 C 
HETATM    9  C   UNL     1      43.369  -8.785   9.857  1.00  0.00    -0.038 A 
HETATM   10  C   UNL     1      43.593  -8.977   8.481  1.00  0.00    -0.026 A 
HETATM   11  C   UNL     1      42.476  -8.400   7.639  1.00  0.00     0.148 C 
HETATM   12  C   UNL     1      44.275  -9.274  10.791  1.00  0.00     0.009 A 
HETATM   13  C   UNL     1      45.410  -9.947  10.337  1.00  0.00     0.001 A 
HETATM   14  C   UNL     1      45.633 -10.130   8.965  1.00  0.00     0.001 A 
HETATM   15  C   UNL     1      44.722  -9.645   8.027  1.00  0.00     0.010 A 
ENDROOT
BRANCH   1  16
HETATM   16  O   UNL     1      42.243  -6.054   8.596  1.00  0.00    -0.387 OA
HETATM   17  C   UNL     1      41.399  -5.123   7.929  1.00  0.00     0.202 C 
ENDBRANCH   1  16
BRANCH  11  18
HETATM   18  N   UNL     1      41.709  -9.506   7.074  1.00  0.00    -0.346 N 
HETATM   19  C   UNL     1      41.567  -9.830   5.747  1.00  0.00     0.252 C 
HETATM   20  O   UNL     1      41.812  -9.045   4.837  1.00  0.00    -0.268 OA
HETATM   21  H   UNL     1      41.433 -10.206   7.746  1.00  0.00     0.163 HD
BRANCH  19  22
HETATM   22  C   UNL     1      41.037 -11.173   5.480  1.00  0.00     0.039 A 
HETATM   23  C   UNL     1      41.551 -11.957   4.458  1.00  0.00     0.066 A 
HETATM   24  S   UNL     1      40.797 -13.484   4.328  1.00  0.00    -0.113 SA
HETATM   25  C   UNL     1      39.774 -13.148   5.651  1.00  0.00     0.050 A 
HETATM   26  C   UNL     1      40.001 -11.892   6.174  1.00  0.00     0.024 A 
ENDBRANCH  19  22
ENDBRANCH  11  18
BRANCH   5  27
HETATM   27  C   UNL     1      39.950  -7.899  13.273  1.00  0.00     0.276 C 
BRANCH  27  28
HETATM   28  C   UNL     1      39.698  -6.867  14.339  1.00  0.00     0.002 A 
HETATM   29  C   UNL     1      38.463  -6.212  14.439  1.00  0.00     0.073 A 
HETATM   30  C   UNL     1      38.238  -5.236  15.408  1.00  0.00     0.039 A 
HETATM   31  C   UNL     1      39.259  -4.903  16.299  1.00  0.00     0.026 A 
HETATM   32  C   UNL     1      40.493  -5.543  16.211  1.00  0.00     0.034 A 
HETATM   33 CL   UNL     1      41.751  -5.138  17.310  1.00  0.00    -0.084 Cl
HETATM   34  C   UNL     1      40.718  -6.517  15.237  1.00  0.00     0.035 A 
BRANCH  29  35
HETATM   35  O   UNL     1      37.469  -6.573  13.571  1.00  0.00    -0.360 OA
HETATM   36  H   UNL     1      36.617  -6.268  13.944  1.00  0.00     0.217 HD
ENDBRANCH  29  35
ENDBRANCH  27  28
ENDBRANCH   5  27
TORSDOF 6
ENDMDL
MODEL 9
REMARK VINA RESULT:      -7.5      4.212      8.838
REMARK  6 active torsions:
REMARK  status: ('A' for Active; 'I' for Inactive)
REMARK    1  A    between atoms: O_2  and  C_3 
REMARK    2  A    between atoms: N_7  and  C_9 
REMARK    3  A    between atoms: C_9  and  C_10 
REMARK    4  A    between atoms: C_11  and  O_12 
REMARK    5  A    between atoms: C_22  and  N_23 
REMARK       I    between atoms: N_23  and  C_24 
REMARK    6  A    between atoms: C_24  and  C_25 
ROOT
HETATM    1  C   UNL     1      40.288 -12.983  -0.134  1.00  0.00     0.161 C 
HETATM    2  C   UNL     1      39.746 -12.464   1.249  1.00  0.00     0.019 C 
HETATM    3  C   UNL     1      40.760 -11.530   1.956  1.00  0.00     0.045 C 
HETATM    4  C   UNL     1      41.970 -12.277   2.505  1.00  0.00     0.236 C 
HETATM    5  N   UNL     1      41.532 -13.404   3.403  1.00  0.00    -0.067 N 
HETATM    6  H   UNL     1      42.390 -13.943   3.614  1.00  0.00     0.280 HD
HETATM    7  C   UNL     1      40.592 -14.356   2.711  1.00  0.00     0.236 C 
HETATM    8  C   UNL     1      39.362 -13.602   2.218  1.00  0.00     0.045 C 
HETATM    9  C   UNL     1      38.570 -11.632   0.777  1.00  0.00    -0.038 A 
HETATM   10  C   UNL     1      38.678 -11.323  -0.592  1.00  0.00    -0.026 A 
HETATM   11  C   UNL     1      39.932 -11.903  -1.208  1.00  0.00     0.148 C 
HETATM   12  C   UNL     1      37.496 -11.161   1.521  1.00  0.00     0.009 A 
HETATM   13  C   UNL     1      36.526 -10.386   0.884  1.00  0.00     0.001 A 
HETATM   14  C   UNL     1      36.632 -10.086  -0.480  1.00  0.00     0.001 A 
HETATM   15  C   UNL     1      37.713 -10.553  -1.228  1.00  0.00     0.010 A 
ENDROOT
BRANCH   1  16
HETATM   16  O   UNL     1      39.837 -14.325  -0.435  1.00  0.00    -0.387 OA
HETATM   17  C   UNL     1      39.389 -14.613  -1.754  1.00  0.00     0.202 C 
ENDBRANCH   1  16
BRANCH  11  18
HETATM   18  N   UNL     1      40.856 -10.806  -1.485  1.00  0.00    -0.346 N 
HETATM   19  C   UNL     1      40.933 -10.051  -2.630  1.00  0.00     0.252 C 
HETATM   20  O   UNL     1      40.442 -10.401  -3.697  1.00  0.00    -0.268 OA
HETATM   21  H   UNL     1      41.336 -10.452  -0.672  1.00  0.00     0.163 HD
BRANCH  19  22
HETATM   22  C   UNL     1      41.704  -8.807  -2.511  1.00  0.00     0.039 A 
HETATM   23  C   UNL     1      42.342  -8.469  -1.327  1.00  0.00     0.066 A 
HETATM   24  S   UNL     1      43.188  -6.986  -1.410  1.00  0.00    -0.113 SA
HETATM   25  C   UNL     1      42.741  -6.765  -3.041  1.00  0.00     0.050 A 
HETATM   26  C   UNL     1      41.956  -7.799  -3.507  1.00  0.00     0.024 A 
ENDBRANCH  19  22
ENDBRANCH  11  18
BRANCH   5  27
HETATM   27  C   UNL     1      41.071 -12.988   4.784  1.00  0.00     0.276 C 
BRANCH  27  28
HETATM   28  C   UNL     1      42.173 -12.484   5.676  1.00  0.00     0.002 A 
HETATM   29  C   UNL     1      43.260 -13.299   6.019  1.00  0.00     0.073 A 
HETATM   30  C   UNL     1      44.267 -12.842   6.867  1.00  0.00     0.039 A 
HETATM   31  C   UNL     1      44.195 -11.548   7.386  1.00  0.00     0.026 A 
HETATM   32  C   UNL     1      43.120 -10.727   7.057  1.00  0.00     0.034 A 
HETATM   33 CL   UNL     1      43.031  -9.132   7.690  1.00  0.00    -0.084 Cl
HETATM   34  C   UNL     1      42.110 -11.188   6.210  1.00  0.00     0.035 A 
BRANCH  29  35
HETATM   35  O   UNL     1      43.322 -14.554   5.478  1.00  0.00    -0.360 OA
HETATM   36  H   UNL     1      42.427 -14.948   5.529  1.00  0.00     0.217 HD
ENDBRANCH  29  35
ENDBRANCH  27  28
ENDBRANCH   5  27
TORSDOF 6
ENDMDL
MODEL 10
REMARK VINA RESULT:      -7.4     16.442     19.772
REMARK  6 active torsions:
REMARK  status: ('A' for Active; 'I' for Inactive)
REMARK    1  A    between atoms: O_2  and  C_3 
REMARK    2  A    between atoms: N_7  and  C_9 
REMARK    3  A    between atoms: C_9  and  C_10 
REMARK    4  A    between atoms: C_11  and  O_12 
REMARK    5  A    between atoms: C_22  and  N_23 
REMARK       I    between atoms: N_23  and  C_24 
REMARK    6  A    between atoms: C_24  and  C_25 
ROOT
HETATM    1  C   UNL     1      44.471 -30.264   0.779  1.00  0.00     0.161 C 
HETATM    2  C   UNL     1      45.887 -29.708   0.376  1.00  0.00     0.019 C 
HETATM    3  C   UNL     1      46.937 -30.838   0.236  1.00  0.00     0.045 C 
HETATM    4  C   UNL     1      47.350 -31.430   1.578  1.00  0.00     0.236 C 
HETATM    5  N   UNL     1      47.822 -30.346   2.512  1.00  0.00    -0.067 N 
HETATM    6  H   UNL     1      47.943 -30.804   3.432  1.00  0.00     0.280 HD
HETATM    7  C   UNL     1      46.788 -29.268   2.705  1.00  0.00     0.236 C 
HETATM    8  C   UNL     1      46.427 -28.649   1.360  1.00  0.00     0.045 C 
HETATM    9  C   UNL     1      45.574 -29.164  -1.004  1.00  0.00    -0.038 A 
HETATM   10  C   UNL     1      44.378 -29.707  -1.510  1.00  0.00    -0.026 A 
HETATM   11  C   UNL     1      43.742 -30.679  -0.541  1.00  0.00     0.148 C 
HETATM   12  C   UNL     1      46.318 -28.272  -1.765  1.00  0.00     0.009 A 
HETATM   13  C   UNL     1      45.852 -27.919  -3.033  1.00  0.00     0.001 A 
HETATM   14  C   UNL     1      44.657 -28.457  -3.531  1.00  0.00     0.001 A 
HETATM   15  C   UNL     1      43.912 -29.357  -2.770  1.00  0.00     0.010 A 
ENDROOT
BRANCH   1  16
HETATM   16  O   UNL     1      43.739 -29.347   1.627  1.00  0.00    -0.387 OA
HETATM   17  C   UNL     1      42.319 -29.328   1.543  1.00  0.00     0.202 C 
ENDBRANCH   1  16
BRANCH  11  18
HETATM   18  N   UNL     1      43.897 -32.029  -1.075  1.00  0.00    -0.346 N 
HETATM   19  C   UNL     1      43.113 -33.125  -0.811  1.00  0.00     0.252 C 
HETATM   20  O   UNL     1      42.361 -33.193   0.156  1.00  0.00    -0.268 OA
HETATM   21  H   UNL     1      44.518 -32.093  -1.867  1.00  0.00     0.163 HD
BRANCH  19  22
HETATM   22  C   UNL     1      43.278 -34.254  -1.736  1.00  0.00     0.039 A 
HETATM   23  C   UNL     1      44.530 -34.790  -1.998  1.00  0.00     0.066 A 
HETATM   24  S   UNL     1      44.493 -36.099  -3.095  1.00  0.00    -0.113 SA
HETATM   25  C   UNL     1      42.795 -35.999  -3.234  1.00  0.00     0.050 A 
HETATM   26  C   UNL     1      42.272 -34.982  -2.465  1.00  0.00     0.024 A 
ENDBRANCH  19  22
ENDBRANCH  11  18
BRANCH   5  27
HETATM   27  C   UNL     1      49.212 -29.815   2.234  1.00  0.00     0.276 C 
BRANCH  27  28
HETATM   28  C   UNL     1      50.062 -30.725   1.389  1.00  0.00     0.002 A 
HETATM   29  C   UNL     1      50.530 -31.949   1.883  1.00  0.00     0.073 A 
HETATM   30  C   UNL     1      51.340 -32.780   1.111  1.00  0.00     0.039 A 
HETATM   31  C   UNL     1      51.693 -32.388  -0.181  1.00  0.00     0.026 A 
HETATM   32  C   UNL     1      51.238 -31.173  -0.686  1.00  0.00     0.034 A 
HETATM   33 CL   UNL     1      51.668 -30.689  -2.278  1.00  0.00    -0.084 Cl
HETATM   34  C   UNL     1      50.431 -30.340   0.091  1.00  0.00     0.035 A 
BRANCH  29  35
HETATM   35  O   UNL     1      50.150 -32.324   3.144  1.00  0.00    -0.360 OA
HETATM   36  H   UNL     1      49.192 -32.521   3.123  1.00  0.00     0.217 HD
ENDBRANCH  29  35
ENDBRANCH  27  28
ENDBRANCH   5  27
TORSDOF 6
ENDMDL
