MODEL 1
REMARK VINA RESULT:      -9.1      0.000      0.000
REMARK  10 active torsions:
REMARK  status: ('A' for Active; 'I' for Inactive)
REMARK    1  A    between atoms: C_4  and  C_5 
REMARK    2  A    between atoms: C_5  and  C_6 
REMARK    3  A    between atoms: C_6  and  N_7 
REMARK    4  A    between atoms: C_6  and  C_15 
REMARK       I    between atoms: N_7  and  C_8 
REMARK    5  A    between atoms: C_8  and  C_9 
REMARK       I    between atoms: C_15  and  N_16 
REMARK    6  A    between atoms: N_16  and  C_17 
REMARK    7  A    between atoms: C_17  and  C_18 
REMARK    8  A    between atoms: C_18  and  C_19 
REMARK    9  A    between atoms: C_21  and  O_22 
REMARK   10  A    between atoms: C_23  and  O_24 
ROOT
HETATM    1  C   UNL     1      42.449 -15.613   3.770  1.00  0.00     0.181 C 
ENDROOT
BRANCH   1   2
HETATM    2  C   UNL     1      43.370 -16.443   2.850  1.00  0.00     0.073 C 
BRANCH   2   3
HETATM    3  C   UNL     1      43.461 -17.925   3.146  1.00  0.00    -0.056 A 
HETATM    4  C   UNL     1      43.168 -18.893   2.173  1.00  0.00     0.007 A 
HETATM    5  C   UNL     1      43.350 -20.252   2.440  1.00  0.00     0.001 A 
HETATM    6  C   UNL     1      43.845 -20.662   3.675  1.00  0.00     0.000 A 
HETATM    7  C   UNL     1      44.157 -19.712   4.646  1.00  0.00     0.001 A 
HETATM    8  C   UNL     1      43.966 -18.354   4.383  1.00  0.00     0.007 A 
ENDBRANCH   2   3
ENDBRANCH   1   2
BRANCH   1   9
HETATM    9  N   UNL     1      43.123 -14.535   4.500  1.00  0.00    -0.342 N 
HETATM   10  C   UNL     1      42.791 -14.070   5.749  1.00  0.00     0.276 C 
HETATM   11  O   UNL     1      41.939 -14.626   6.442  1.00  0.00    -0.265 OA
HETATM   12  H   UNL     1      43.808 -13.982   3.994  1.00  0.00     0.163 HD
BRANCH  10  13
HETATM   13  C   UNL     1      43.572 -12.934   6.187  1.00  0.00     0.142 A 
HETATM   14  O   UNL     1      43.843 -12.779   7.524  1.00  0.00    -0.317 OA
HETATM   15  C   UNL     1      44.566 -11.636   7.655  1.00  0.00     0.143 A 
HETATM   16  C   UNL     1      44.764 -11.045   6.430  1.00  0.00     0.027 A 
HETATM   17  C   UNL     1      44.126 -11.881   5.481  1.00  0.00     0.045 A 
ENDBRANCH  10  13
ENDBRANCH   1   9
BRANCH   1  18
HETATM   18  C   UNL     1      41.199 -15.203   2.958  1.00  0.00     0.240 C 
HETATM   19  N   UNL     1      41.009 -13.857   2.740  1.00  0.00    -0.359 N 
HETATM   20  H   UNL     1      41.782 -13.248   2.991  1.00  0.00     0.162 HD
HETATM   21  O   UNL     1      40.497 -16.057   2.413  1.00  0.00    -0.271 OA
BRANCH  19  22
HETATM   22  C   UNL     1      40.080 -13.394   1.723  1.00  0.00     0.127 C 
BRANCH  22  23
HETATM   23  C   UNL     1      40.721 -13.191   0.347  1.00  0.00     0.058 C 
BRANCH  23  24
HETATM   24  C   UNL     1      39.970 -13.650  -0.887  1.00  0.00    -0.054 A 
HETATM   25  C   UNL     1      39.404 -14.925  -1.033  1.00  0.00     0.046 A 
HETATM   26  C   UNL     1      38.782 -15.278  -2.229  1.00  0.00     0.099 A 
HETATM   27  C   UNL     1      38.670 -14.361  -3.267  1.00  0.00     0.098 A 
HETATM   28  C   UNL     1      39.197 -13.087  -3.140  1.00  0.00     0.040 A 
HETATM   29  C   UNL     1      39.852 -12.738  -1.956  1.00  0.00     0.010 A 
BRANCH  26  30
HETATM   30  O   UNL     1      38.277 -16.534  -2.427  1.00  0.00    -0.358 OA
HETATM   31  H   UNL     1      37.308 -16.477  -2.333  1.00  0.00     0.218 HD
ENDBRANCH  26  30
BRANCH  27  32
HETATM   32  O   UNL     1      38.046 -14.716  -4.427  1.00  0.00    -0.358 OA
HETATM   33  H   UNL     1      37.242 -14.158  -4.449  1.00  0.00     0.218 HD
ENDBRANCH  27  32
ENDBRANCH  23  24
ENDBRANCH  22  23
ENDBRANCH  19  22
ENDBRANCH   1  18
TORSDOF 10
ENDMDL
MODEL 2
REMARK VINA RESULT:      -8.8      1.293      1.680
REMARK  10 active torsions:
REMARK  status: ('A' for Active; 'I' for Inactive)
REMARK    1  A    between atoms: C_4  and  C_5 
REMARK    2  A    between atoms: C_5  and  C_6 
REMARK    3  A    between atoms: C_6  and  N_7 
REMARK    4  A    between atoms: C_6  and  C_15 
REMARK       I    between atoms: N_7  and  C_8 
REMARK    5  A    between atoms: C_8  and  C_9 
REMARK       I    between atoms: C_15  and  N_16 
REMARK    6  A    between atoms: N_16  and  C_17 
REMARK    7  A    between atoms: C_17  and  C_18 
REMARK    8  A    between atoms: C_18  and  C_19 
REMARK    9  A    between atoms: C_21  and  O_22 
REMARK   10  A    between atoms: C_23  and  O_24 
ROOT
HETATM    1  C   UNL     1      42.399 -14.352   4.296  1.00  0.00     0.181 C 
ENDROOT
BRANCH   1   2
HETATM    2  C   UNL     1      43.100 -15.080   3.129  1.00  0.00     0.073 C 
BRANCH   2   3
HETATM    3  C   UNL     1      43.317 -16.569   3.296  1.00  0.00    -0.056 A 
HETATM    4  C   UNL     1      43.033 -17.479   2.266  1.00  0.00     0.007 A 
HETATM    5  C   UNL     1      43.329 -18.836   2.410  1.00  0.00     0.001 A 
HETATM    6  C   UNL     1      43.932 -19.301   3.576  1.00  0.00     0.000 A 
HETATM    7  C   UNL     1      44.237 -18.408   4.600  1.00  0.00     0.001 A 
HETATM    8  C   UNL     1      43.931 -17.053   4.462  1.00  0.00     0.007 A 
ENDBRANCH   2   3
ENDBRANCH   1   2
BRANCH   1   9
HETATM    9  N   UNL     1      43.255 -13.422   5.039  1.00  0.00    -0.342 N 
HETATM   10  C   UNL     1      43.531 -13.473   6.384  1.00  0.00     0.276 C 
HETATM   11  O   UNL     1      43.167 -14.416   7.085  1.00  0.00    -0.265 OA
HETATM   12  H   UNL     1      43.564 -12.583   4.559  1.00  0.00     0.163 HD
BRANCH  10  13
HETATM   13  C   UNL     1      44.334 -12.371   6.867  1.00  0.00     0.142 A 
HETATM   14  O   UNL     1      44.134 -11.900   8.141  1.00  0.00    -0.317 OA
HETATM   15  C   UNL     1      44.995 -10.866   8.326  1.00  0.00     0.143 A 
HETATM   16  C   UNL     1      45.746 -10.654   7.194  1.00  0.00     0.027 A 
HETATM   17  C   UNL     1      45.323 -11.624   6.252  1.00  0.00     0.045 A 
ENDBRANCH  10  13
ENDBRANCH   1   9
BRANCH   1  18
HETATM   18  C   UNL     1      41.065 -13.774   3.772  1.00  0.00     0.240 C 
HETATM   19  N   UNL     1      40.891 -13.743   2.406  1.00  0.00    -0.359 N 
HETATM   20  H   UNL     1      41.580 -14.244   1.854  1.00  0.00     0.162 HD
HETATM   21  O   UNL     1      40.152 -13.496   4.552  1.00  0.00    -0.271 OA
BRANCH  19  22
HETATM   22  C   UNL     1      39.570 -13.545   1.831  1.00  0.00     0.127 C 
BRANCH  22  23
HETATM   23  C   UNL     1      39.550 -12.564   0.654  1.00  0.00     0.058 C 
BRANCH  23  24
HETATM   24  C   UNL     1      39.115 -13.064  -0.709  1.00  0.00    -0.054 A 
HETATM   25  C   UNL     1      37.993 -12.587  -1.400  1.00  0.00     0.046 A 
HETATM   26  C   UNL     1      37.637 -13.149  -2.624  1.00  0.00     0.099 A 
HETATM   27  C   UNL     1      38.412 -14.150  -3.196  1.00  0.00     0.098 A 
HETATM   28  C   UNL     1      39.540 -14.622  -2.548  1.00  0.00     0.040 A 
HETATM   29  C   UNL     1      39.884 -14.086  -1.305  1.00  0.00     0.010 A 
BRANCH  26  30
HETATM   30  O   UNL     1      36.511 -12.751  -3.292  1.00  0.00    -0.358 OA
HETATM   31  H   UNL     1      35.748 -12.941  -2.715  1.00  0.00     0.218 HD
ENDBRANCH  26  30
BRANCH  27  32
HETATM   32  O   UNL     1      38.059 -14.683  -4.401  1.00  0.00    -0.358 OA
HETATM   33  H   UNL     1      38.873 -15.123  -4.718  1.00  0.00     0.218 HD
ENDBRANCH  27  32
ENDBRANCH  23  24
ENDBRANCH  22  23
ENDBRANCH  19  22
ENDBRANCH   1  18
TORSDOF 10
ENDMDL
MODEL 3
REMARK VINA RESULT:      -8.7      3.733      6.539
REMARK  10 active torsions:
REMARK  status: ('A' for Active; 'I' for Inactive)
REMARK    1  A    between atoms: C_4  and  C_5 
REMARK    2  A    between atoms: C_5  and  C_6 
REMARK    3  A    between atoms: C_6  and  N_7 
REMARK    4  A    between atoms: C_6  and  C_15 
REMARK       I    between atoms: N_7  and  C_8 
REMARK    5  A    between atoms: C_8  and  C_9 
REMARK       I    between atoms: C_15  and  N_16 
REMARK    6  A    between atoms: N_16  and  C_17 
REMARK    7  A    between atoms: C_17  and  C_18 
REMARK    8  A    between atoms: C_18  and  C_19 
REMARK    9  A    between atoms: C_21  and  O_22 
REMARK   10  A    between atoms: C_23  and  O_24 
ROOT
HETATM    1  C   UNL     1      43.132 -13.010   6.328  1.00  0.00     0.181 C 
ENDROOT
BRANCH   1   2
HETATM    2  C   UNL     1      41.799 -13.019   5.550  1.00  0.00     0.073 C 
BRANCH   2   3
HETATM    3  C   UNL     1      41.808 -13.715   4.206  1.00  0.00    -0.056 A 
HETATM    4  C   UNL     1      42.803 -13.464   3.249  1.00  0.00     0.007 A 
HETATM    5  C   UNL     1      42.844 -14.186   2.054  1.00  0.00     0.001 A 
HETATM    6  C   UNL     1      41.904 -15.184   1.807  1.00  0.00     0.000 A 
HETATM    7  C   UNL     1      40.921 -15.458   2.755  1.00  0.00     0.001 A 
HETATM    8  C   UNL     1      40.873 -14.729   3.945  1.00  0.00     0.007 A 
ENDBRANCH   2   3
ENDBRANCH   1   2
BRANCH   1   9
HETATM    9  N   UNL     1      43.246 -11.950   7.335  1.00  0.00    -0.342 N 
HETATM   10  C   UNL     1      44.409 -11.345   7.748  1.00  0.00     0.276 C 
HETATM   11  O   UNL     1      45.486 -11.567   7.196  1.00  0.00    -0.265 OA
HETATM   12  H   UNL     1      42.419 -11.730   7.881  1.00  0.00     0.163 HD
BRANCH  10  13
HETATM   13  C   UNL     1      44.232 -10.393   8.823  1.00  0.00     0.142 A 
HETATM   14  O   UNL     1      44.292 -10.829  10.124  1.00  0.00    -0.317 OA
HETATM   15  C   UNL     1      44.077  -9.749  10.919  1.00  0.00     0.143 A 
HETATM   16  C   UNL     1      43.874  -8.622  10.158  1.00  0.00     0.027 A 
HETATM   17  C   UNL     1      43.976  -9.034   8.807  1.00  0.00     0.045 A 
ENDBRANCH  10  13
ENDBRANCH   1   9
BRANCH   1  18
HETATM   18  C   UNL     1      43.413 -14.447   6.823  1.00  0.00     0.240 C 
HETATM   19  N   UNL     1      44.078 -15.287   5.958  1.00  0.00    -0.359 N 
HETATM   20  H   UNL     1      44.473 -14.855   5.127  1.00  0.00     0.162 HD
HETATM   21  O   UNL     1      43.179 -14.765   7.990  1.00  0.00    -0.271 OA
BRANCH  19  22
HETATM   22  C   UNL     1      44.683 -16.518   6.439  1.00  0.00     0.127 C 
BRANCH  22  23
HETATM   23  C   UNL     1      43.754 -17.734   6.360  1.00  0.00     0.058 C 
BRANCH  23  24
HETATM   24  C   UNL     1      43.714 -18.544   5.080  1.00  0.00    -0.054 A 
HETATM   25  C   UNL     1      43.927 -19.928   5.019  1.00  0.00     0.046 A 
HETATM   26  C   UNL     1      43.929 -20.579   3.787  1.00  0.00     0.099 A 
HETATM   27  C   UNL     1      43.672 -19.878   2.615  1.00  0.00     0.098 A 
HETATM   28  C   UNL     1      43.434 -18.516   2.649  1.00  0.00     0.040 A 
HETATM   29  C   UNL     1      43.463 -17.851   3.877  1.00  0.00     0.010 A 
BRANCH  26  30
HETATM   30  O   UNL     1      44.197 -21.917   3.687  1.00  0.00    -0.358 OA
HETATM   31  H   UNL     1      43.631 -22.275   2.979  1.00  0.00     0.218 HD
ENDBRANCH  26  30
BRANCH  27  32
HETATM   32  O   UNL     1      43.665 -20.531   1.417  1.00  0.00    -0.358 OA
HETATM   33  H   UNL     1      43.685 -19.814   0.751  1.00  0.00     0.218 HD
ENDBRANCH  27  32
ENDBRANCH  23  24
ENDBRANCH  22  23
ENDBRANCH  19  22
ENDBRANCH   1  18
TORSDOF 10
ENDMDL
MODEL 4
REMARK VINA RESULT:      -8.6      1.955      7.069
REMARK  10 active torsions:
REMARK  status: ('A' for Active; 'I' for Inactive)
REMARK    1  A    between atoms: C_4  and  C_5 
REMARK    2  A    between atoms: C_5  and  C_6 
REMARK    3  A    between atoms: C_6  and  N_7 
REMARK    4  A    between atoms: C_6  and  C_15 
REMARK       I    between atoms: N_7  and  C_8 
REMARK    5  A    between atoms: C_8  and  C_9 
REMARK       I    between atoms: C_15  and  N_16 
REMARK    6  A    between atoms: N_16  and  C_17 
REMARK    7  A    between atoms: C_17  and  C_18 
REMARK    8  A    between atoms: C_18  and  C_19 
REMARK    9  A    between atoms: C_21  and  O_22 
REMARK   10  A    between atoms: C_23  and  O_24 
ROOT
HETATM    1  C   UNL     1      42.599 -14.217   1.962  1.00  0.00     0.181 C 
ENDROOT
BRANCH   1   2
HETATM    2  C   UNL     1      42.059 -15.215   3.008  1.00  0.00     0.073 C 
BRANCH   2   3
HETATM    3  C   UNL     1      42.792 -16.535   3.123  1.00  0.00    -0.056 A 
HETATM    4  C   UNL     1      43.592 -16.843   4.233  1.00  0.00     0.007 A 
HETATM    5  C   UNL     1      44.182 -18.103   4.361  1.00  0.00     0.001 A 
HETATM    6  C   UNL     1      43.965 -19.079   3.392  1.00  0.00     0.000 A 
HETATM    7  C   UNL     1      43.158 -18.794   2.293  1.00  0.00     0.001 A 
HETATM    8  C   UNL     1      42.577 -17.532   2.159  1.00  0.00     0.007 A 
ENDBRANCH   2   3
ENDBRANCH   1   2
BRANCH   1   9
HETATM    9  N   UNL     1      41.845 -14.183   0.704  1.00  0.00    -0.342 N 
HETATM   10  C   UNL     1      40.482 -14.069   0.578  1.00  0.00     0.276 C 
HETATM   11  O   UNL     1      39.757 -13.856   1.549  1.00  0.00    -0.265 OA
HETATM   12  H   UNL     1      42.349 -14.399  -0.151  1.00  0.00     0.163 HD
BRANCH  10  13
HETATM   13  C   UNL     1      40.004 -14.154  -0.785  1.00  0.00     0.142 A 
HETATM   14  O   UNL     1      39.197 -15.203  -1.150  1.00  0.00    -0.317 OA
HETATM   15  C   UNL     1      38.914 -15.049  -2.470  1.00  0.00     0.143 A 
HETATM   16  C   UNL     1      39.524 -13.923  -2.967  1.00  0.00     0.027 A 
HETATM   17  C   UNL     1      40.226 -13.343  -1.882  1.00  0.00     0.045 A 
ENDBRANCH  10  13
ENDBRANCH   1   9
BRANCH   1  18
HETATM   18  C   UNL     1      42.815 -12.855   2.660  1.00  0.00     0.240 C 
HETATM   19  N   UNL     1      41.688 -12.139   2.995  1.00  0.00    -0.359 N 
HETATM   20  H   UNL     1      40.801 -12.627   2.903  1.00  0.00     0.162 HD
HETATM   21  O   UNL     1      43.940 -12.509   3.025  1.00  0.00    -0.271 OA
BRANCH  19  22
HETATM   22  C   UNL     1      41.763 -11.036   3.939  1.00  0.00     0.127 C 
BRANCH  22  23
HETATM   23  C   UNL     1      41.211 -11.374   5.328  1.00  0.00     0.058 C 
BRANCH  23  24
HETATM   24  C   UNL     1      41.417 -12.771   5.878  1.00  0.00    -0.054 A 
HETATM   25  C   UNL     1      40.412 -13.745   5.945  1.00  0.00     0.046 A 
HETATM   26  C   UNL     1      40.680 -14.985   6.522  1.00  0.00     0.099 A 
HETATM   27  C   UNL     1      41.952 -15.287   6.991  1.00  0.00     0.098 A 
HETATM   28  C   UNL     1      42.970 -14.354   6.914  1.00  0.00     0.040 A 
HETATM   29  C   UNL     1      42.700 -13.097   6.367  1.00  0.00     0.010 A 
BRANCH  26  30
HETATM   30  O   UNL     1      39.703 -15.933   6.661  1.00  0.00    -0.358 OA
HETATM   31  H   UNL     1      39.041 -15.580   7.283  1.00  0.00     0.218 HD
ENDBRANCH  26  30
BRANCH  27  32
HETATM   32  O   UNL     1      42.203 -16.510   7.542  1.00  0.00    -0.358 OA
HETATM   33  H   UNL     1      41.894 -16.425   8.467  1.00  0.00     0.218 HD
ENDBRANCH  27  32
ENDBRANCH  23  24
ENDBRANCH  22  23
ENDBRANCH  19  22
ENDBRANCH   1  18
TORSDOF 10
ENDMDL
MODEL 5
REMARK VINA RESULT:      -8.5      3.054      5.696
REMARK  10 active torsions:
REMARK  status: ('A' for Active; 'I' for Inactive)
REMARK    1  A    between atoms: C_4  and  C_5 
REMARK    2  A    between atoms: C_5  and  C_6 
REMARK    3  A    between atoms: C_6  and  N_7 
REMARK    4  A    between atoms: C_6  and  C_15 
REMARK       I    between atoms: N_7  and  C_8 
REMARK    5  A    between atoms: C_8  and  C_9 
REMARK       I    between atoms: C_15  and  N_16 
REMARK    6  A    between atoms: N_16  and  C_17 
REMARK    7  A    between atoms: C_17  and  C_18 
REMARK    8  A    between atoms: C_18  and  C_19 
REMARK    9  A    between atoms: C_21  and  O_22 
REMARK   10  A    between atoms: C_23  and  O_24 
ROOT
HETATM    1  C   UNL     1      43.165 -13.325   6.306  1.00  0.00     0.181 C 
ENDROOT
BRANCH   1   2
HETATM    2  C   UNL     1      41.693 -13.203   5.857  1.00  0.00     0.073 C 
BRANCH   2   3
HETATM    3  C   UNL     1      41.456 -12.683   4.456  1.00  0.00    -0.056 A 
HETATM    4  C   UNL     1      40.168 -12.383   3.986  1.00  0.00     0.007 A 
HETATM    5  C   UNL     1      39.983 -11.815   2.723  1.00  0.00     0.001 A 
HETATM    6  C   UNL     1      41.082 -11.519   1.920  1.00  0.00     0.000 A 
HETATM    7  C   UNL     1      42.368 -11.795   2.380  1.00  0.00     0.001 A 
HETATM    8  C   UNL     1      42.554 -12.372   3.638  1.00  0.00     0.007 A 
ENDBRANCH   2   3
ENDBRANCH   1   2
BRANCH   1   9
HETATM    9  N   UNL     1      43.551 -12.418   7.392  1.00  0.00    -0.342 N 
HETATM   10  C   UNL     1      44.520 -11.445   7.330  1.00  0.00     0.276 C 
HETATM   11  O   UNL     1      45.085 -11.160   6.276  1.00  0.00    -0.265 OA
HETATM   12  H   UNL     1      43.175 -12.606   8.316  1.00  0.00     0.163 HD
BRANCH  10  13
HETATM   13  C   UNL     1      44.752 -10.761   8.584  1.00  0.00     0.142 A 
HETATM   14  O   UNL     1      44.034 -11.129   9.694  1.00  0.00    -0.317 OA
HETATM   15  C   UNL     1      44.431 -10.324  10.713  1.00  0.00     0.143 A 
HETATM   16  C   UNL     1      45.390  -9.437  10.283  1.00  0.00     0.027 A 
HETATM   17  C   UNL     1      45.600  -9.718   8.910  1.00  0.00     0.045 A 
ENDBRANCH  10  13
ENDBRANCH   1   9
BRANCH   1  18
HETATM   18  C   UNL     1      43.480 -14.822   6.529  1.00  0.00     0.240 C 
HETATM   19  N   UNL     1      42.443 -15.711   6.355  1.00  0.00    -0.359 N 
HETATM   20  H   UNL     1      41.595 -15.336   5.941  1.00  0.00     0.162 HD
HETATM   21  O   UNL     1      44.640 -15.199   6.708  1.00  0.00    -0.271 OA
BRANCH  19  22
HETATM   22  C   UNL     1      42.703 -17.133   6.205  1.00  0.00     0.127 C 
BRANCH  22  23
HETATM   23  C   UNL     1      42.998 -17.558   4.763  1.00  0.00     0.058 C 
BRANCH  23  24
HETATM   24  C   UNL     1      42.422 -16.738   3.625  1.00  0.00    -0.054 A 
HETATM   25  C   UNL     1      41.070 -16.384   3.518  1.00  0.00     0.046 A 
HETATM   26  C   UNL     1      40.622 -15.677   2.404  1.00  0.00     0.099 A 
HETATM   27  C   UNL     1      41.511 -15.273   1.416  1.00  0.00     0.098 A 
HETATM   28  C   UNL     1      42.855 -15.588   1.509  1.00  0.00     0.040 A 
HETATM   29  C   UNL     1      43.306 -16.325   2.606  1.00  0.00     0.010 A 
BRANCH  26  30
HETATM   30  O   UNL     1      39.298 -15.372   2.238  1.00  0.00    -0.358 OA
HETATM   31  H   UNL     1      38.793 -16.199   2.349  1.00  0.00     0.218 HD
ENDBRANCH  26  30
BRANCH  27  32
HETATM   32  O   UNL     1      41.060 -14.570   0.337  1.00  0.00    -0.358 OA
HETATM   33  H   UNL     1      41.760 -13.908   0.171  1.00  0.00     0.218 HD
ENDBRANCH  27  32
ENDBRANCH  23  24
ENDBRANCH  22  23
ENDBRANCH  19  22
ENDBRANCH   1  18
TORSDOF 10
ENDMDL
MODEL 6
REMARK VINA RESULT:      -8.4      3.061      7.808
REMARK  10 active torsions:
REMARK  status: ('A' for Active; 'I' for Inactive)
REMARK    1  A    between atoms: C_4  and  C_5 
REMARK    2  A    between atoms: C_5  and  C_6 
REMARK    3  A    between atoms: C_6  and  N_7 
REMARK    4  A    between atoms: C_6  and  C_15 
REMARK       I    between atoms: N_7  and  C_8 
REMARK    5  A    between atoms: C_8  and  C_9 
REMARK       I    between atoms: C_15  and  N_16 
REMARK    6  A    between atoms: N_16  and  C_17 
REMARK    7  A    between atoms: C_17  and  C_18 
REMARK    8  A    between atoms: C_18  and  C_19 
REMARK    9  A    between atoms: C_21  and  O_22 
REMARK   10  A    between atoms: C_23  and  O_24 
ROOT
HETATM    1  C   UNL     1      42.977 -12.905   6.328  1.00  0.00     0.181 C 
ENDROOT
BRANCH   1   2
HETATM    2  C   UNL     1      44.431 -12.388   6.342  1.00  0.00     0.073 C 
BRANCH   2   3
HETATM    3  C   UNL     1      44.694 -11.136   7.151  1.00  0.00    -0.056 A 
HETATM    4  C   UNL     1      45.997 -10.701   7.439  1.00  0.00     0.007 A 
HETATM    5  C   UNL     1      46.216  -9.494   8.106  1.00  0.00     0.001 A 
HETATM    6  C   UNL     1      45.138  -8.693   8.476  1.00  0.00     0.000 A 
HETATM    7  C   UNL     1      43.840  -9.102   8.182  1.00  0.00     0.001 A 
HETATM    8  C   UNL     1      43.619 -10.314   7.524  1.00  0.00     0.007 A 
ENDBRANCH   2   3
ENDBRANCH   1   2
BRANCH   1   9
HETATM    9  N   UNL     1      42.280 -12.738   5.049  1.00  0.00    -0.342 N 
HETATM   10  C   UNL     1      40.929 -12.872   4.839  1.00  0.00     0.276 C 
HETATM   11  O   UNL     1      40.140 -13.033   5.769  1.00  0.00    -0.265 OA
HETATM   12  H   UNL     1      42.848 -12.651   4.213  1.00  0.00     0.163 HD
BRANCH  10  13
HETATM   13  C   UNL     1      40.529 -12.741   3.454  1.00  0.00     0.142 A 
HETATM   14  O   UNL     1      41.474 -12.429   2.508  1.00  0.00    -0.317 OA
HETATM   15  C   UNL     1      40.833 -12.349   1.313  1.00  0.00     0.143 A 
HETATM   16  C   UNL     1      39.490 -12.599   1.467  1.00  0.00     0.027 A 
HETATM   17  C   UNL     1      39.292 -12.854   2.847  1.00  0.00     0.045 A 
ENDBRANCH  10  13
ENDBRANCH   1   9
BRANCH   1  18
HETATM   18  C   UNL     1      42.965 -14.331   6.925  1.00  0.00     0.240 C 
HETATM   19  N   UNL     1      42.585 -15.355   6.087  1.00  0.00    -0.359 N 
HETATM   20  H   UNL     1      42.494 -15.121   5.103  1.00  0.00     0.162 HD
HETATM   21  O   UNL     1      43.418 -14.544   8.051  1.00  0.00    -0.271 OA
BRANCH  19  22
HETATM   22  C   UNL     1      42.863 -16.739   6.434  1.00  0.00     0.127 C 
BRANCH  22  23
HETATM   23  C   UNL     1      44.078 -17.326   5.707  1.00  0.00     0.058 C 
BRANCH  23  24
HETATM   24  C   UNL     1      43.851 -18.304   4.571  1.00  0.00    -0.054 A 
HETATM   25  C   UNL     1      44.091 -19.682   4.662  1.00  0.00     0.046 A 
HETATM   26  C   UNL     1      43.908 -20.495   3.545  1.00  0.00     0.099 A 
HETATM   27  C   UNL     1      43.442 -19.962   2.349  1.00  0.00     0.098 A 
HETATM   28  C   UNL     1      43.173 -18.610   2.240  1.00  0.00     0.040 A 
HETATM   29  C   UNL     1      43.386 -17.783   3.346  1.00  0.00     0.010 A 
BRANCH  26  30
HETATM   30  O   UNL     1      44.195 -21.833   3.582  1.00  0.00    -0.358 OA
HETATM   31  H   UNL     1      43.997 -22.148   4.483  1.00  0.00     0.218 HD
ENDBRANCH  26  30
BRANCH  27  32
HETATM   32  O   UNL     1      43.256 -20.773   1.267  1.00  0.00    -0.358 OA
HETATM   33  H   UNL     1      44.022 -20.583   0.689  1.00  0.00     0.218 HD
ENDBRANCH  27  32
ENDBRANCH  23  24
ENDBRANCH  22  23
ENDBRANCH  19  22
ENDBRANCH   1  18
TORSDOF 10
ENDMDL
MODEL 7
REMARK VINA RESULT:      -8.3      1.914      8.066
REMARK  10 active torsions:
REMARK  status: ('A' for Active; 'I' for Inactive)
REMARK    1  A    between atoms: C_4  and  C_5 
REMARK    2  A    between atoms: C_5  and  C_6 
REMARK    3  A    between atoms: C_6  and  N_7 
REMARK    4  A    between atoms: C_6  and  C_15 
REMARK       I    between atoms: N_7  and  C_8 
REMARK    5  A    between atoms: C_8  and  C_9 
REMARK       I    between atoms: C_15  and  N_16 
REMARK    6  A    between atoms: N_16  and  C_17 
REMARK    7  A    between atoms: C_17  and  C_18 
REMARK    8  A    between atoms: C_18  and  C_19 
REMARK    9  A    between atoms: C_21  and  O_22 
REMARK   10  A    between atoms: C_23  and  O_24 
ROOT
HETATM    1  C   UNL     1      41.402 -15.120   1.486  1.00  0.00     0.181 C 
ENDROOT
BRANCH   1   2
HETATM    2  C   UNL     1      41.114 -16.393   2.308  1.00  0.00     0.073 C 
BRANCH   2   3
HETATM    3  C   UNL     1      42.313 -17.081   2.927  1.00  0.00    -0.056 A 
HETATM    4  C   UNL     1      42.772 -16.756   4.212  1.00  0.00     0.007 A 
HETATM    5  C   UNL     1      43.820 -17.469   4.799  1.00  0.00     0.001 A 
HETATM    6  C   UNL     1      44.411 -18.531   4.118  1.00  0.00     0.000 A 
HETATM    7  C   UNL     1      43.955 -18.878   2.848  1.00  0.00     0.001 A 
HETATM    8  C   UNL     1      42.914 -18.159   2.257  1.00  0.00     0.007 A 
ENDBRANCH   2   3
ENDBRANCH   1   2
BRANCH   1   9
HETATM    9  N   UNL     1      40.509 -14.917   0.340  1.00  0.00    -0.342 N 
HETATM   10  C   UNL     1      40.385 -13.764  -0.397  1.00  0.00     0.276 C 
HETATM   11  O   UNL     1      41.133 -12.802  -0.226  1.00  0.00    -0.265 OA
HETATM   12  H   UNL     1      39.818 -15.635   0.150  1.00  0.00     0.163 HD
BRANCH  10  13
HETATM   13  C   UNL     1      39.359 -13.819  -1.415  1.00  0.00     0.142 A 
HETATM   14  O   UNL     1      38.300 -12.947  -1.350  1.00  0.00    -0.317 OA
HETATM   15  C   UNL     1      37.487 -13.225  -2.403  1.00  0.00     0.143 A 
HETATM   16  C   UNL     1      37.997 -14.262  -3.146  1.00  0.00     0.027 A 
HETATM   17  C   UNL     1      39.205 -14.645  -2.513  1.00  0.00     0.045 A 
ENDBRANCH  10  13
ENDBRANCH   1   9
BRANCH   1  18
HETATM   18  C   UNL     1      41.528 -13.930   2.465  1.00  0.00     0.240 C 
HETATM   19  N   UNL     1      42.689 -13.193   2.405  1.00  0.00    -0.359 N 
HETATM   20  H   UNL     1      43.304 -13.386   1.621  1.00  0.00     0.162 HD
HETATM   21  O   UNL     1      40.569 -13.581   3.155  1.00  0.00    -0.271 OA
BRANCH  19  22
HETATM   22  C   UNL     1      42.766 -11.880   3.024  1.00  0.00     0.127 C 
BRANCH  22  23
HETATM   23  C   UNL     1      44.079 -11.626   3.772  1.00  0.00     0.058 C 
BRANCH  23  24
HETATM   24  C   UNL     1      44.032 -11.348   5.262  1.00  0.00    -0.054 A 
HETATM   25  C   UNL     1      42.886 -10.917   5.944  1.00  0.00     0.046 A 
HETATM   26  C   UNL     1      42.953 -10.630   7.306  1.00  0.00     0.099 A 
HETATM   27  C   UNL     1      44.136 -10.814   8.012  1.00  0.00     0.098 A 
HETATM   28  C   UNL     1      45.275 -11.263   7.368  1.00  0.00     0.040 A 
HETATM   29  C   UNL     1      45.224 -11.521   5.996  1.00  0.00     0.010 A 
BRANCH  26  30
HETATM   30  O   UNL     1      41.870 -10.146   7.988  1.00  0.00    -0.358 OA
HETATM   31  H   UNL     1      41.749  -9.216   7.719  1.00  0.00     0.218 HD
ENDBRANCH  26  30
BRANCH  27  32
HETATM   32  O   UNL     1      44.184 -10.542   9.348  1.00  0.00    -0.358 OA
HETATM   33  H   UNL     1      43.280 -10.741   9.666  1.00  0.00     0.218 HD
ENDBRANCH  27  32
ENDBRANCH  23  24
ENDBRANCH  22  23
ENDBRANCH  19  22
ENDBRANCH   1  18
TORSDOF 10
ENDMDL
MODEL 8
REMARK VINA RESULT:      -8.2      2.087      3.150
REMARK  10 active torsions:
REMARK  status: ('A' for Active; 'I' for Inactive)
REMARK    1  A    between atoms: C_4  and  C_5 
REMARK    2  A    between atoms: C_5  and  C_6 
REMARK    3  A    between atoms: C_6  and  N_7 
REMARK    4  A    between atoms: C_6  and  C_15 
REMARK       I    between atoms: N_7  and  C_8 
REMARK    5  A    between atoms: C_8  and  C_9 
REMARK       I    between atoms: C_15  and  N_16 
REMARK    6  A    between atoms: N_16  and  C_17 
REMARK    7  A    between atoms: C_17  and  C_18 
REMARK    8  A    between atoms: C_18  and  C_19 
REMARK    9  A    between atoms: C_21  and  O_22 
REMARK   10  A    between atoms: C_23  and  O_24 
ROOT
HETATM    1  C   UNL     1      42.669 -12.302   4.062  1.00  0.00     0.181 C 
ENDROOT
BRANCH   1   2
HETATM    2  C   UNL     1      43.425 -13.137   3.006  1.00  0.00     0.073 C 
BRANCH   2   3
HETATM    3  C   UNL     1      43.020 -14.590   2.880  1.00  0.00    -0.056 A 
HETATM    4  C   UNL     1      42.085 -15.176   3.745  1.00  0.00     0.007 A 
HETATM    5  C   UNL     1      41.656 -16.491   3.551  1.00  0.00     0.001 A 
HETATM    6  C   UNL     1      42.141 -17.233   2.477  1.00  0.00     0.000 A 
HETATM    7  C   UNL     1      43.058 -16.660   1.598  1.00  0.00     0.001 A 
HETATM    8  C   UNL     1      43.494 -15.349   1.798  1.00  0.00     0.007 A 
ENDBRANCH   2   3
ENDBRANCH   1   2
BRANCH   1   9
HETATM    9  N   UNL     1      43.518 -11.729   5.112  1.00  0.00    -0.342 N 
HETATM   10  C   UNL     1      43.909 -12.356   6.270  1.00  0.00     0.276 C 
HETATM   11  O   UNL     1      43.670 -13.545   6.476  1.00  0.00    -0.265 OA
HETATM   12  H   UNL     1      43.728 -10.738   5.057  1.00  0.00     0.163 HD
BRANCH  10  13
HETATM   13  C   UNL     1      44.672 -11.518   7.169  1.00  0.00     0.142 A 
HETATM   14  O   UNL     1      44.224 -11.328   8.453  1.00  0.00    -0.317 OA
HETATM   15  C   UNL     1      45.106 -10.495   9.066  1.00  0.00     0.143 A 
HETATM   16  C   UNL     1      46.113 -10.138   8.202  1.00  0.00     0.027 A 
HETATM   17  C   UNL     1      45.837 -10.798   6.979  1.00  0.00     0.045 A 
ENDBRANCH  10  13
ENDBRANCH   1   9
BRANCH   1  18
HETATM   18  C   UNL     1      41.745 -11.309   3.321  1.00  0.00     0.240 C 
HETATM   19  N   UNL     1      42.126 -10.928   2.054  1.00  0.00    -0.359 N 
HETATM   20  H   UNL     1      42.896 -11.445   1.641  1.00  0.00     0.162 HD
HETATM   21  O   UNL     1      40.651 -10.998   3.794  1.00  0.00    -0.271 OA
BRANCH  19  22
HETATM   22  C   UNL     1      41.180 -10.285   1.157  1.00  0.00     0.127 C 
BRANCH  22  23
HETATM   23  C   UNL     1      41.340 -10.700  -0.309  1.00  0.00     0.058 C 
BRANCH  23  24
HETATM   24  C   UNL     1      40.679 -11.979  -0.785  1.00  0.00    -0.054 A 
HETATM   25  C   UNL     1      40.157 -12.161  -2.073  1.00  0.00     0.046 A 
HETATM   26  C   UNL     1      39.514 -13.353  -2.401  1.00  0.00     0.099 A 
HETATM   27  C   UNL     1      39.428 -14.389  -1.479  1.00  0.00     0.098 A 
HETATM   28  C   UNL     1      39.958 -14.245  -0.209  1.00  0.00     0.040 A 
HETATM   29  C   UNL     1      40.574 -13.040   0.138  1.00  0.00     0.010 A 
BRANCH  26  30
HETATM   30  O   UNL     1      38.937 -13.538  -3.628  1.00  0.00    -0.358 OA
HETATM   31  H   UNL     1      37.998 -13.754  -3.478  1.00  0.00     0.218 HD
ENDBRANCH  26  30
BRANCH  27  32
HETATM   32  O   UNL     1      38.807 -15.556  -1.819  1.00  0.00    -0.358 OA
HETATM   33  H   UNL     1      38.048 -15.273  -2.368  1.00  0.00     0.218 HD
ENDBRANCH  27  32
ENDBRANCH  23  24
ENDBRANCH  22  23
ENDBRANCH  19  22
ENDBRANCH   1  18
TORSDOF 10
ENDMDL
MODEL 9
REMARK VINA RESULT:      -8.1      2.016      7.549
REMARK  10 active torsions:
REMARK  status: ('A' for Active; 'I' for Inactive)
REMARK    1  A    between atoms: C_4  and  C_5 
REMARK    2  A    between atoms: C_5  and  C_6 
REMARK    3  A    between atoms: C_6  and  N_7 
REMARK    4  A    between atoms: C_6  and  C_15 
REMARK       I    between atoms: N_7  and  C_8 
REMARK    5  A    between atoms: C_8  and  C_9 
REMARK       I    between atoms: C_15  and  N_16 
REMARK    6  A    between atoms: N_16  and  C_17 
REMARK    7  A    between atoms: C_17  and  C_18 
REMARK    8  A    between atoms: C_18  and  C_19 
REMARK    9  A    between atoms: C_21  and  O_22 
REMARK   10  A    between atoms: C_23  and  O_24 
ROOT
HETATM    1  C   UNL     1      41.091 -15.176   1.726  1.00  0.00     0.181 C 
ENDROOT
BRANCH   1   2
HETATM    2  C   UNL     1      40.912 -16.572   2.359  1.00  0.00     0.073 C 
BRANCH   2   3
HETATM    3  C   UNL     1      42.177 -17.362   2.618  1.00  0.00    -0.056 A 
HETATM    4  C   UNL     1      43.121 -16.956   3.572  1.00  0.00     0.007 A 
HETATM    5  C   UNL     1      44.234 -17.750   3.860  1.00  0.00     0.001 A 
HETATM    6  C   UNL     1      44.407 -18.972   3.214  1.00  0.00     0.000 A 
HETATM    7  C   UNL     1      43.469 -19.398   2.276  1.00  0.00     0.001 A 
HETATM    8  C   UNL     1      42.363 -18.599   1.980  1.00  0.00     0.007 A 
ENDBRANCH   2   3
ENDBRANCH   1   2
BRANCH   1   9
HETATM    9  N   UNL     1      40.330 -14.962   0.490  1.00  0.00    -0.342 N 
HETATM   10  C   UNL     1      40.304 -13.809  -0.256  1.00  0.00     0.276 C 
HETATM   11  O   UNL     1      41.043 -12.858  -0.006  1.00  0.00    -0.265 OA
HETATM   12  H   UNL     1      39.653 -15.671   0.227  1.00  0.00     0.163 HD
BRANCH  10  13
HETATM   13  C   UNL     1      39.393 -13.851  -1.380  1.00  0.00     0.142 A 
HETATM   14  O   UNL     1      38.290 -13.033  -1.381  1.00  0.00    -0.317 OA
HETATM   15  C   UNL     1      37.607 -13.286  -2.528  1.00  0.00     0.143 A 
HETATM   16  C   UNL     1      38.243 -14.254  -3.267  1.00  0.00     0.027 A 
HETATM   17  C   UNL     1      39.396 -14.619  -2.529  1.00  0.00     0.045 A 
ENDBRANCH  10  13
ENDBRANCH   1   9
BRANCH   1  18
HETATM   18  C   UNL     1      40.896 -14.115   2.833  1.00  0.00     0.240 C 
HETATM   19  N   UNL     1      42.025 -13.472   3.288  1.00  0.00    -0.359 N 
HETATM   20  H   UNL     1      42.876 -13.627   2.755  1.00  0.00     0.162 HD
HETATM   21  O   UNL     1      39.765 -13.767   3.177  1.00  0.00    -0.271 OA
BRANCH  19  22
HETATM   22  C   UNL     1      41.920 -12.245   4.060  1.00  0.00     0.127 C 
BRANCH  22  23
HETATM   23  C   UNL     1      41.967 -12.463   5.576  1.00  0.00     0.058 C 
BRANCH  23  24
HETATM   24  C   UNL     1      42.352 -13.830   6.107  1.00  0.00    -0.054 A 
HETATM   25  C   UNL     1      43.674 -14.275   6.244  1.00  0.00     0.046 A 
HETATM   26  C   UNL     1      43.930 -15.571   6.687  1.00  0.00     0.099 A 
HETATM   27  C   UNL     1      42.886 -16.417   7.045  1.00  0.00     0.098 A 
HETATM   28  C   UNL     1      41.573 -15.993   6.944  1.00  0.00     0.040 A 
HETATM   29  C   UNL     1      41.308 -14.707   6.469  1.00  0.00     0.010 A 
BRANCH  26  30
HETATM   30  O   UNL     1      45.206 -16.058   6.770  1.00  0.00    -0.358 OA
HETATM   31  H   UNL     1      45.162 -17.019   6.606  1.00  0.00     0.218 HD
ENDBRANCH  26  30
BRANCH  27  32
HETATM   32  O   UNL     1      43.152 -17.679   7.490  1.00  0.00    -0.358 OA
HETATM   33  H   UNL     1      43.931 -17.959   6.968  1.00  0.00     0.218 HD
ENDBRANCH  27  32
ENDBRANCH  23  24
ENDBRANCH  22  23
ENDBRANCH  19  22
ENDBRANCH   1  18
TORSDOF 10
ENDMDL
MODEL 10
REMARK VINA RESULT:      -8.0      4.473      7.500
REMARK  10 active torsions:
REMARK  status: ('A' for Active; 'I' for Inactive)
REMARK    1  A    between atoms: C_4  and  C_5 
REMARK    2  A    between atoms: C_5  and  C_6 
REMARK    3  A    between atoms: C_6  and  N_7 
REMARK    4  A    between atoms: C_6  and  C_15 
REMARK       I    between atoms: N_7  and  C_8 
REMARK    5  A    between atoms: C_8  and  C_9 
REMARK       I    between atoms: C_15  and  N_16 
REMARK    6  A    between atoms: N_16  and  C_17 
REMARK    7  A    between atoms: C_17  and  C_18 
REMARK    8  A    between atoms: C_18  and  C_19 
REMARK    9  A    between atoms: C_21  and  O_22 
REMARK   10  A    between atoms: C_23  and  O_24 
ROOT
HETATM    1  C   UNL     1      43.397 -12.309   5.990  1.00  0.00     0.181 C 
ENDROOT
BRANCH   1   2
HETATM    2  C   UNL     1      42.375 -11.749   4.979  1.00  0.00     0.073 C 
BRANCH   2   3
HETATM    3  C   UNL     1      41.194 -10.999   5.558  1.00  0.00    -0.056 A 
HETATM    4  C   UNL     1      40.097 -11.668   6.122  1.00  0.00     0.007 A 
HETATM    5  C   UNL     1      39.063 -10.957   6.735  1.00  0.00     0.001 A 
HETATM    6  C   UNL     1      39.121  -9.567   6.812  1.00  0.00     0.000 A 
HETATM    7  C   UNL     1      40.211  -8.889   6.273  1.00  0.00     0.001 A 
HETATM    8  C   UNL     1      41.240  -9.599   5.651  1.00  0.00     0.007 A 
ENDBRANCH   2   3
ENDBRANCH   1   2
BRANCH   1   9
HETATM    9  N   UNL     1      43.461 -11.582   7.262  1.00  0.00    -0.342 N 
HETATM   10  C   UNL     1      44.601 -11.125   7.878  1.00  0.00     0.276 C 
HETATM   11  O   UNL     1      45.701 -11.182   7.331  1.00  0.00    -0.265 OA
HETATM   12  H   UNL     1      42.611 -11.527   7.814  1.00  0.00     0.163 HD
BRANCH  10  13
HETATM   13  C   UNL     1      44.373 -10.521   9.173  1.00  0.00     0.142 A 
HETATM   14  O   UNL     1      44.036 -11.320  10.237  1.00  0.00    -0.317 OA
HETATM   15  C   UNL     1      43.863 -10.505  11.311  1.00  0.00     0.143 A 
HETATM   16  C   UNL     1      44.077  -9.193  10.961  1.00  0.00     0.027 A 
HETATM   17  C   UNL     1      44.408  -9.201   9.583  1.00  0.00     0.045 A 
ENDBRANCH  10  13
ENDBRANCH   1   9
BRANCH   1  18
HETATM   18  C   UNL     1      43.187 -13.837   6.092  1.00  0.00     0.240 C 
HETATM   19  N   UNL     1      42.283 -14.403   5.221  1.00  0.00    -0.359 N 
HETATM   20  H   UNL     1      41.942 -13.804   4.475  1.00  0.00     0.162 HD
HETATM   21  O   UNL     1      43.907 -14.522   6.821  1.00  0.00    -0.271 OA
BRANCH  19  22
HETATM   22  C   UNL     1      42.264 -15.840   5.003  1.00  0.00     0.127 C 
BRANCH  22  23
HETATM   23  C   UNL     1      43.093 -16.292   3.796  1.00  0.00     0.058 C 
BRANCH  23  24
HETATM   24  C   UNL     1      43.406 -17.767   3.633  1.00  0.00    -0.054 A 
HETATM   25  C   UNL     1      43.194 -18.488   2.450  1.00  0.00     0.046 A 
HETATM   26  C   UNL     1      43.456 -19.856   2.412  1.00  0.00     0.099 A 
HETATM   27  C   UNL     1      43.976 -20.509   3.524  1.00  0.00     0.098 A 
HETATM   28  C   UNL     1      44.219 -19.816   4.696  1.00  0.00     0.040 A 
HETATM   29  C   UNL     1      43.926 -18.451   4.752  1.00  0.00     0.010 A 
BRANCH  26  30
HETATM   30  O   UNL     1      43.199 -20.601   1.294  1.00  0.00    -0.358 OA
HETATM   31  H   UNL     1      44.045 -20.722   0.824  1.00  0.00     0.218 HD
ENDBRANCH  26  30
BRANCH  27  32
HETATM   32  O   UNL     1      44.240 -21.847   3.468  1.00  0.00    -0.358 OA
HETATM   33  H   UNL     1      43.514 -22.213   2.924  1.00  0.00     0.218 HD
ENDBRANCH  27  32
ENDBRANCH  23  24
ENDBRANCH  22  23
ENDBRANCH  19  22
ENDBRANCH   1  18
TORSDOF 10
ENDMDL
