MODEL 1
REMARK VINA RESULT:      -9.1      0.000      0.000
REMARK  5 active torsions:
REMARK  status: ('A' for Active; 'I' for Inactive)
REMARK    1  A    between atoms: C_6  and  N_7 
REMARK       I    between atoms: N_7  and  C_8 
REMARK       I    between atoms: C_8  and  N_9 
REMARK    2  A    between atoms: N_9  and  C_10 
REMARK    3  A    between atoms: C_10  and  C_11 
REMARK    4  A    between atoms: C_13  and  N_14 
REMARK       I    between atoms: N_14  and  C_15 
REMARK    5  A    between atoms: C_15  and  C_16 
ROOT
HETATM    1  C   UNL     1      39.847 -12.950   4.722  1.00  0.00    -0.038 A 
HETATM    2  C   UNL     1      39.594 -13.398   3.412  1.00  0.00     0.038 A 
HETATM    3  C   UNL     1      39.206 -12.506   2.407  1.00  0.00     0.035 A 
HETATM    4  C   UNL     1      39.099 -11.145   2.714  1.00  0.00     0.029 A 
HETATM    5  C   UNL     1      39.354 -10.686   4.007  1.00  0.00     0.003 A 
HETATM    6  C   UNL     1      39.722 -11.584   5.007  1.00  0.00     0.009 A 
ENDROOT
BRANCH   1   7
HETATM    7  C   UNL     1      40.307 -13.910   5.790  1.00  0.00     0.163 C 
BRANCH   7   8
HETATM    8  N   UNL     1      41.335 -14.815   5.326  1.00  0.00    -0.339 N 
HETATM    9  C   UNL     1      42.632 -14.550   5.637  1.00  0.00     0.320 C 
HETATM   10  N   UNL     1      43.594 -15.316   5.053  1.00  0.00    -0.309 N 
HETATM   11  O   UNL     1      42.970 -13.617   6.363  1.00  0.00    -0.247 OA
HETATM   12  H   UNL     1      44.507 -14.895   5.179  1.00  0.00     0.170 HD
HETATM   13  H   UNL     1      41.211 -15.187   4.395  1.00  0.00     0.164 HD
BRANCH  10  14
HETATM   14  C   UNL     1      43.561 -16.550   4.381  1.00  0.00     0.037 A 
HETATM   15  C   UNL     1      43.861 -17.779   4.966  1.00  0.00     0.049 A 
HETATM   16  C   UNL     1      43.823 -18.957   4.205  1.00  0.00     0.019 A 
HETATM   17  C   UNL     1      43.491 -18.926   2.842  1.00  0.00    -0.044 A 
HETATM   18 BR   UNL     1      44.264 -20.582   5.088  1.00  0.00    -0.051 Br
HETATM   19  C   UNL     1      43.452 -20.163   1.988  1.00  0.00     0.049 C 
HETATM   20  C   UNL     1      43.221 -17.684   2.255  1.00  0.00     0.010 A 
HETATM   21  C   UNL     1      43.263 -16.511   3.014  1.00  0.00     0.030 A 
ENDBRANCH  10  14
ENDBRANCH   7   8
ENDBRANCH   1   7
BRANCH   3  22
HETATM   22  N   UNL     1      38.921 -12.891   1.085  1.00  0.00    -0.321 N 
HETATM   23  C   UNL     1      39.806 -13.158   0.056  1.00  0.00     0.279 C 
HETATM   24  O   UNL     1      41.030 -13.108   0.138  1.00  0.00    -0.265 OA
HETATM   25  H   UNL     1      37.944 -13.027   0.846  1.00  0.00     0.169 HD
BRANCH  23  26
HETATM   26  C   UNL     1      39.131 -13.532  -1.174  1.00  0.00     0.142 A 
HETATM   27  O   UNL     1      37.950 -12.920  -1.511  1.00  0.00    -0.317 OA
HETATM   28  C   UNL     1      37.548 -13.449  -2.695  1.00  0.00     0.143 A 
HETATM   29  C   UNL     1      38.443 -14.398  -3.129  1.00  0.00     0.027 A 
HETATM   30  C   UNL     1      39.464 -14.452  -2.151  1.00  0.00     0.045 A 
ENDBRANCH  23  26
ENDBRANCH   3  22
TORSDOF 5
ENDMDL
MODEL 2
REMARK VINA RESULT:      -8.9      5.231      9.027
REMARK  5 active torsions:
REMARK  status: ('A' for Active; 'I' for Inactive)
REMARK    1  A    between atoms: C_6  and  N_7 
REMARK       I    between atoms: N_7  and  C_8 
REMARK       I    between atoms: C_8  and  N_9 
REMARK    2  A    between atoms: N_9  and  C_10 
REMARK    3  A    between atoms: C_10  and  C_11 
REMARK    4  A    between atoms: C_13  and  N_14 
REMARK       I    between atoms: N_14  and  C_15 
REMARK    5  A    between atoms: C_15  and  C_16 
ROOT
HETATM    1  C   UNL     1      44.162 -11.184   6.525  1.00  0.00    -0.038 A 
HETATM    2  C   UNL     1      43.592 -10.673   7.707  1.00  0.00     0.038 A 
HETATM    3  C   UNL     1      44.395 -10.204   8.750  1.00  0.00     0.035 A 
HETATM    4  C   UNL     1      45.785 -10.221   8.596  1.00  0.00     0.029 A 
HETATM    5  C   UNL     1      46.364 -10.718   7.427  1.00  0.00     0.003 A 
HETATM    6  C   UNL     1      45.558 -11.201   6.399  1.00  0.00     0.009 A 
ENDROOT
BRANCH   1   7
HETATM    7  C   UNL     1      43.291 -11.648   5.386  1.00  0.00     0.163 C 
BRANCH   7   8
HETATM    8  N   UNL     1      42.968 -13.056   5.464  1.00  0.00    -0.339 N 
HETATM    9  C   UNL     1      41.721 -13.423   5.863  1.00  0.00     0.320 C 
HETATM   10  N   UNL     1      41.490 -14.745   6.090  1.00  0.00    -0.309 N 
HETATM   11  O   UNL     1      40.825 -12.612   6.089  1.00  0.00    -0.247 OA
HETATM   12  H   UNL     1      40.617 -14.872   6.587  1.00  0.00     0.170 HD
HETATM   13  H   UNL     1      43.698 -13.660   5.814  1.00  0.00     0.164 HD
BRANCH  10  14
HETATM   14  C   UNL     1      42.185 -15.915   5.737  1.00  0.00     0.037 A 
HETATM   15  C   UNL     1      42.336 -16.382   4.432  1.00  0.00     0.049 A 
HETATM   16  C   UNL     1      43.028 -17.576   4.181  1.00  0.00     0.019 A 
HETATM   17  C   UNL     1      43.576 -18.328   5.230  1.00  0.00    -0.044 A 
HETATM   18 BR   UNL     1      43.168 -18.139   2.370  1.00  0.00    -0.051 Br
HETATM   19  C   UNL     1      44.313 -19.619   5.006  1.00  0.00     0.049 C 
HETATM   20  C   UNL     1      43.393 -17.868   6.540  1.00  0.00     0.010 A 
HETATM   21  C   UNL     1      42.700 -16.680   6.789  1.00  0.00     0.030 A 
ENDBRANCH  10  14
ENDBRANCH   7   8
ENDBRANCH   1   7
BRANCH   3  22
HETATM   22  N   UNL     1      43.890  -9.699   9.962  1.00  0.00    -0.321 N 
HETATM   23  C   UNL     1      43.729 -10.359  11.168  1.00  0.00     0.279 C 
HETATM   24  O   UNL     1      44.019 -11.531  11.383  1.00  0.00    -0.265 OA
HETATM   25  H   UNL     1      43.637  -8.717   9.983  1.00  0.00     0.169 HD
BRANCH  23  26
HETATM   26  C   UNL     1      43.178  -9.499  12.201  1.00  0.00     0.142 A 
HETATM   27  O   UNL     1      42.247 -10.003  13.074  1.00  0.00    -0.317 OA
HETATM   28  C   UNL     1      41.913  -9.000  13.926  1.00  0.00     0.143 A 
HETATM   29  C   UNL     1      42.605  -7.853  13.618  1.00  0.00     0.027 A 
HETATM   30  C   UNL     1      43.421  -8.173  12.507  1.00  0.00     0.045 A 
ENDBRANCH  23  26
ENDBRANCH   3  22
TORSDOF 5
ENDMDL
MODEL 3
REMARK VINA RESULT:      -8.7      5.121      8.856
REMARK  5 active torsions:
REMARK  status: ('A' for Active; 'I' for Inactive)
REMARK    1  A    between atoms: C_6  and  N_7 
REMARK       I    between atoms: N_7  and  C_8 
REMARK       I    between atoms: C_8  and  N_9 
REMARK    2  A    between atoms: N_9  and  C_10 
REMARK    3  A    between atoms: C_10  and  C_11 
REMARK    4  A    between atoms: C_13  and  N_14 
REMARK       I    between atoms: N_14  and  C_15 
REMARK    5  A    between atoms: C_15  and  C_16 
ROOT
HETATM    1  C   UNL     1      43.887 -10.931   6.224  1.00  0.00    -0.038 A 
HETATM    2  C   UNL     1      43.397 -10.419   7.440  1.00  0.00     0.038 A 
HETATM    3  C   UNL     1      44.245 -10.220   8.533  1.00  0.00     0.035 A 
HETATM    4  C   UNL     1      45.607 -10.511   8.396  1.00  0.00     0.029 A 
HETATM    5  C   UNL     1      46.108 -11.012   7.193  1.00  0.00     0.003 A 
HETATM    6  C   UNL     1      45.253 -11.224   6.114  1.00  0.00     0.009 A 
ENDROOT
BRANCH   1   7
HETATM    7  C   UNL     1      42.976 -11.101   5.036  1.00  0.00     0.163 C 
BRANCH   7   8
HETATM    8  N   UNL     1      42.531 -12.467   4.861  1.00  0.00    -0.339 N 
HETATM    9  C   UNL     1      41.328 -12.837   5.376  1.00  0.00     0.320 C 
HETATM   10  N   UNL     1      41.006 -14.159   5.348  1.00  0.00    -0.309 N 
HETATM   11  O   UNL     1      40.560 -12.045   5.919  1.00  0.00    -0.247 OA
HETATM   12  H   UNL     1      40.209 -14.342   5.946  1.00  0.00     0.170 HD
HETATM   13  H   UNL     1      43.243 -13.179   4.944  1.00  0.00     0.164 HD
BRANCH  10  14
HETATM   14  C   UNL     1      41.521 -15.258   4.639  1.00  0.00     0.037 A 
HETATM   15  C   UNL     1      42.468 -16.150   5.139  1.00  0.00     0.049 A 
HETATM   16  C   UNL     1      42.940 -17.205   4.344  1.00  0.00     0.019 A 
HETATM   17  C   UNL     1      42.477 -17.384   3.032  1.00  0.00    -0.044 A 
HETATM   18 BR   UNL     1      44.243 -18.359   5.109  1.00  0.00    -0.051 Br
HETATM   19  C   UNL     1      42.966 -18.494   2.143  1.00  0.00     0.049 C 
HETATM   20  C   UNL     1      41.548 -16.466   2.527  1.00  0.00     0.010 A 
HETATM   21  C   UNL     1      41.082 -15.413   3.318  1.00  0.00     0.030 A 
ENDBRANCH  10  14
ENDBRANCH   7   8
ENDBRANCH   1   7
BRANCH   3  22
HETATM   22  N   UNL     1      43.816  -9.732   9.780  1.00  0.00    -0.321 N 
HETATM   23  C   UNL     1      43.673 -10.421  10.971  1.00  0.00     0.279 C 
HETATM   24  O   UNL     1      43.913 -11.613  11.138  1.00  0.00    -0.265 OA
HETATM   25  H   UNL     1      43.614  -8.740   9.842  1.00  0.00     0.169 HD
BRANCH  23  26
HETATM   26  C   UNL     1      43.208  -9.570  12.053  1.00  0.00     0.142 A 
HETATM   27  O   UNL     1      42.326 -10.072  12.977  1.00  0.00    -0.317 OA
HETATM   28  C   UNL     1      42.069  -9.078  13.866  1.00  0.00     0.143 A 
HETATM   29  C   UNL     1      42.763  -7.940  13.532  1.00  0.00     0.027 A 
HETATM   30  C   UNL     1      43.498  -8.255  12.365  1.00  0.00     0.045 A 
ENDBRANCH  23  26
ENDBRANCH   3  22
TORSDOF 5
ENDMDL
MODEL 4
REMARK VINA RESULT:      -8.7      5.430      8.460
REMARK  5 active torsions:
REMARK  status: ('A' for Active; 'I' for Inactive)
REMARK    1  A    between atoms: C_6  and  N_7 
REMARK       I    between atoms: N_7  and  C_8 
REMARK       I    between atoms: C_8  and  N_9 
REMARK    2  A    between atoms: N_9  and  C_10 
REMARK    3  A    between atoms: C_10  and  C_11 
REMARK    4  A    between atoms: C_13  and  N_14 
REMARK       I    between atoms: N_14  and  C_15 
REMARK    5  A    between atoms: C_15  and  C_16 
ROOT
HETATM    1  C   UNL     1      42.388 -13.039   5.170  1.00  0.00    -0.038 A 
HETATM    2  C   UNL     1      42.772 -14.226   4.519  1.00  0.00     0.038 A 
HETATM    3  C   UNL     1      42.100 -15.429   4.754  1.00  0.00     0.035 A 
HETATM    4  C   UNL     1      41.010 -15.435   5.632  1.00  0.00     0.029 A 
HETATM    5  C   UNL     1      40.613 -14.263   6.279  1.00  0.00     0.003 A 
HETATM    6  C   UNL     1      41.300 -13.072   6.052  1.00  0.00     0.009 A 
ENDROOT
BRANCH   1   7
HETATM    7  C   UNL     1      43.089 -11.737   4.878  1.00  0.00     0.163 C 
BRANCH   7   8
HETATM    8  N   UNL     1      43.656 -11.128   6.061  1.00  0.00    -0.339 N 
HETATM    9  C   UNL     1      45.005 -10.972   6.138  1.00  0.00     0.320 C 
HETATM   10  N   UNL     1      45.530 -10.554   7.322  1.00  0.00    -0.309 N 
HETATM   11  O   UNL     1      45.765 -11.255   5.213  1.00  0.00    -0.247 OA
HETATM   12  H   UNL     1      46.534 -10.687   7.331  1.00  0.00     0.170 HD
HETATM   13  H   UNL     1      43.229 -11.383   6.940  1.00  0.00     0.164 HD
BRANCH  10  14
HETATM   14  C   UNL     1      44.968  -9.955   8.462  1.00  0.00     0.037 A 
HETATM   15  C   UNL     1      44.298  -8.732   8.466  1.00  0.00     0.049 A 
HETATM   16  C   UNL     1      43.791  -8.203   9.662  1.00  0.00     0.019 A 
HETATM   17  C   UNL     1      43.949  -8.885  10.878  1.00  0.00    -0.044 A 
HETATM   18 BR   UNL     1      42.908  -6.521   9.568  1.00  0.00    -0.051 Br
HETATM   19  C   UNL     1      43.432  -8.347  12.183  1.00  0.00     0.049 C 
HETATM   20  C   UNL     1      44.648 -10.098  10.870  1.00  0.00     0.010 A 
HETATM   21  C   UNL     1      45.156 -10.621   9.678  1.00  0.00     0.030 A 
ENDBRANCH  10  14
ENDBRANCH   7   8
ENDBRANCH   1   7
BRANCH   3  22
HETATM   22  N   UNL     1      42.445 -16.652   4.153  1.00  0.00    -0.321 N 
HETATM   23  C   UNL     1      43.567 -17.432   4.372  1.00  0.00     0.279 C 
HETATM   24  O   UNL     1      44.470 -17.176   5.161  1.00  0.00    -0.265 OA
HETATM   25  H   UNL     1      41.782 -17.045   3.494  1.00  0.00     0.169 HD
BRANCH  23  26
HETATM   26  C   UNL     1      43.572 -18.637   3.561  1.00  0.00     0.142 A 
HETATM   27  O   UNL     1      44.070 -19.803   4.087  1.00  0.00    -0.317 OA
HETATM   28  C   UNL     1      43.948 -20.758   3.129  1.00  0.00     0.143 A 
HETATM   29  C   UNL     1      43.385 -20.232   1.990  1.00  0.00     0.027 A 
HETATM   30  C   UNL     1      43.142 -18.866   2.267  1.00  0.00     0.045 A 
ENDBRANCH  23  26
ENDBRANCH   3  22
TORSDOF 5
ENDMDL
MODEL 5
REMARK VINA RESULT:      -8.2      4.849      8.395
REMARK  5 active torsions:
REMARK  status: ('A' for Active; 'I' for Inactive)
REMARK    1  A    between atoms: C_6  and  N_7 
REMARK       I    between atoms: N_7  and  C_8 
REMARK       I    between atoms: C_8  and  N_9 
REMARK    2  A    between atoms: N_9  and  C_10 
REMARK    3  A    between atoms: C_10  and  C_11 
REMARK    4  A    between atoms: C_13  and  N_14 
REMARK       I    between atoms: N_14  and  C_15 
REMARK    5  A    between atoms: C_15  and  C_16 
ROOT
HETATM    1  C   UNL     1      43.309 -11.819   5.961  1.00  0.00    -0.038 A 
HETATM    2  C   UNL     1      42.962 -11.073   7.103  1.00  0.00     0.038 A 
HETATM    3  C   UNL     1      43.943 -10.564   7.957  1.00  0.00     0.035 A 
HETATM    4  C   UNL     1      45.290 -10.781   7.648  1.00  0.00     0.029 A 
HETATM    5  C   UNL     1      45.649 -11.513   6.514  1.00  0.00     0.003 A 
HETATM    6  C   UNL     1      44.664 -12.033   5.677  1.00  0.00     0.009 A 
ENDROOT
BRANCH   1   7
HETATM    7  C   UNL     1      42.247 -12.328   5.020  1.00  0.00     0.163 C 
BRANCH   7   8
HETATM    8  N   UNL     1      42.587 -13.603   4.426  1.00  0.00    -0.339 N 
HETATM    9  C   UNL     1      42.698 -13.688   3.073  1.00  0.00     0.320 C 
HETATM   10  N   UNL     1      42.852 -14.925   2.526  1.00  0.00    -0.309 N 
HETATM   11  O   UNL     1      42.600 -12.714   2.330  1.00  0.00    -0.247 OA
HETATM   12  H   UNL     1      42.702 -14.891   1.525  1.00  0.00     0.170 HD
HETATM   13  H   UNL     1      42.163 -14.416   4.848  1.00  0.00     0.164 HD
BRANCH  10  14
HETATM   14  C   UNL     1      43.212 -16.174   3.062  1.00  0.00     0.037 A 
HETATM   15  C   UNL     1      43.184 -17.376   2.358  1.00  0.00     0.049 A 
HETATM   16  C   UNL     1      43.539 -18.578   2.987  1.00  0.00     0.019 A 
HETATM   17  C   UNL     1      43.924 -18.600   4.336  1.00  0.00    -0.044 A 
HETATM   18 BR   UNL     1      43.453 -20.167   1.947  1.00  0.00    -0.051 Br
HETATM   19  C   UNL     1      44.299 -19.867   5.053  1.00  0.00     0.049 C 
HETATM   20  C   UNL     1      43.920 -17.393   5.046  1.00  0.00     0.010 A 
HETATM   21  C   UNL     1      43.562 -16.197   4.417  1.00  0.00     0.030 A 
ENDBRANCH  10  14
ENDBRANCH   7   8
ENDBRANCH   1   7
BRANCH   3  22
HETATM   22  N   UNL     1      43.664  -9.828   9.123  1.00  0.00    -0.321 N 
HETATM   23  C   UNL     1      43.642  -8.455   9.289  1.00  0.00     0.279 C 
HETATM   24  O   UNL     1      43.863  -7.627   8.411  1.00  0.00    -0.265 OA
HETATM   25  H   UNL     1      43.411 -10.356   9.951  1.00  0.00     0.169 HD
BRANCH  23  26
HETATM   26  C   UNL     1      43.304  -8.065  10.647  1.00  0.00     0.142 A 
HETATM   27  O   UNL     1      42.568  -6.927  10.861  1.00  0.00    -0.317 OA
HETATM   28  C   UNL     1      42.396  -6.807  12.202  1.00  0.00     0.143 A 
HETATM   29  C   UNL     1      43.012  -7.843  12.863  1.00  0.00     0.027 A 
HETATM   30  C   UNL     1      43.597  -8.655  11.862  1.00  0.00     0.045 A 
ENDBRANCH  23  26
ENDBRANCH   3  22
TORSDOF 5
ENDMDL
MODEL 6
REMARK VINA RESULT:      -8.2      2.173      2.816
REMARK  5 active torsions:
REMARK  status: ('A' for Active; 'I' for Inactive)
REMARK    1  A    between atoms: C_6  and  N_7 
REMARK       I    between atoms: N_7  and  C_8 
REMARK       I    between atoms: C_8  and  N_9 
REMARK    2  A    between atoms: N_9  and  C_10 
REMARK    3  A    between atoms: C_10  and  C_11 
REMARK    4  A    between atoms: C_13  and  N_14 
REMARK       I    between atoms: N_14  and  C_15 
REMARK    5  A    between atoms: C_15  and  C_16 
ROOT
HETATM    1  C   UNL     1      43.071 -12.705   5.829  1.00  0.00    -0.038 A 
HETATM    2  C   UNL     1      42.504 -13.193   4.637  1.00  0.00     0.038 A 
HETATM    3  C   UNL     1      41.950 -12.324   3.694  1.00  0.00     0.035 A 
HETATM    4  C   UNL     1      41.990 -10.946   3.936  1.00  0.00     0.029 A 
HETATM    5  C   UNL     1      42.557 -10.448   5.110  1.00  0.00     0.003 A 
HETATM    6  C   UNL     1      43.091 -11.322   6.054  1.00  0.00     0.009 A 
ENDROOT
BRANCH   1   7
HETATM    7  C   UNL     1      43.706 -13.645   6.823  1.00  0.00     0.163 C 
BRANCH   7   8
HETATM    8  N   UNL     1      43.654 -15.027   6.400  1.00  0.00    -0.339 N 
HETATM    9  C   UNL     1      43.388 -15.987   7.327  1.00  0.00     0.320 C 
HETATM   10  N   UNL     1      43.508 -17.288   6.945  1.00  0.00    -0.309 N 
HETATM   11  O   UNL     1      43.112 -15.730   8.497  1.00  0.00    -0.247 OA
HETATM   12  H   UNL     1      43.507 -17.896   7.755  1.00  0.00     0.170 HD
HETATM   13  H   UNL     1      44.339 -15.308   5.714  1.00  0.00     0.164 HD
BRANCH  10  14
HETATM   14  C   UNL     1      43.583 -17.917   5.691  1.00  0.00     0.037 A 
HETATM   15  C   UNL     1      43.331 -17.287   4.473  1.00  0.00     0.049 A 
HETATM   16  C   UNL     1      43.408 -18.007   3.271  1.00  0.00     0.019 A 
HETATM   17  C   UNL     1      43.732 -19.372   3.266  1.00  0.00    -0.044 A 
HETATM   18 BR   UNL     1      43.031 -17.065   1.663  1.00  0.00    -0.051 Br
HETATM   19  C   UNL     1      43.812 -20.183   2.003  1.00  0.00     0.049 C 
HETATM   20  C   UNL     1      43.954 -20.004   4.495  1.00  0.00     0.010 A 
HETATM   21  C   UNL     1      43.873 -19.286   5.692  1.00  0.00     0.030 A 
ENDBRANCH  10  14
ENDBRANCH   7   8
ENDBRANCH   1   7
BRANCH   3  22
HETATM   22  N   UNL     1      41.351 -12.747   2.494  1.00  0.00    -0.321 N 
HETATM   23  C   UNL     1      40.017 -13.021   2.247  1.00  0.00     0.279 C 
HETATM   24  O   UNL     1      39.108 -12.927   3.065  1.00  0.00    -0.265 OA
HETATM   25  H   UNL     1      41.955 -12.836   1.684  1.00  0.00     0.169 HD
BRANCH  23  26
HETATM   26  C   UNL     1      39.779 -13.430   0.874  1.00  0.00     0.142 A 
HETATM   27  O   UNL     1      39.078 -12.602   0.033  1.00  0.00    -0.317 OA
HETATM   28  C   UNL     1      39.009 -13.221  -1.173  1.00  0.00     0.143 A 
HETATM   29  C   UNL     1      39.648 -14.438  -1.129  1.00  0.00     0.027 A 
HETATM   30  C   UNL     1      40.145 -14.574   0.189  1.00  0.00     0.045 A 
ENDBRANCH  23  26
ENDBRANCH   3  22
TORSDOF 5
ENDMDL
MODEL 7
REMARK VINA RESULT:      -7.8      4.724      8.266
REMARK  5 active torsions:
REMARK  status: ('A' for Active; 'I' for Inactive)
REMARK    1  A    between atoms: C_6  and  N_7 
REMARK       I    between atoms: N_7  and  C_8 
REMARK       I    between atoms: C_8  and  N_9 
REMARK    2  A    between atoms: N_9  and  C_10 
REMARK    3  A    between atoms: C_10  and  C_11 
REMARK    4  A    between atoms: C_13  and  N_14 
REMARK       I    between atoms: N_14  and  C_15 
REMARK    5  A    between atoms: C_15  and  C_16 
ROOT
HETATM    1  C   UNL     1      40.705 -12.880   5.048  1.00  0.00    -0.038 A 
HETATM    2  C   UNL     1      40.989 -14.220   4.723  1.00  0.00     0.038 A 
HETATM    3  C   UNL     1      42.126 -14.558   3.985  1.00  0.00     0.035 A 
HETATM    4  C   UNL     1      43.006 -13.543   3.593  1.00  0.00     0.029 A 
HETATM    5  C   UNL     1      42.743 -12.211   3.915  1.00  0.00     0.003 A 
HETATM    6  C   UNL     1      41.596 -11.880   4.635  1.00  0.00     0.009 A 
ENDROOT
BRANCH   1   7
HETATM    7  C   UNL     1      39.500 -12.526   5.880  1.00  0.00     0.163 C 
BRANCH   7   8
HETATM    8  N   UNL     1      39.794 -11.552   6.909  1.00  0.00    -0.339 N 
HETATM    9  C   UNL     1      39.122 -10.370   6.906  1.00  0.00     0.320 C 
HETATM   10  N   UNL     1      39.530  -9.406   7.775  1.00  0.00    -0.309 N 
HETATM   11  O   UNL     1      38.217 -10.117   6.114  1.00  0.00    -0.247 OA
HETATM   12  H   UNL     1      39.116  -8.513   7.535  1.00  0.00     0.170 HD
HETATM   13  H   UNL     1      40.766 -11.464   7.171  1.00  0.00     0.164 HD
BRANCH  10  14
HETATM   14  C   UNL     1      40.345  -9.428   8.920  1.00  0.00     0.037 A 
HETATM   15  C   UNL     1      41.734  -9.312   8.907  1.00  0.00     0.049 A 
HETATM   16  C   UNL     1      42.464  -9.370  10.103  1.00  0.00     0.019 A 
HETATM   17  C   UNL     1      41.819  -9.552  11.335  1.00  0.00    -0.044 A 
HETATM   18 BR   UNL     1      44.356  -9.218   9.980  1.00  0.00    -0.051 Br
HETATM   19  C   UNL     1      42.564  -9.633  12.638  1.00  0.00     0.049 C 
HETATM   20  C   UNL     1      40.426  -9.698  11.337  1.00  0.00     0.010 A 
HETATM   21  C   UNL     1      39.701  -9.644  10.144  1.00  0.00     0.030 A 
ENDBRANCH  10  14
ENDBRANCH   7   8
ENDBRANCH   1   7
BRANCH   3  22
HETATM   22  N   UNL     1      42.457 -15.873   3.611  1.00  0.00    -0.321 N 
HETATM   23  C   UNL     1      43.370 -16.731   4.198  1.00  0.00     0.279 C 
HETATM   24  O   UNL     1      44.059 -16.475   5.181  1.00  0.00    -0.265 OA
HETATM   25  H   UNL     1      41.945 -16.273   2.832  1.00  0.00     0.169 HD
BRANCH  23  26
HETATM   26  C   UNL     1      43.432 -18.018   3.529  1.00  0.00     0.142 A 
HETATM   27  O   UNL     1      43.982 -19.094   4.181  1.00  0.00    -0.317 OA
HETATM   28  C   UNL     1      43.906 -20.155   3.337  1.00  0.00     0.143 A 
HETATM   29  C   UNL     1      43.322 -19.787   2.148  1.00  0.00     0.027 A 
HETATM   30  C   UNL     1      43.016 -18.410   2.270  1.00  0.00     0.045 A 
ENDBRANCH  23  26
ENDBRANCH   3  22
TORSDOF 5
ENDMDL
MODEL 8
REMARK VINA RESULT:      -7.7      3.248      7.335
REMARK  5 active torsions:
REMARK  status: ('A' for Active; 'I' for Inactive)
REMARK    1  A    between atoms: C_6  and  N_7 
REMARK       I    between atoms: N_7  and  C_8 
REMARK       I    between atoms: C_8  and  N_9 
REMARK    2  A    between atoms: N_9  and  C_10 
REMARK    3  A    between atoms: C_10  and  C_11 
REMARK    4  A    between atoms: C_13  and  N_14 
REMARK       I    between atoms: N_14  and  C_15 
REMARK    5  A    between atoms: C_15  and  C_16 
ROOT
HETATM    1  C   UNL     1      41.307 -13.468   5.211  1.00  0.00    -0.038 A 
HETATM    2  C   UNL     1      41.848 -14.561   4.510  1.00  0.00     0.038 A 
HETATM    3  C   UNL     1      41.544 -15.875   4.876  1.00  0.00     0.035 A 
HETATM    4  C   UNL     1      40.663 -16.095   5.941  1.00  0.00     0.029 A 
HETATM    5  C   UNL     1      40.112 -15.020   6.641  1.00  0.00     0.003 A 
HETATM    6  C   UNL     1      40.435 -13.714   6.281  1.00  0.00     0.009 A 
ENDROOT
BRANCH   1   7
HETATM    7  C   UNL     1      41.604 -12.053   4.784  1.00  0.00     0.163 C 
BRANCH   7   8
HETATM    8  N   UNL     1      41.301 -11.813   3.390  1.00  0.00    -0.339 N 
HETATM    9  C   UNL     1      42.245 -11.228   2.604  1.00  0.00     0.320 C 
HETATM   10  N   UNL     1      41.883 -10.859   1.345  1.00  0.00    -0.309 N 
HETATM   11  O   UNL     1      43.377 -10.964   3.003  1.00  0.00    -0.247 OA
HETATM   12  H   UNL     1      42.581 -10.247   0.941  1.00  0.00     0.170 HD
HETATM   13  H   UNL     1      40.360 -11.506   3.187  1.00  0.00     0.164 HD
BRANCH  10  14
HETATM   14  C   UNL     1      40.793 -11.194   0.523  1.00  0.00     0.037 A 
HETATM   15  C   UNL     1      40.619 -12.430  -0.098  1.00  0.00     0.049 A 
HETATM   16  C   UNL     1      39.507 -12.662  -0.921  1.00  0.00     0.019 A 
HETATM   17  C   UNL     1      38.551 -11.659  -1.143  1.00  0.00    -0.044 A 
HETATM   18 BR   UNL     1      39.366 -14.373  -1.737  1.00  0.00    -0.051 Br
HETATM   19  C   UNL     1      37.353 -11.861  -2.028  1.00  0.00     0.049 C 
HETATM   20  C   UNL     1      38.748 -10.411  -0.540  1.00  0.00     0.010 A 
HETATM   21  C   UNL     1      39.859 -10.181   0.277  1.00  0.00     0.030 A 
ENDBRANCH  10  14
ENDBRANCH   7   8
ENDBRANCH   1   7
BRANCH   3  22
HETATM   22  N   UNL     1      42.066 -17.010   4.230  1.00  0.00    -0.321 N 
HETATM   23  C   UNL     1      43.347 -17.528   4.301  1.00  0.00     0.279 C 
HETATM   24  O   UNL     1      44.266 -17.065   4.970  1.00  0.00    -0.265 OA
HETATM   25  H   UNL     1      41.425 -17.553   3.661  1.00  0.00     0.169 HD
BRANCH  23  26
HETATM   26  C   UNL     1      43.509 -18.723   3.492  1.00  0.00     0.142 A 
HETATM   27  O   UNL     1      44.007 -19.866   4.067  1.00  0.00    -0.317 OA
HETATM   28  C   UNL     1      44.046 -20.817   3.098  1.00  0.00     0.143 A 
HETATM   29  C   UNL     1      43.588 -20.310   1.905  1.00  0.00     0.027 A 
HETATM   30  C   UNL     1      43.241 -18.962   2.157  1.00  0.00     0.045 A 
ENDBRANCH  23  26
ENDBRANCH   3  22
TORSDOF 5
ENDMDL
MODEL 9
REMARK VINA RESULT:      -7.7      5.485      8.742
REMARK  5 active torsions:
REMARK  status: ('A' for Active; 'I' for Inactive)
REMARK    1  A    between atoms: C_6  and  N_7 
REMARK       I    between atoms: N_7  and  C_8 
REMARK       I    between atoms: C_8  and  N_9 
REMARK    2  A    between atoms: N_9  and  C_10 
REMARK    3  A    between atoms: C_10  and  C_11 
REMARK    4  A    between atoms: C_13  and  N_14 
REMARK       I    between atoms: N_14  and  C_15 
REMARK    5  A    between atoms: C_15  and  C_16 
ROOT
HETATM    1  C   UNL     1      42.636 -11.857   6.056  1.00  0.00    -0.038 A 
HETATM    2  C   UNL     1      43.109 -13.094   5.580  1.00  0.00     0.038 A 
HETATM    3  C   UNL     1      42.225 -14.113   5.216  1.00  0.00     0.035 A 
HETATM    4  C   UNL     1      40.849 -13.879   5.303  1.00  0.00     0.029 A 
HETATM    5  C   UNL     1      40.364 -12.654   5.766  1.00  0.00     0.003 A 
HETATM    6  C   UNL     1      41.253 -11.650   6.144  1.00  0.00     0.009 A 
ENDROOT
BRANCH   1   7
HETATM    7  C   UNL     1      43.593 -10.746   6.405  1.00  0.00     0.163 C 
BRANCH   7   8
HETATM    8  N   UNL     1      43.497 -10.337   7.789  1.00  0.00    -0.339 N 
HETATM    9  C   UNL     1      44.527 -10.620   8.631  1.00  0.00     0.320 C 
HETATM   10  N   UNL     1      44.346 -10.377   9.958  1.00  0.00    -0.309 N 
HETATM   11  O   UNL     1      45.575 -11.141   8.255  1.00  0.00    -0.247 OA
HETATM   12  H   UNL     1      45.075 -10.824  10.502  1.00  0.00     0.170 HD
HETATM   13  H   UNL     1      42.587 -10.432   8.217  1.00  0.00     0.164 HD
BRANCH  10  14
HETATM   14  C   UNL     1      43.407  -9.617  10.676  1.00  0.00     0.037 A 
HETATM   15  C   UNL     1      42.348 -10.151  11.408  1.00  0.00     0.049 A 
HETATM   16  C   UNL     1      41.447  -9.308  12.074  1.00  0.00     0.019 A 
HETATM   17  C   UNL     1      41.584  -7.913  12.014  1.00  0.00    -0.044 A 
HETATM   18 BR   UNL     1      40.025 -10.131  13.032  1.00  0.00    -0.051 Br
HETATM   19  C   UNL     1      40.632  -6.974  12.702  1.00  0.00     0.049 C 
HETATM   20  C   UNL     1      42.632  -7.383  11.252  1.00  0.00     0.010 A 
HETATM   21  C   UNL     1      43.527  -8.225  10.586  1.00  0.00     0.030 A 
ENDBRANCH  10  14
ENDBRANCH   7   8
ENDBRANCH   1   7
BRANCH   3  22
HETATM   22  N   UNL     1      42.633 -15.377   4.753  1.00  0.00    -0.321 N 
HETATM   23  C   UNL     1      43.071 -15.729   3.488  1.00  0.00     0.279 C 
HETATM   24  O   UNL     1      43.186 -14.966   2.535  1.00  0.00    -0.265 OA
HETATM   25  H   UNL     1      42.646 -16.134   5.428  1.00  0.00     0.169 HD
BRANCH  23  26
HETATM   26  C   UNL     1      43.411 -17.139   3.391  1.00  0.00     0.142 A 
HETATM   27  O   UNL     1      44.113 -17.736   4.408  1.00  0.00    -0.317 OA
HETATM   28  C   UNL     1      44.286 -19.038   4.064  1.00  0.00     0.143 A 
HETATM   29  C   UNL     1      43.714 -19.295   2.840  1.00  0.00     0.027 A 
HETATM   30  C   UNL     1      43.149 -18.072   2.406  1.00  0.00     0.045 A 
ENDBRANCH  23  26
ENDBRANCH   3  22
TORSDOF 5
ENDMDL
MODEL 10
REMARK VINA RESULT:      -7.7      3.347      7.261
REMARK  5 active torsions:
REMARK  status: ('A' for Active; 'I' for Inactive)
REMARK    1  A    between atoms: C_6  and  N_7 
REMARK       I    between atoms: N_7  and  C_8 
REMARK       I    between atoms: C_8  and  N_9 
REMARK    2  A    between atoms: N_9  and  C_10 
REMARK    3  A    between atoms: C_10  and  C_11 
REMARK    4  A    between atoms: C_13  and  N_14 
REMARK       I    between atoms: N_14  and  C_15 
REMARK    5  A    between atoms: C_15  and  C_16 
ROOT
HETATM    1  C   UNL     1      41.502 -13.502   5.227  1.00  0.00    -0.038 A 
HETATM    2  C   UNL     1      41.710 -14.812   4.755  1.00  0.00     0.038 A 
HETATM    3  C   UNL     1      42.788 -15.578   5.205  1.00  0.00     0.035 A 
HETATM    4  C   UNL     1      43.653 -15.035   6.161  1.00  0.00     0.029 A 
HETATM    5  C   UNL     1      43.455 -13.741   6.644  1.00  0.00     0.003 A 
HETATM    6  C   UNL     1      42.388 -12.976   6.177  1.00  0.00     0.009 A 
ENDROOT
BRANCH   1   7
HETATM    7  C   UNL     1      40.313 -12.696   4.771  1.00  0.00     0.163 C 
BRANCH   7   8
HETATM    8  N   UNL     1      40.219 -12.600   3.331  1.00  0.00    -0.339 N 
HETATM    9  C   UNL     1      40.773 -11.524   2.708  1.00  0.00     0.320 C 
HETATM   10  N   UNL     1      40.530 -11.367   1.378  1.00  0.00    -0.309 N 
HETATM   11  O   UNL     1      41.420 -10.665   3.303  1.00  0.00    -0.247 OA
HETATM   12  H   UNL     1      40.797 -10.438   1.076  1.00  0.00     0.170 HD
HETATM   13  H   UNL     1      39.345 -12.897   2.922  1.00  0.00     0.164 HD
BRANCH  10  14
HETATM   14  C   UNL     1      40.044 -12.232   0.382  1.00  0.00     0.037 A 
HETATM   15  C   UNL     1      39.009 -11.923  -0.500  1.00  0.00     0.049 A 
HETATM   16  C   UNL     1      38.578 -12.864  -1.447  1.00  0.00     0.019 A 
HETATM   17  C   UNL     1      39.169 -14.134  -1.525  1.00  0.00    -0.044 A 
HETATM   18 BR   UNL     1      37.149 -12.355  -2.594  1.00  0.00    -0.051 Br
HETATM   19  C   UNL     1      38.728 -15.175  -2.516  1.00  0.00     0.049 C 
HETATM   20  C   UNL     1      40.187 -14.447  -0.616  1.00  0.00     0.010 A 
HETATM   21  C   UNL     1      40.613 -13.510   0.329  1.00  0.00     0.030 A 
ENDBRANCH  10  14
ENDBRANCH   7   8
ENDBRANCH   1   7
BRANCH   3  22
HETATM   22  N   UNL     1      43.063 -16.884   4.760  1.00  0.00    -0.321 N 
HETATM   23  C   UNL     1      43.394 -17.306   3.484  1.00  0.00     0.279 C 
HETATM   24  O   UNL     1      43.514 -16.580   2.502  1.00  0.00    -0.265 OA
HETATM   25  H   UNL     1      43.054 -17.620   5.457  1.00  0.00     0.169 HD
BRANCH  23  26
HETATM   26  C   UNL     1      43.612 -18.740   3.413  1.00  0.00     0.142 A 
HETATM   27  O   UNL     1      43.921 -19.435   4.556  1.00  0.00    -0.317 OA
HETATM   28  C   UNL     1      44.063 -20.739   4.206  1.00  0.00     0.143 A 
HETATM   29  C   UNL     1      43.857 -20.902   2.856  1.00  0.00     0.027 A 
HETATM   30  C   UNL     1      43.566 -19.616   2.344  1.00  0.00     0.045 A 
ENDBRANCH  23  26
ENDBRANCH   3  22
TORSDOF 5
ENDMDL
