MODEL 1
REMARK VINA RESULT:      -9.3      0.000      0.000
REMARK  4 active torsions:
REMARK  status: ('A' for Active; 'I' for Inactive)
REMARK    1  A    between atoms: C_4  and  C_5 
REMARK    2  A    between atoms: C_8  and  C_9 
REMARK    3  A    between atoms: C_9  and  N_10 
REMARK    4  A    between atoms: N_10  and  C_11 
ROOT
HETATM    1  C   UNL     1      42.902 -12.379   2.872  1.00  0.00     0.158 C 
ENDROOT
BRANCH   1   2
HETATM    2  C   UNL     1      43.007 -13.880   2.959  1.00  0.00    -0.041 A 
HETATM    3  C   UNL     1      43.283 -14.644   1.820  1.00  0.00     0.009 A 
HETATM    4  C   UNL     1      43.428 -16.032   1.914  1.00  0.00     0.013 A 
HETATM    5  C   UNL     1      43.297 -16.697   3.145  1.00  0.00    -0.026 A 
HETATM    6  C   UNL     1      42.980 -15.924   4.273  1.00  0.00     0.013 A 
HETATM    7  C   UNL     1      42.830 -14.536   4.183  1.00  0.00     0.009 A 
BRANCH   5   8
HETATM    8  C   UNL     1      43.514 -18.152   3.253  1.00  0.00    -0.026 A 
HETATM    9  C   UNL     1      43.989 -18.724   4.447  1.00  0.00     0.012 A 
HETATM   10  C   UNL     1      44.178 -20.104   4.565  1.00  0.00     0.001 A 
HETATM   11  C   UNL     1      43.894 -20.940   3.488  1.00  0.00     0.000 A 
HETATM   12  C   UNL     1      43.424 -20.397   2.296  1.00  0.00     0.001 A 
HETATM   13  C   UNL     1      43.237 -19.016   2.180  1.00  0.00     0.012 A 
ENDBRANCH   5   8
ENDBRANCH   1   2
BRANCH   1  14
HETATM   14  N   UNL     1      43.909 -11.758   3.718  1.00  0.00    -0.384 N 
HETATM   15  H   UNL     1      44.793 -12.267   3.657  1.00  0.00     0.160 HD
BRANCH  14  16
HETATM   16  C   UNL     1      43.630 -11.288   4.998  1.00  0.00     0.060 A 
HETATM   17  C   UNL     1      44.528 -11.075   6.055  1.00  0.00     0.106 A 
HETATM   18  C   UNL     1      44.118 -10.665   7.316  1.00  0.00     0.158 A 
HETATM   19  N   UNL     1      45.892 -11.187   6.206  1.00  0.00    -0.346 N 
HETATM   20  N   UNL     1      45.149 -10.512   8.188  1.00  0.00    -0.224 NA
HETATM   21  N   UNL     1      42.787 -10.469   7.571  1.00  0.00    -0.349 N 
HETATM   22  C   UNL     1      46.214 -10.837   7.490  1.00  0.00     0.210 A 
HETATM   23  H   UNL     1      42.527 -10.173   8.509  1.00  0.00     0.167 HD
HETATM   24  C   UNL     1      41.882 -10.684   6.620  1.00  0.00     0.092 A 
HETATM   25  C   UNL     1      42.277 -11.096   5.350  1.00  0.00     0.048 A 
HETATM   26  H   UNL     1      46.559 -11.478   5.504  1.00  0.00     0.167 HD
ENDBRANCH  14  16
ENDBRANCH   1  14
TORSDOF 4
ENDMDL
MODEL 2
REMARK VINA RESULT:      -9.1      1.495      2.508
REMARK  4 active torsions:
REMARK  status: ('A' for Active; 'I' for Inactive)
REMARK    1  A    between atoms: C_4  and  C_5 
REMARK    2  A    between atoms: C_8  and  C_9 
REMARK    3  A    between atoms: C_9  and  N_10 
REMARK    4  A    between atoms: N_10  and  C_11 
ROOT
HETATM    1  C   UNL     1      42.416 -12.747   5.451  1.00  0.00     0.158 C 
ENDROOT
BRANCH   1   2
HETATM    2  C   UNL     1      42.762 -14.157   5.045  1.00  0.00    -0.041 A 
HETATM    3  C   UNL     1      43.014 -15.137   6.012  1.00  0.00     0.009 A 
HETATM    4  C   UNL     1      43.287 -16.455   5.631  1.00  0.00     0.013 A 
HETATM    5  C   UNL     1      43.320 -16.832   4.279  1.00  0.00    -0.026 A 
HETATM    6  C   UNL     1      43.105 -15.831   3.317  1.00  0.00     0.013 A 
HETATM    7  C   UNL     1      42.836 -14.510   3.693  1.00  0.00     0.009 A 
BRANCH   5   8
HETATM    8  C   UNL     1      43.543 -18.235   3.882  1.00  0.00    -0.026 A 
HETATM    9  C   UNL     1      43.952 -19.195   4.825  1.00  0.00     0.012 A 
HETATM   10  C   UNL     1      44.147 -20.531   4.461  1.00  0.00     0.001 A 
HETATM   11  C   UNL     1      43.935 -20.933   3.146  1.00  0.00     0.000 A 
HETATM   12  C   UNL     1      43.531 -20.000   2.195  1.00  0.00     0.001 A 
HETATM   13  C   UNL     1      43.338 -18.664   2.560  1.00  0.00     0.012 A 
ENDBRANCH   5   8
ENDBRANCH   1   2
BRANCH   1  14
HETATM   14  N   UNL     1      42.809 -12.514   6.833  1.00  0.00    -0.384 N 
HETATM   15  H   UNL     1      41.999 -12.250   7.397  1.00  0.00     0.160 HD
BRANCH  14  16
HETATM   16  C   UNL     1      43.970 -11.829   7.179  1.00  0.00     0.060 A 
HETATM   17  C   UNL     1      44.225 -11.098   8.348  1.00  0.00     0.106 A 
HETATM   18  C   UNL     1      45.405 -10.396   8.552  1.00  0.00     0.158 A 
HETATM   19  N   UNL     1      43.522 -10.842   9.505  1.00  0.00    -0.346 N 
HETATM   20  N   UNL     1      45.448  -9.764   9.754  1.00  0.00    -0.224 NA
HETATM   21  N   UNL     1      46.370 -10.387   7.581  1.00  0.00    -0.349 N 
HETATM   22  C   UNL     1      44.293 -10.048  10.312  1.00  0.00     0.210 A 
HETATM   23  H   UNL     1      47.219  -9.858   7.766  1.00  0.00     0.167 HD
HETATM   24  C   UNL     1      46.177 -11.037   6.436  1.00  0.00     0.092 A 
HETATM   25  C   UNL     1      44.998 -11.744   6.216  1.00  0.00     0.048 A 
HETATM   26  H   UNL     1      42.595 -11.170   9.737  1.00  0.00     0.167 HD
ENDBRANCH  14  16
ENDBRANCH   1  14
TORSDOF 4
ENDMDL
MODEL 3
REMARK VINA RESULT:      -9.1      4.243      6.657
REMARK  4 active torsions:
REMARK  status: ('A' for Active; 'I' for Inactive)
REMARK    1  A    between atoms: C_4  and  C_5 
REMARK    2  A    between atoms: C_8  and  C_9 
REMARK    3  A    between atoms: C_9  and  N_10 
REMARK    4  A    between atoms: N_10  and  C_11 
ROOT
HETATM    1  C   UNL     1      41.493 -12.828   1.872  1.00  0.00     0.158 C 
ENDROOT
BRANCH   1   2
HETATM    2  C   UNL     1      41.999 -14.200   2.235  1.00  0.00    -0.041 A 
HETATM    3  C   UNL     1      41.471 -14.889   3.333  1.00  0.00     0.009 A 
HETATM    4  C   UNL     1      41.909 -16.183   3.636  1.00  0.00     0.013 A 
HETATM    5  C   UNL     1      42.887 -16.823   2.858  1.00  0.00    -0.026 A 
HETATM    6  C   UNL     1      43.438 -16.106   1.783  1.00  0.00     0.013 A 
HETATM    7  C   UNL     1      43.006 -14.810   1.479  1.00  0.00     0.009 A 
BRANCH   5   8
HETATM    8  C   UNL     1      43.301 -18.210   3.141  1.00  0.00    -0.026 A 
HETATM    9  C   UNL     1      43.820 -18.567   4.398  1.00  0.00     0.012 A 
HETATM   10  C   UNL     1      44.196 -19.883   4.681  1.00  0.00     0.001 A 
HETATM   11  C   UNL     1      44.057 -20.871   3.709  1.00  0.00     0.000 A 
HETATM   12  C   UNL     1      43.546 -20.542   2.457  1.00  0.00     0.001 A 
HETATM   13  C   UNL     1      43.172 -19.224   2.176  1.00  0.00     0.012 A 
ENDBRANCH   5   8
ENDBRANCH   1   2
BRANCH   1  14
HETATM   14  N   UNL     1      40.297 -12.937   1.050  1.00  0.00    -0.384 N 
HETATM   15  H   UNL     1      39.729 -13.733   1.347  1.00  0.00     0.160 HD
BRANCH  14  16
HETATM   16  C   UNL     1      40.314 -12.754  -0.329  1.00  0.00     0.060 A 
HETATM   17  C   UNL     1      39.740 -13.570  -1.315  1.00  0.00     0.106 A 
HETATM   18  C   UNL     1      39.883 -13.319  -2.673  1.00  0.00     0.158 A 
HETATM   19  N   UNL     1      38.977 -14.716  -1.302  1.00  0.00    -0.346 N 
HETATM   20  N   UNL     1      39.241 -14.227  -3.453  1.00  0.00    -0.224 NA
HETATM   21  N   UNL     1      40.623 -12.247  -3.095  1.00  0.00    -0.349 N 
HETATM   22  C   UNL     1      38.702 -15.066  -2.598  1.00  0.00     0.210 A 
HETATM   23  H   UNL     1      40.707 -12.099  -4.097  1.00  0.00     0.167 HD
HETATM   24  C   UNL     1      41.218 -11.452  -2.210  1.00  0.00     0.092 A 
HETATM   25  C   UNL     1      41.086 -11.691  -0.844  1.00  0.00     0.048 A 
HETATM   26  H   UNL     1      38.666 -15.230  -0.489  1.00  0.00     0.167 HD
ENDBRANCH  14  16
ENDBRANCH   1  14
TORSDOF 4
ENDMDL
MODEL 4
REMARK VINA RESULT:      -8.9      4.790      7.003
REMARK  4 active torsions:
REMARK  status: ('A' for Active; 'I' for Inactive)
REMARK    1  A    between atoms: C_4  and  C_5 
REMARK    2  A    between atoms: C_8  and  C_9 
REMARK    3  A    between atoms: C_9  and  N_10 
REMARK    4  A    between atoms: N_10  and  C_11 
ROOT
HETATM    1  C   UNL     1      40.978 -13.133   1.038  1.00  0.00     0.158 C 
ENDROOT
BRANCH   1   2
HETATM    2  C   UNL     1      41.543 -14.460   1.473  1.00  0.00    -0.041 A 
HETATM    3  C   UNL     1      42.927 -14.666   1.522  1.00  0.00     0.009 A 
HETATM    4  C   UNL     1      43.448 -15.884   1.973  1.00  0.00     0.013 A 
HETATM    5  C   UNL     1      42.605 -16.931   2.382  1.00  0.00    -0.026 A 
HETATM    6  C   UNL     1      41.218 -16.727   2.289  1.00  0.00     0.013 A 
HETATM    7  C   UNL     1      40.693 -15.512   1.834  1.00  0.00     0.009 A 
BRANCH   5   8
HETATM    8  C   UNL     1      43.156 -18.190   2.917  1.00  0.00    -0.026 A 
HETATM    9  C   UNL     1      43.694 -18.248   4.216  1.00  0.00     0.012 A 
HETATM   10  C   UNL     1      44.200 -19.442   4.738  1.00  0.00     0.001 A 
HETATM   11  C   UNL     1      44.176 -20.603   3.970  1.00  0.00     0.000 A 
HETATM   12  C   UNL     1      43.650 -20.570   2.683  1.00  0.00     0.001 A 
HETATM   13  C   UNL     1      43.146 -19.374   2.161  1.00  0.00     0.012 A 
ENDBRANCH   5   8
ENDBRANCH   1   2
BRANCH   1  14
HETATM   14  N   UNL     1      41.027 -13.020  -0.412  1.00  0.00    -0.384 N 
HETATM   15  H   UNL     1      41.564 -12.196  -0.690  1.00  0.00     0.160 HD
BRANCH  14  16
HETATM   16  C   UNL     1      39.921 -13.258  -1.223  1.00  0.00     0.060 A 
HETATM   17  C   UNL     1      38.859 -12.388  -1.512  1.00  0.00     0.106 A 
HETATM   18  C   UNL     1      37.770 -12.766  -2.285  1.00  0.00     0.158 A 
HETATM   19  N   UNL     1      38.556 -11.085  -1.184  1.00  0.00    -0.346 N 
HETATM   20  N   UNL     1      36.861 -11.769  -2.448  1.00  0.00    -0.224 NA
HETATM   21  N   UNL     1      37.696 -14.038  -2.785  1.00  0.00    -0.349 N 
HETATM   22  C   UNL     1      37.360 -10.761  -1.768  1.00  0.00     0.210 A 
HETATM   23  H   UNL     1      36.880 -14.277  -3.343  1.00  0.00     0.167 HD
HETATM   24  C   UNL     1      38.656 -14.921  -2.521  1.00  0.00     0.092 A 
HETATM   25  C   UNL     1      39.754 -14.558  -1.746  1.00  0.00     0.048 A 
HETATM   26  H   UNL     1      39.105 -10.460  -0.611  1.00  0.00     0.167 HD
ENDBRANCH  14  16
ENDBRANCH   1  14
TORSDOF 4
ENDMDL
MODEL 5
REMARK VINA RESULT:      -8.8      0.820      2.169
REMARK  4 active torsions:
REMARK  status: ('A' for Active; 'I' for Inactive)
REMARK    1  A    between atoms: C_4  and  C_5 
REMARK    2  A    between atoms: C_8  and  C_9 
REMARK    3  A    between atoms: C_9  and  N_10 
REMARK    4  A    between atoms: N_10  and  C_11 
ROOT
HETATM    1  C   UNL     1      42.934 -12.277   3.059  1.00  0.00     0.158 C 
ENDROOT
BRANCH   1   2
HETATM    2  C   UNL     1      43.017 -13.782   3.104  1.00  0.00    -0.041 A 
HETATM    3  C   UNL     1      43.293 -14.516   1.945  1.00  0.00     0.009 A 
HETATM    4  C   UNL     1      43.418 -15.909   2.000  1.00  0.00     0.013 A 
HETATM    5  C   UNL     1      43.267 -16.607   3.210  1.00  0.00    -0.026 A 
HETATM    6  C   UNL     1      42.951 -15.863   4.358  1.00  0.00     0.013 A 
HETATM    7  C   UNL     1      42.820 -14.470   4.306  1.00  0.00     0.009 A 
BRANCH   5   8
HETATM    8  C   UNL     1      43.463 -18.067   3.278  1.00  0.00    -0.026 A 
HETATM    9  C   UNL     1      43.155 -18.889   2.179  1.00  0.00     0.012 A 
HETATM   10  C   UNL     1      43.356 -20.272   2.228  1.00  0.00     0.001 A 
HETATM   11  C   UNL     1      43.872 -20.859   3.380  1.00  0.00     0.000 A 
HETATM   12  C   UNL     1      44.183 -20.067   4.481  1.00  0.00     0.001 A 
HETATM   13  C   UNL     1      43.980 -18.684   4.430  1.00  0.00     0.012 A 
ENDBRANCH   5   8
ENDBRANCH   1   2
BRANCH   1  14
HETATM   14  N   UNL     1      44.039 -11.694   3.804  1.00  0.00    -0.384 N 
HETATM   15  H   UNL     1      44.921 -12.139   3.545  1.00  0.00     0.160 HD
BRANCH  14  16
HETATM   16  C   UNL     1      43.953 -11.385   5.159  1.00  0.00     0.060 A 
HETATM   17  C   UNL     1      42.933 -10.688   5.822  1.00  0.00     0.106 A 
HETATM   18  C   UNL     1      42.992 -10.380   7.175  1.00  0.00     0.158 A 
HETATM   19  N   UNL     1      41.727 -10.142   5.444  1.00  0.00    -0.346 N 
HETATM   20  N   UNL     1      41.897  -9.709   7.616  1.00  0.00    -0.224 NA
HETATM   21  N   UNL     1      44.087 -10.746   7.910  1.00  0.00    -0.349 N 
HETATM   22  C   UNL     1      41.146  -9.574   6.547  1.00  0.00     0.210 A 
HETATM   23  H   UNL     1      44.095 -10.498   8.897  1.00  0.00     0.167 HD
HETATM   24  C   UNL     1      45.103 -11.382   7.333  1.00  0.00     0.092 A 
HETATM   25  C   UNL     1      45.059 -11.698   5.977  1.00  0.00     0.048 A 
HETATM   26  H   UNL     1      41.323 -10.144   4.517  1.00  0.00     0.167 HD
ENDBRANCH  14  16
ENDBRANCH   1  14
TORSDOF 4
ENDMDL
MODEL 6
REMARK VINA RESULT:      -8.4      4.527      7.834
REMARK  4 active torsions:
REMARK  status: ('A' for Active; 'I' for Inactive)
REMARK    1  A    between atoms: C_4  and  C_5 
REMARK    2  A    between atoms: C_8  and  C_9 
REMARK    3  A    between atoms: C_9  and  N_10 
REMARK    4  A    between atoms: N_10  and  C_11 
ROOT
HETATM    1  C   UNL     1      42.364 -15.892   4.535  1.00  0.00     0.158 C 
ENDROOT
BRANCH   1   2
HETATM    2  C   UNL     1      41.748 -15.424   3.242  1.00  0.00    -0.041 A 
HETATM    3  C   UNL     1      42.266 -14.315   2.564  1.00  0.00     0.009 A 
HETATM    4  C   UNL     1      41.720 -13.914   1.339  1.00  0.00     0.013 A 
HETATM    5  C   UNL     1      40.643 -14.603   0.760  1.00  0.00    -0.026 A 
HETATM    6  C   UNL     1      40.106 -15.690   1.470  1.00  0.00     0.013 A 
HETATM    7  C   UNL     1      40.645 -16.092   2.697  1.00  0.00     0.009 A 
BRANCH   5   8
HETATM    8  C   UNL     1      40.112 -14.218  -0.561  1.00  0.00    -0.026 A 
HETATM    9  C   UNL     1      40.399 -12.958  -1.116  1.00  0.00     0.012 A 
HETATM   10  C   UNL     1      39.916 -12.593  -2.376  1.00  0.00     0.001 A 
HETATM   11  C   UNL     1      39.136 -13.484  -3.107  1.00  0.00     0.000 A 
HETATM   12  C   UNL     1      38.837 -14.736  -2.579  1.00  0.00     0.001 A 
HETATM   13  C   UNL     1      39.320 -15.099  -1.317  1.00  0.00     0.012 A 
ENDBRANCH   5   8
ENDBRANCH   1   2
BRANCH   1  14
HETATM   14  N   UNL     1      43.591 -16.627   4.266  1.00  0.00    -0.384 N 
HETATM   15  H   UNL     1      44.001 -16.328   3.379  1.00  0.00     0.160 HD
BRANCH  14  16
HETATM   16  C   UNL     1      43.716 -17.993   4.500  1.00  0.00     0.060 A 
HETATM   17  C   UNL     1      43.762 -19.030   3.557  1.00  0.00     0.106 A 
HETATM   18  C   UNL     1      43.820 -20.370   3.917  1.00  0.00     0.158 A 
HETATM   19  N   UNL     1      43.754 -19.090   2.181  1.00  0.00    -0.346 N 
HETATM   20  N   UNL     1      43.865 -21.207   2.848  1.00  0.00    -0.224 NA
HETATM   21  N   UNL     1      43.817 -20.721   5.240  1.00  0.00    -0.349 N 
HETATM   22  C   UNL     1      43.821 -20.406   1.807  1.00  0.00     0.210 A 
HETATM   23  H   UNL     1      43.856 -21.713   5.463  1.00  0.00     0.167 HD
HETATM   24  C   UNL     1      43.744 -19.786   6.184  1.00  0.00     0.092 A 
HETATM   25  C   UNL     1      43.684 -18.438   5.839  1.00  0.00     0.048 A 
HETATM   26  H   UNL     1      43.704 -18.311   1.539  1.00  0.00     0.167 HD
ENDBRANCH  14  16
ENDBRANCH   1  14
TORSDOF 4
ENDMDL
MODEL 7
REMARK VINA RESULT:      -8.4      4.820      6.995
REMARK  4 active torsions:
REMARK  status: ('A' for Active; 'I' for Inactive)
REMARK    1  A    between atoms: C_4  and  C_5 
REMARK    2  A    between atoms: C_8  and  C_9 
REMARK    3  A    between atoms: C_9  and  N_10 
REMARK    4  A    between atoms: N_10  and  C_11 
ROOT
HETATM    1  C   UNL     1      40.939 -13.269   0.907  1.00  0.00     0.158 C 
ENDROOT
BRANCH   1   2
HETATM    2  C   UNL     1      41.515 -14.579   1.381  1.00  0.00    -0.041 A 
HETATM    3  C   UNL     1      42.901 -14.764   1.454  1.00  0.00     0.009 A 
HETATM    4  C   UNL     1      43.431 -15.964   1.940  1.00  0.00     0.013 A 
HETATM    5  C   UNL     1      42.597 -17.013   2.362  1.00  0.00    -0.026 A 
HETATM    6  C   UNL     1      41.210 -16.830   2.245  1.00  0.00     0.013 A 
HETATM    7  C   UNL     1      40.675 -15.633   1.755  1.00  0.00     0.009 A 
BRANCH   5   8
HETATM    8  C   UNL     1      43.157 -18.251   2.934  1.00  0.00    -0.026 A 
HETATM    9  C   UNL     1      43.200 -19.439   2.182  1.00  0.00     0.012 A 
HETATM   10  C   UNL     1      43.747 -20.612   2.710  1.00  0.00     0.001 A 
HETATM   11  C   UNL     1      44.265 -20.619   4.002  1.00  0.00     0.000 A 
HETATM   12  C   UNL     1      44.234 -19.456   4.766  1.00  0.00     0.001 A 
HETATM   13  C   UNL     1      43.684 -18.283   4.236  1.00  0.00     0.012 A 
ENDBRANCH   5   8
ENDBRANCH   1   2
BRANCH   1  14
HETATM   14  N   UNL     1      41.343 -13.013  -0.467  1.00  0.00    -0.384 N 
HETATM   15  H   UNL     1      42.345 -12.819  -0.516  1.00  0.00     0.160 HD
BRANCH  14  16
HETATM   16  C   UNL     1      40.587 -12.238  -1.342  1.00  0.00     0.060 A 
HETATM   17  C   UNL     1      39.279 -12.471  -1.790  1.00  0.00     0.106 A 
HETATM   18  C   UNL     1      38.650 -11.657  -2.723  1.00  0.00     0.158 A 
HETATM   19  N   UNL     1      38.319 -13.424  -1.530  1.00  0.00    -0.346 N 
HETATM   20  N   UNL     1      37.383 -12.057  -3.011  1.00  0.00    -0.224 NA
HETATM   21  N   UNL     1      39.317 -10.586  -3.254  1.00  0.00    -0.349 N 
HETATM   22  C   UNL     1      37.208 -13.132  -2.276  1.00  0.00     0.210 A 
HETATM   23  H   UNL     1      38.823 -10.016  -3.937  1.00  0.00     0.167 HD
HETATM   24  C   UNL     1      40.571 -10.329  -2.893  1.00  0.00     0.092 A 
HETATM   25  C   UNL     1      41.216 -11.137  -1.960  1.00  0.00     0.048 A 
HETATM   26  H   UNL     1      38.400 -14.213  -0.903  1.00  0.00     0.167 HD
ENDBRANCH  14  16
ENDBRANCH   1  14
TORSDOF 4
ENDMDL
MODEL 8
REMARK VINA RESULT:      -8.3      3.394      5.211
REMARK  4 active torsions:
REMARK  status: ('A' for Active; 'I' for Inactive)
REMARK    1  A    between atoms: C_4  and  C_5 
REMARK    2  A    between atoms: C_8  and  C_9 
REMARK    3  A    between atoms: C_9  and  N_10 
REMARK    4  A    between atoms: N_10  and  C_11 
ROOT
HETATM    1  C   UNL     1      42.483 -12.452   2.834  1.00  0.00     0.158 C 
ENDROOT
BRANCH   1   2
HETATM    2  C   UNL     1      42.797 -13.921   2.956  1.00  0.00    -0.041 A 
HETATM    3  C   UNL     1      42.786 -14.553   4.205  1.00  0.00     0.009 A 
HETATM    4  C   UNL     1      43.031 -15.926   4.308  1.00  0.00     0.013 A 
HETATM    5  C   UNL     1      43.297 -16.707   3.171  1.00  0.00    -0.026 A 
HETATM    6  C   UNL     1      43.346 -16.054   1.928  1.00  0.00     0.013 A 
HETATM    7  C   UNL     1      43.106 -14.679   1.821  1.00  0.00     0.009 A 
BRANCH   5   8
HETATM    8  C   UNL     1      43.491 -18.165   3.274  1.00  0.00    -0.026 A 
HETATM    9  C   UNL     1      43.211 -19.010   2.185  1.00  0.00     0.012 A 
HETATM   10  C   UNL     1      43.410 -20.391   2.268  1.00  0.00     0.001 A 
HETATM   11  C   UNL     1      43.896 -20.954   3.444  1.00  0.00     0.000 A 
HETATM   12  C   UNL     1      44.179 -20.140   4.536  1.00  0.00     0.001 A 
HETATM   13  C   UNL     1      43.977 -18.758   4.452  1.00  0.00     0.012 A 
ENDBRANCH   5   8
ENDBRANCH   1   2
BRANCH   1  14
HETATM   14  N   UNL     1      41.478 -12.240   1.803  1.00  0.00    -0.384 N 
HETATM   15  H   UNL     1      41.912 -11.900   0.943  1.00  0.00     0.160 HD
BRANCH  14  16
HETATM   16  C   UNL     1      40.242 -11.657   2.066  1.00  0.00     0.060 A 
HETATM   17  C   UNL     1      39.139 -11.548   1.208  1.00  0.00     0.106 A 
HETATM   18  C   UNL     1      37.975 -10.879   1.563  1.00  0.00     0.158 A 
HETATM   19  N   UNL     1      38.859 -11.975  -0.072  1.00  0.00    -0.346 N 
HETATM   20  N   UNL     1      37.029 -10.901   0.588  1.00  0.00    -0.224 NA
HETATM   21  N   UNL     1      37.881 -10.277   2.789  1.00  0.00    -0.349 N 
HETATM   22  C   UNL     1      37.591 -11.570  -0.394  1.00  0.00     0.210 A 
HETATM   23  H   UNL     1      37.014  -9.793   3.010  1.00  0.00     0.167 HD
HETATM   24  C   UNL     1      38.905 -10.317   3.637  1.00  0.00     0.092 A 
HETATM   25  C   UNL     1      40.079 -10.984   3.296  1.00  0.00     0.048 A 
HETATM   26  H   UNL     1      39.471 -12.496  -0.686  1.00  0.00     0.167 HD
ENDBRANCH  14  16
ENDBRANCH   1  14
TORSDOF 4
ENDMDL
MODEL 9
REMARK VINA RESULT:      -8.2      1.503      2.262
REMARK  4 active torsions:
REMARK  status: ('A' for Active; 'I' for Inactive)
REMARK    1  A    between atoms: C_4  and  C_5 
REMARK    2  A    between atoms: C_8  and  C_9 
REMARK    3  A    between atoms: C_9  and  N_10 
REMARK    4  A    between atoms: N_10  and  C_11 
ROOT
HETATM    1  C   UNL     1      41.212 -12.974   1.440  1.00  0.00     0.158 C 
ENDROOT
BRANCH   1   2
HETATM    2  C   UNL     1      41.729 -14.314   1.899  1.00  0.00    -0.041 A 
HETATM    3  C   UNL     1      40.867 -15.252   2.479  1.00  0.00     0.009 A 
HETATM    4  C   UNL     1      41.341 -16.512   2.858  1.00  0.00     0.013 A 
HETATM    5  C   UNL     1      42.686 -16.871   2.674  1.00  0.00    -0.026 A 
HETATM    6  C   UNL     1      43.550 -15.908   2.129  1.00  0.00     0.013 A 
HETATM    7  C   UNL     1      43.081 -14.644   1.752  1.00  0.00     0.009 A 
BRANCH   5   8
HETATM    8  C   UNL     1      43.169 -18.222   3.015  1.00  0.00    -0.026 A 
HETATM    9  C   UNL     1      43.088 -19.274   2.085  1.00  0.00     0.012 A 
HETATM   10  C   UNL     1      43.561 -20.553   2.393  1.00  0.00     0.001 A 
HETATM   11  C   UNL     1      44.128 -20.804   3.639  1.00  0.00     0.000 A 
HETATM   12  C   UNL     1      44.219 -19.779   4.576  1.00  0.00     0.001 A 
HETATM   13  C   UNL     1      43.743 -18.501   4.267  1.00  0.00     0.012 A 
ENDBRANCH   5   8
ENDBRANCH   1   2
BRANCH   1  14
HETATM   14  N   UNL     1      41.811 -11.911   2.233  1.00  0.00    -0.384 N 
HETATM   15  H   UNL     1      42.774 -11.740   1.936  1.00  0.00     0.160 HD
BRANCH  14  16
HETATM   16  C   UNL     1      41.631 -11.806   3.609  1.00  0.00     0.060 A 
HETATM   17  C   UNL     1      42.615 -11.695   4.602  1.00  0.00     0.106 A 
HETATM   18  C   UNL     1      42.312 -11.666   5.957  1.00  0.00     0.158 A 
HETATM   19  N   UNL     1      43.989 -11.605   4.601  1.00  0.00    -0.346 N 
HETATM   20  N   UNL     1      43.413 -11.546   6.746  1.00  0.00    -0.224 NA
HETATM   21  N   UNL     1      41.010 -11.765   6.368  1.00  0.00    -0.349 N 
HETATM   22  C   UNL     1      44.417 -11.514   5.899  1.00  0.00     0.210 A 
HETATM   23  H   UNL     1      40.831 -11.744   7.369  1.00  0.00     0.167 HD
HETATM   24  C   UNL     1      40.033 -11.903   5.476  1.00  0.00     0.092 A 
HETATM   25  C   UNL     1      40.320 -11.935   4.114  1.00  0.00     0.048 A 
HETATM   26  H   UNL     1      44.597 -11.607   3.793  1.00  0.00     0.167 HD
ENDBRANCH  14  16
ENDBRANCH   1  14
TORSDOF 4
ENDMDL
MODEL 10
REMARK VINA RESULT:      -8.1      3.100      4.934
REMARK  4 active torsions:
REMARK  status: ('A' for Active; 'I' for Inactive)
REMARK    1  A    between atoms: C_4  and  C_5 
REMARK    2  A    between atoms: C_8  and  C_9 
REMARK    3  A    between atoms: C_9  and  N_10 
REMARK    4  A    between atoms: N_10  and  C_11 
ROOT
HETATM    1  C   UNL     1      42.469 -12.441   3.260  1.00  0.00     0.158 C 
ENDROOT
BRANCH   1   2
HETATM    2  C   UNL     1      42.792 -13.912   3.299  1.00  0.00    -0.041 A 
HETATM    3  C   UNL     1      42.700 -14.632   4.496  1.00  0.00     0.009 A 
HETATM    4  C   UNL     1      42.954 -16.008   4.518  1.00  0.00     0.013 A 
HETATM    5  C   UNL     1      43.309 -16.703   3.351  1.00  0.00    -0.026 A 
HETATM    6  C   UNL     1      43.437 -15.963   2.164  1.00  0.00     0.013 A 
HETATM    7  C   UNL     1      43.189 -14.585   2.139  1.00  0.00     0.009 A 
BRANCH   5   8
HETATM    8  C   UNL     1      43.512 -18.164   3.364  1.00  0.00    -0.026 A 
HETATM    9  C   UNL     1      43.945 -18.822   4.529  1.00  0.00     0.012 A 
HETATM   10  C   UNL     1      44.122 -20.208   4.555  1.00  0.00     0.001 A 
HETATM   11  C   UNL     1      43.866 -20.965   3.414  1.00  0.00     0.000 A 
HETATM   12  C   UNL     1      43.437 -20.336   2.249  1.00  0.00     0.001 A 
HETATM   13  C   UNL     1      43.263 -18.948   2.224  1.00  0.00     0.012 A 
ENDBRANCH   5   8
ENDBRANCH   1   2
BRANCH   1  14
HETATM   14  N   UNL     1      42.189 -12.027   1.893  1.00  0.00    -0.384 N 
HETATM   15  H   UNL     1      42.759 -11.219   1.639  1.00  0.00     0.160 HD
BRANCH  14  16
HETATM   16  C   UNL     1      40.900 -11.980   1.371  1.00  0.00     0.060 A 
HETATM   17  C   UNL     1      39.813 -11.216   1.823  1.00  0.00     0.106 A 
HETATM   18  C   UNL     1      38.548 -11.306   1.259  1.00  0.00     0.158 A 
HETATM   19  N   UNL     1      39.632 -10.280   2.817  1.00  0.00    -0.346 N 
HETATM   20  N   UNL     1      37.645 -10.474   1.841  1.00  0.00    -0.224 NA
HETATM   21  N   UNL     1      38.320 -12.179   0.229  1.00  0.00    -0.349 N 
HETATM   22  C   UNL     1      38.327  -9.865   2.785  1.00  0.00     0.210 A 
HETATM   23  H   UNL     1      37.379 -12.218  -0.154  1.00  0.00     0.167 HD
HETATM   24  C   UNL     1      39.302 -12.953  -0.225  1.00  0.00     0.092 A 
HETATM   25  C   UNL     1      40.576 -12.877   0.331  1.00  0.00     0.048 A 
HETATM   26  H   UNL     1      40.327  -9.946   3.471  1.00  0.00     0.167 HD
ENDBRANCH  14  16
ENDBRANCH   1  14
TORSDOF 4
ENDMDL
