MODEL 1
REMARK VINA RESULT:      -8.9      0.000      0.000
REMARK  8 active torsions:
REMARK  status: ('A' for Active; 'I' for Inactive)
REMARK    1  A    between atoms: C_4  and  O_5 
REMARK    2  A    between atoms: O_5  and  C_6 
REMARK    3  A    between atoms: C_6  and  C_7 
REMARK       I    between atoms: C_7  and  N_8 
REMARK    4  A    between atoms: N_8  and  C_9 
REMARK    5  A    between atoms: C_9  and  N_10 
REMARK    6  A    between atoms: N_10  and  C_11 
REMARK    7  A    between atoms: C_14  and  N_15 
REMARK    8  A    between atoms: N_18  and  C_19 
ROOT
HETATM    1  C   UNL     1      40.805  -9.795   5.814  1.00  0.00     0.034 A 
HETATM    2  C   UNL     1      40.168 -10.871   6.438  1.00  0.00     0.031 A 
HETATM    3  C   UNL     1      40.397 -12.193   6.024  1.00  0.00     0.026 A 
HETATM    4  C   UNL     1      41.261 -12.489   4.964  1.00  0.00     0.010 A 
HETATM    5  C   UNL     1      41.824 -11.389   4.298  1.00  0.00     0.026 A 
HETATM    6  C   UNL     1      41.612 -10.064   4.718  1.00  0.00     0.031 A 
ENDROOT
BRANCH   4   7
HETATM    7  N   UNL     1      41.548 -13.799   4.534  1.00  0.00    -0.280 NA
HETATM    8  C   UNL     1      40.939 -14.919   5.294  1.00  0.00     0.115 C 
HETATM    9  C   UNL     1      41.197 -16.284   4.610  1.00  0.00     0.138 C 
HETATM   10  N   UNL     1      42.647 -16.499   4.392  1.00  0.00    -0.374 N 
HETATM   11  C   UNL     1      43.243 -15.394   3.596  1.00  0.00     0.138 C 
HETATM   12  C   UNL     1      42.998 -14.028   4.276  1.00  0.00     0.115 C 
BRANCH  10  13
HETATM   13  C   UNL     1      43.110 -17.786   4.055  1.00  0.00     0.115 A 
HETATM   14  C   UNL     1      43.040 -18.341   2.760  1.00  0.00     0.187 A 
HETATM   15  F   UNL     1      42.555 -17.626   1.733  1.00  0.00    -0.200 F 
HETATM   16  C   UNL     1      43.490 -19.634   2.486  1.00  0.00     0.199 A 
HETATM   17  F   UNL     1      43.411 -20.114   1.236  1.00  0.00    -0.199 F 
HETATM   18  C   UNL     1      44.018 -20.421   3.493  1.00  0.00     0.199 A 
HETATM   19  F   UNL     1      44.449 -21.661   3.224  1.00  0.00    -0.199 F 
HETATM   20  C   UNL     1      44.094 -19.922   4.780  1.00  0.00     0.199 A 
HETATM   21  F   UNL     1      44.593 -20.682   5.765  1.00  0.00    -0.199 F 
HETATM   22  C   UNL     1      43.643 -18.632   5.056  1.00  0.00     0.187 A 
HETATM   23  F   UNL     1      43.696 -18.211   6.331  1.00  0.00    -0.200 F 
ENDBRANCH  10  13
ENDBRANCH   4   7
BRANCH   1  24
HETATM   24  N   UNL     1      40.547  -8.519   6.353  1.00  0.00    -0.333 N 
HETATM   25  H   UNL     1      40.423  -7.792   5.647  1.00  0.00     0.168 HD
BRANCH  24  26
HETATM   26  C   UNL     1      40.309  -8.070   7.633  1.00  0.00     0.178 C 
HETATM   27  S   UNL     1      39.052  -7.144   8.226  1.00  0.00    -0.040 SA
BRANCH  26  28
HETATM   28  N   UNL     1      41.298  -8.401   8.548  1.00  0.00    -0.302 N 
HETATM   29  C   UNL     1      42.612  -7.957   8.618  1.00  0.00     0.248 C 
HETATM   30  O   UNL     1      43.146  -7.265   7.752  1.00  0.00    -0.271 OA
HETATM   31  H   UNL     1      40.965  -8.954   9.332  1.00  0.00     0.171 HD
BRANCH  29  32
HETATM   32  C   UNL     1      43.358  -8.433   9.858  1.00  0.00     0.278 C 
BRANCH  32  33
HETATM   33  O   UNL     1      43.579  -9.838   9.875  1.00  0.00    -0.342 OA
BRANCH  33  34
HETATM   34  C   UNL     1      44.276 -10.359   8.817  1.00  0.00     0.069 A 
HETATM   35  C   UNL     1      43.759 -11.222   7.849  1.00  0.00     0.037 A 
HETATM   36  C   UNL     1      44.571 -11.668   6.801  1.00  0.00     0.003 A 
HETATM   37  C   UNL     1      45.899 -11.255   6.716  1.00  0.00     0.000 A 
HETATM   38  C   UNL     1      46.415 -10.387   7.675  1.00  0.00     0.003 A 
HETATM   39  C   UNL     1      45.603  -9.934   8.716  1.00  0.00     0.037 A 
ENDBRANCH  33  34
ENDBRANCH  32  33
ENDBRANCH  29  32
ENDBRANCH  26  28
ENDBRANCH  24  26
ENDBRANCH   1  24
TORSDOF 8
ENDMDL
MODEL 2
REMARK VINA RESULT:      -8.7      0.693      2.003
REMARK  8 active torsions:
REMARK  status: ('A' for Active; 'I' for Inactive)
REMARK    1  A    between atoms: C_4  and  O_5 
REMARK    2  A    between atoms: O_5  and  C_6 
REMARK    3  A    between atoms: C_6  and  C_7 
REMARK       I    between atoms: C_7  and  N_8 
REMARK    4  A    between atoms: N_8  and  C_9 
REMARK    5  A    between atoms: C_9  and  N_10 
REMARK    6  A    between atoms: N_10  and  C_11 
REMARK    7  A    between atoms: C_14  and  N_15 
REMARK    8  A    between atoms: N_18  and  C_19 
ROOT
HETATM    1  C   UNL     1      40.528  -9.810   5.600  1.00  0.00     0.034 A 
HETATM    2  C   UNL     1      39.715 -10.823   6.117  1.00  0.00     0.031 A 
HETATM    3  C   UNL     1      40.106 -12.170   6.061  1.00  0.00     0.026 A 
HETATM    4  C   UNL     1      41.317 -12.557   5.478  1.00  0.00     0.010 A 
HETATM    5  C   UNL     1      42.077 -11.533   4.890  1.00  0.00     0.026 A 
HETATM    6  C   UNL     1      41.699 -10.181   4.957  1.00  0.00     0.031 A 
ENDROOT
BRANCH   4   7
HETATM    7  N   UNL     1      41.767 -13.891   5.427  1.00  0.00    -0.280 NA
HETATM    8  C   UNL     1      43.226 -14.116   5.265  1.00  0.00     0.115 C 
HETATM    9  C   UNL     1      43.594 -15.613   5.400  1.00  0.00     0.138 C 
HETATM   10  N   UNL     1      42.807 -16.438   4.452  1.00  0.00    -0.374 N 
HETATM   11  C   UNL     1      41.347 -16.238   4.646  1.00  0.00     0.138 C 
HETATM   12  C   UNL     1      40.969 -14.746   4.504  1.00  0.00     0.115 C 
BRANCH  10  13
HETATM   13  C   UNL     1      43.195 -17.771   4.211  1.00  0.00     0.115 A 
HETATM   14  C   UNL     1      43.630 -18.664   5.213  1.00  0.00     0.187 A 
HETATM   15  F   UNL     1      43.652 -18.290   6.502  1.00  0.00    -0.200 F 
HETATM   16  C   UNL     1      44.029 -19.968   4.916  1.00  0.00     0.199 A 
HETATM   17  F   UNL     1      44.426 -20.783   5.904  1.00  0.00    -0.199 F 
HETATM   18  C   UNL     1      44.015 -20.426   3.611  1.00  0.00     0.199 A 
HETATM   19  F   UNL     1      44.397 -21.679   3.331  1.00  0.00    -0.199 F 
HETATM   20  C   UNL     1      43.607 -19.580   2.596  1.00  0.00     0.199 A 
HETATM   21  F   UNL     1      43.601 -20.011   1.326  1.00  0.00    -0.199 F 
HETATM   22  C   UNL     1      43.211 -18.276   2.890  1.00  0.00     0.187 A 
HETATM   23  F   UNL     1      42.868 -17.480   1.863  1.00  0.00    -0.200 F 
ENDBRANCH  10  13
ENDBRANCH   4   7
BRANCH   1  24
HETATM   24  N   UNL     1      40.062  -8.490   5.767  1.00  0.00    -0.333 N 
HETATM   25  H   UNL     1      39.587  -8.115   4.945  1.00  0.00     0.168 HD
BRANCH  24  26
HETATM   26  C   UNL     1      40.009  -7.642   6.850  1.00  0.00     0.178 C 
HETATM   27  S   UNL     1      39.089  -6.269   7.090  1.00  0.00    -0.040 SA
BRANCH  26  28
HETATM   28  N   UNL     1      40.897  -7.958   7.868  1.00  0.00    -0.302 N 
HETATM   29  C   UNL     1      42.168  -7.453   8.110  1.00  0.00     0.248 C 
HETATM   30  O   UNL     1      42.764  -6.703   7.338  1.00  0.00    -0.271 OA
HETATM   31  H   UNL     1      40.503  -8.556   8.588  1.00  0.00     0.171 HD
BRANCH  29  32
HETATM   32  C   UNL     1      42.785  -7.937   9.416  1.00  0.00     0.278 C 
BRANCH  32  33
HETATM   33  O   UNL     1      42.955  -9.349   9.467  1.00  0.00    -0.342 OA
BRANCH  33  34
HETATM   34  C   UNL     1      43.983  -9.866   8.722  1.00  0.00     0.069 A 
HETATM   35  C   UNL     1      43.913 -11.010   7.924  1.00  0.00     0.037 A 
HETATM   36  C   UNL     1      45.031 -11.424   7.192  1.00  0.00     0.003 A 
HETATM   37  C   UNL     1      46.219 -10.699   7.253  1.00  0.00     0.000 A 
HETATM   38  C   UNL     1      46.289  -9.552   8.041  1.00  0.00     0.003 A 
HETATM   39  C   UNL     1      45.171  -9.133   8.765  1.00  0.00     0.037 A 
ENDBRANCH  33  34
ENDBRANCH  32  33
ENDBRANCH  29  32
ENDBRANCH  26  28
ENDBRANCH  24  26
ENDBRANCH   1  24
TORSDOF 8
ENDMDL
MODEL 3
REMARK VINA RESULT:      -8.6      2.120      3.320
REMARK  8 active torsions:
REMARK  status: ('A' for Active; 'I' for Inactive)
REMARK    1  A    between atoms: C_4  and  O_5 
REMARK    2  A    between atoms: O_5  and  C_6 
REMARK    3  A    between atoms: C_6  and  C_7 
REMARK       I    between atoms: C_7  and  N_8 
REMARK    4  A    between atoms: N_8  and  C_9 
REMARK    5  A    between atoms: C_9  and  N_10 
REMARK    6  A    between atoms: N_10  and  C_11 
REMARK    7  A    between atoms: C_14  and  N_15 
REMARK    8  A    between atoms: N_18  and  C_19 
ROOT
HETATM    1  C   UNL     1      40.791  -9.837   6.181  1.00  0.00     0.034 A 
HETATM    2  C   UNL     1      39.772 -10.794   6.177  1.00  0.00     0.031 A 
HETATM    3  C   UNL     1      39.995 -12.094   5.698  1.00  0.00     0.026 A 
HETATM    4  C   UNL     1      41.241 -12.486   5.196  1.00  0.00     0.010 A 
HETATM    5  C   UNL     1      42.225 -11.486   5.132  1.00  0.00     0.026 A 
HETATM    6  C   UNL     1      42.012 -10.187   5.624  1.00  0.00     0.031 A 
ENDROOT
BRANCH   4   7
HETATM    7  N   UNL     1      41.524 -13.787   4.737  1.00  0.00    -0.280 NA
HETATM    8  C   UNL     1      40.950 -14.924   5.500  1.00  0.00     0.115 C 
HETATM    9  C   UNL     1      41.195 -16.276   4.788  1.00  0.00     0.138 C 
HETATM   10  N   UNL     1      42.639 -16.475   4.516  1.00  0.00    -0.374 N 
HETATM   11  C   UNL     1      43.198 -15.354   3.718  1.00  0.00     0.138 C 
HETATM   12  C   UNL     1      42.966 -14.000   4.427  1.00  0.00     0.115 C 
BRANCH  10  13
HETATM   13  C   UNL     1      43.101 -17.754   4.144  1.00  0.00     0.115 A 
HETATM   14  C   UNL     1      43.003 -18.284   2.841  1.00  0.00     0.187 A 
HETATM   15  F   UNL     1      42.491 -17.553   1.839  1.00  0.00    -0.200 F 
HETATM   16  C   UNL     1      43.453 -19.569   2.532  1.00  0.00     0.199 A 
HETATM   17  F   UNL     1      43.347 -20.025   1.276  1.00  0.00    -0.199 F 
HETATM   18  C   UNL     1      44.008 -20.372   3.512  1.00  0.00     0.199 A 
HETATM   19  F   UNL     1      44.439 -21.605   3.210  1.00  0.00    -0.199 F 
HETATM   20  C   UNL     1      44.111 -19.897   4.806  1.00  0.00     0.199 A 
HETATM   21  F   UNL     1      44.637 -20.673   5.765  1.00  0.00    -0.199 F 
HETATM   22  C   UNL     1      43.660 -18.615   5.117  1.00  0.00     0.187 A 
HETATM   23  F   UNL     1      43.740 -18.218   6.399  1.00  0.00    -0.200 F 
ENDBRANCH  10  13
ENDBRANCH   4   7
BRANCH   1  24
HETATM   24  N   UNL     1      40.468  -8.585   6.740  1.00  0.00    -0.333 N 
HETATM   25  H   UNL     1      39.642  -8.151   6.327  1.00  0.00     0.168 HD
BRANCH  24  26
HETATM   26  C   UNL     1      40.966  -7.878   7.812  1.00  0.00     0.178 C 
HETATM   27  S   UNL     1      41.821  -6.443   7.843  1.00  0.00    -0.040 SA
BRANCH  26  28
HETATM   28  N   UNL     1      40.767  -8.488   9.042  1.00  0.00    -0.302 N 
HETATM   29  C   UNL     1      41.667  -9.196   9.825  1.00  0.00     0.248 C 
HETATM   30  O   UNL     1      42.799  -9.506   9.455  1.00  0.00    -0.271 OA
HETATM   31  H   UNL     1      39.866  -8.279   9.464  1.00  0.00     0.171 HD
BRANCH  29  32
HETATM   32  C   UNL     1      41.118  -9.594  11.190  1.00  0.00     0.278 C 
BRANCH  32  33
HETATM   33  O   UNL     1      42.135  -9.825  12.157  1.00  0.00    -0.342 OA
BRANCH  33  34
HETATM   34  C   UNL     1      42.183  -8.952  13.213  1.00  0.00     0.069 A 
HETATM   35  C   UNL     1      41.374  -9.006  14.350  1.00  0.00     0.037 A 
HETATM   36  C   UNL     1      41.537  -8.066  15.372  1.00  0.00     0.003 A 
HETATM   37  C   UNL     1      42.508  -7.072  15.265  1.00  0.00     0.000 A 
HETATM   38  C   UNL     1      43.323  -7.022  14.137  1.00  0.00     0.003 A 
HETATM   39  C   UNL     1      43.167  -7.965  13.120  1.00  0.00     0.037 A 
ENDBRANCH  33  34
ENDBRANCH  32  33
ENDBRANCH  29  32
ENDBRANCH  26  28
ENDBRANCH  24  26
ENDBRANCH   1  24
TORSDOF 8
ENDMDL
MODEL 4
REMARK VINA RESULT:      -8.2      1.453      1.962
REMARK  8 active torsions:
REMARK  status: ('A' for Active; 'I' for Inactive)
REMARK    1  A    between atoms: C_4  and  O_5 
REMARK    2  A    between atoms: O_5  and  C_6 
REMARK    3  A    between atoms: C_6  and  C_7 
REMARK       I    between atoms: C_7  and  N_8 
REMARK    4  A    between atoms: N_8  and  C_9 
REMARK    5  A    between atoms: C_9  and  N_10 
REMARK    6  A    between atoms: N_10  and  C_11 
REMARK    7  A    between atoms: C_14  and  N_15 
REMARK    8  A    between atoms: N_18  and  C_19 
ROOT
HETATM    1  C   UNL     1      40.253  -9.832   5.294  1.00  0.00     0.034 A 
HETATM    2  C   UNL     1      39.398 -10.872   5.669  1.00  0.00     0.031 A 
HETATM    3  C   UNL     1      39.817 -12.211   5.624  1.00  0.00     0.026 A 
HETATM    4  C   UNL     1      41.100 -12.563   5.192  1.00  0.00     0.010 A 
HETATM    5  C   UNL     1      41.912 -11.510   4.741  1.00  0.00     0.026 A 
HETATM    6  C   UNL     1      41.505 -10.166   4.799  1.00  0.00     0.031 A 
ENDROOT
BRANCH   4   7
HETATM    7  N   UNL     1      41.577 -13.888   5.161  1.00  0.00    -0.280 NA
HETATM    8  C   UNL     1      43.049 -14.087   5.142  1.00  0.00     0.115 C 
HETATM    9  C   UNL     1      43.428 -15.580   5.283  1.00  0.00     0.138 C 
HETATM   10  N   UNL     1      42.755 -16.397   4.245  1.00  0.00    -0.374 N 
HETATM   11  C   UNL     1      41.279 -16.224   4.295  1.00  0.00     0.138 C 
HETATM   12  C   UNL     1      40.891 -14.735   4.145  1.00  0.00     0.115 C 
BRANCH  10  13
HETATM   13  C   UNL     1      43.188 -17.718   4.018  1.00  0.00     0.115 A 
HETATM   14  C   UNL     1      43.276 -18.317   2.744  1.00  0.00     0.187 A 
HETATM   15  F   UNL     1      42.986 -17.617   1.636  1.00  0.00    -0.200 F 
HETATM   16  C   UNL     1      43.687 -19.641   2.577  1.00  0.00     0.199 A 
HETATM   17  F   UNL     1      43.763 -20.162   1.344  1.00  0.00    -0.199 F 
HETATM   18  C   UNL     1      44.017 -20.415   3.674  1.00  0.00     0.199 A 
HETATM   19  F   UNL     1      44.413 -21.685   3.509  1.00  0.00    -0.199 F 
HETATM   20  C   UNL     1      43.933 -19.872   4.943  1.00  0.00     0.199 A 
HETATM   21  F   UNL     1      44.240 -20.620   6.013  1.00  0.00    -0.199 F 
HETATM   22  C   UNL     1      43.521 -18.551   5.111  1.00  0.00     0.187 A 
HETATM   23  F   UNL     1      43.411 -18.086   6.367  1.00  0.00    -0.200 F 
ENDBRANCH  10  13
ENDBRANCH   4   7
BRANCH   1  24
HETATM   24  N   UNL     1      39.746  -8.525   5.438  1.00  0.00    -0.333 N 
HETATM   25  H   UNL     1      38.845  -8.382   4.981  1.00  0.00     0.168 HD
BRANCH  24  26
HETATM   26  C   UNL     1      40.157  -7.433   6.168  1.00  0.00     0.178 C 
HETATM   27  S   UNL     1      40.241  -5.823   5.731  1.00  0.00    -0.040 SA
BRANCH  26  28
HETATM   28  N   UNL     1      40.617  -7.737   7.442  1.00  0.00    -0.302 N 
HETATM   29  C   UNL     1      39.941  -8.330   8.500  1.00  0.00     0.248 C 
HETATM   30  O   UNL     1      38.733  -8.567   8.492  1.00  0.00    -0.271 OA
HETATM   31  H   UNL     1      41.617  -7.606   7.560  1.00  0.00     0.171 HD
BRANCH  29  32
HETATM   32  C   UNL     1      40.825  -8.638   9.701  1.00  0.00     0.278 C 
BRANCH  32  33
HETATM   33  O   UNL     1      41.941  -7.764   9.815  1.00  0.00    -0.342 OA
BRANCH  33  34
HETATM   34  C   UNL     1      43.180  -8.349   9.791  1.00  0.00     0.069 A 
HETATM   35  C   UNL     1      43.682  -9.231  10.750  1.00  0.00     0.037 A 
HETATM   36  C   UNL     1      44.959  -9.780  10.598  1.00  0.00     0.003 A 
HETATM   37  C   UNL     1      45.737  -9.454   9.490  1.00  0.00     0.000 A 
HETATM   38  C   UNL     1      45.236  -8.583   8.526  1.00  0.00     0.003 A 
HETATM   39  C   UNL     1      43.958  -8.040   8.672  1.00  0.00     0.037 A 
ENDBRANCH  33  34
ENDBRANCH  32  33
ENDBRANCH  29  32
ENDBRANCH  26  28
ENDBRANCH  24  26
ENDBRANCH   1  24
TORSDOF 8
ENDMDL
MODEL 5
REMARK VINA RESULT:      -8.1      2.299      3.846
REMARK  8 active torsions:
REMARK  status: ('A' for Active; 'I' for Inactive)
REMARK    1  A    between atoms: C_4  and  O_5 
REMARK    2  A    between atoms: O_5  and  C_6 
REMARK    3  A    between atoms: C_6  and  C_7 
REMARK       I    between atoms: C_7  and  N_8 
REMARK    4  A    between atoms: N_8  and  C_9 
REMARK    5  A    between atoms: C_9  and  N_10 
REMARK    6  A    between atoms: N_10  and  C_11 
REMARK    7  A    between atoms: C_14  and  N_15 
REMARK    8  A    between atoms: N_18  and  C_19 
ROOT
HETATM    1  C   UNL     1      40.554  -9.811   6.294  1.00  0.00     0.034 A 
HETATM    2  C   UNL     1      39.522 -10.735   6.108  1.00  0.00     0.031 A 
HETATM    3  C   UNL     1      39.779 -12.028   5.627  1.00  0.00     0.026 A 
HETATM    4  C   UNL     1      41.075 -12.445   5.304  1.00  0.00     0.010 A 
HETATM    5  C   UNL     1      42.084 -11.475   5.418  1.00  0.00     0.026 A 
HETATM    6  C   UNL     1      41.835 -10.184   5.914  1.00  0.00     0.031 A 
ENDROOT
BRANCH   4   7
HETATM    7  N   UNL     1      41.387 -13.741   4.850  1.00  0.00    -0.280 NA
HETATM    8  C   UNL     1      40.767 -14.886   5.564  1.00  0.00     0.115 C 
HETATM    9  C   UNL     1      41.059 -16.230   4.855  1.00  0.00     0.138 C 
HETATM   10  N   UNL     1      42.517 -16.427   4.675  1.00  0.00    -0.374 N 
HETATM   11  C   UNL     1      43.125 -15.297   3.925  1.00  0.00     0.138 C 
HETATM   12  C   UNL     1      42.847 -13.950   4.631  1.00  0.00     0.115 C 
BRANCH  10  13
HETATM   13  C   UNL     1      43.003 -17.701   4.321  1.00  0.00     0.115 A 
HETATM   14  C   UNL     1      43.656 -18.577   5.212  1.00  0.00     0.187 A 
HETATM   15  F   UNL     1      43.812 -18.250   6.505  1.00  0.00    -0.200 F 
HETATM   16  C   UNL     1      44.142 -19.820   4.802  1.00  0.00     0.199 A 
HETATM   17  F   UNL     1      44.748 -20.622   5.689  1.00  0.00    -0.199 F 
HETATM   18  C   UNL     1      44.001 -20.229   3.488  1.00  0.00     0.199 A 
HETATM   19  F   UNL     1      44.468 -21.424   3.100  1.00  0.00    -0.199 F 
HETATM   20  C   UNL     1      43.378 -19.396   2.578  1.00  0.00     0.199 A 
HETATM   21  F   UNL     1      43.247 -19.780   1.299  1.00  0.00    -0.199 F 
HETATM   22  C   UNL     1      42.894 -18.154   2.985  1.00  0.00     0.187 A 
HETATM   23  F   UNL     1      42.338 -17.363   2.051  1.00  0.00    -0.200 F 
ENDBRANCH  10  13
ENDBRANCH   4   7
BRANCH   1  24
HETATM   24  N   UNL     1      40.186  -8.565   6.839  1.00  0.00    -0.333 N 
HETATM   25  H   UNL     1      39.267  -8.240   6.536  1.00  0.00     0.168 HD
BRANCH  24  26
HETATM   26  C   UNL     1      40.757  -7.749   7.789  1.00  0.00     0.178 C 
HETATM   27  S   UNL     1      41.471  -6.248   7.622  1.00  0.00    -0.040 SA
BRANCH  26  28
HETATM   28  N   UNL     1      40.784  -8.291   9.066  1.00  0.00    -0.302 N 
HETATM   29  C   UNL     1      39.761  -8.895   9.784  1.00  0.00     0.248 C 
HETATM   30  O   UNL     1      38.589  -8.923   9.411  1.00  0.00    -0.271 OA
HETATM   31  H   UNL     1      41.715  -8.347   9.470  1.00  0.00     0.171 HD
BRANCH  29  32
HETATM   32  C   UNL     1      40.211  -9.504  11.106  1.00  0.00     0.278 C 
BRANCH  32  33
HETATM   33  O   UNL     1      39.819  -8.736  12.238  1.00  0.00    -0.342 OA
BRANCH  33  34
HETATM   34  C   UNL     1      40.829  -8.250  13.026  1.00  0.00     0.069 A 
HETATM   35  C   UNL     1      40.689  -7.789  14.336  1.00  0.00     0.037 A 
HETATM   36  C   UNL     1      41.807  -7.337  15.045  1.00  0.00     0.003 A 
HETATM   37  C   UNL     1      43.066  -7.345  14.450  1.00  0.00     0.000 A 
HETATM   38  C   UNL     1      43.211  -7.813  13.146  1.00  0.00     0.003 A 
HETATM   39  C   UNL     1      42.097  -8.273  12.441  1.00  0.00     0.037 A 
ENDBRANCH  33  34
ENDBRANCH  32  33
ENDBRANCH  29  32
ENDBRANCH  26  28
ENDBRANCH  24  26
ENDBRANCH   1  24
TORSDOF 8
ENDMDL
MODEL 6
REMARK VINA RESULT:      -7.9      5.301      7.511
REMARK  8 active torsions:
REMARK  status: ('A' for Active; 'I' for Inactive)
REMARK    1  A    between atoms: C_4  and  O_5 
REMARK    2  A    between atoms: O_5  and  C_6 
REMARK    3  A    between atoms: C_6  and  C_7 
REMARK       I    between atoms: C_7  and  N_8 
REMARK    4  A    between atoms: N_8  and  C_9 
REMARK    5  A    between atoms: C_9  and  N_10 
REMARK    6  A    between atoms: N_10  and  C_11 
REMARK    7  A    between atoms: C_14  and  N_15 
REMARK    8  A    between atoms: N_18  and  C_19 
ROOT
HETATM    1  C   UNL     1      39.210  -9.799   1.465  1.00  0.00     0.034 A 
HETATM    2  C   UNL     1      38.495 -10.427   2.488  1.00  0.00     0.031 A 
HETATM    3  C   UNL     1      38.990 -11.576   3.124  1.00  0.00     0.026 A 
HETATM    4  C   UNL     1      40.212 -12.149   2.754  1.00  0.00     0.010 A 
HETATM    5  C   UNL     1      40.872 -11.551   1.669  1.00  0.00     0.026 A 
HETATM    6  C   UNL     1      40.390 -10.391   1.039  1.00  0.00     0.031 A 
ENDROOT
BRANCH   4   7
HETATM    7  N   UNL     1      40.766 -13.280   3.383  1.00  0.00    -0.280 NA
HETATM    8  C   UNL     1      42.222 -13.261   3.672  1.00  0.00     0.115 C 
HETATM    9  C   UNL     1      42.657 -14.484   4.514  1.00  0.00     0.138 C 
HETATM   10  N   UNL     1      42.250 -15.749   3.857  1.00  0.00    -0.374 N 
HETATM   11  C   UNL     1      40.785 -15.780   3.607  1.00  0.00     0.138 C 
HETATM   12  C   UNL     1      40.343 -14.566   2.758  1.00  0.00     0.115 C 
BRANCH  10  13
HETATM   13  C   UNL     1      42.798 -16.967   4.305  1.00  0.00     0.115 A 
HETATM   14  C   UNL     1      42.826 -17.376   5.655  1.00  0.00     0.187 A 
HETATM   15  F   UNL     1      42.266 -16.620   6.612  1.00  0.00    -0.200 F 
HETATM   16  C   UNL     1      43.407 -18.583   6.049  1.00  0.00     0.199 A 
HETATM   17  F   UNL     1      43.400 -18.932   7.343  1.00  0.00    -0.199 F 
HETATM   18  C   UNL     1      43.987 -19.419   5.113  1.00  0.00     0.199 A 
HETATM   19  F   UNL     1      44.543 -20.578   5.496  1.00  0.00    -0.199 F 
HETATM   20  C   UNL     1      43.994 -19.052   3.780  1.00  0.00     0.199 A 
HETATM   21  F   UNL     1      44.565 -19.851   2.867  1.00  0.00    -0.199 F 
HETATM   22  C   UNL     1      43.416 -17.846   3.386  1.00  0.00     0.187 A 
HETATM   23  F   UNL     1      43.490 -17.513   2.086  1.00  0.00    -0.200 F 
ENDBRANCH  10  13
ENDBRANCH   4   7
BRANCH   1  24
HETATM   24  N   UNL     1      38.645  -8.618   0.943  1.00  0.00    -0.333 N 
HETATM   25  H   UNL     1      39.171  -7.774   1.174  1.00  0.00     0.168 HD
BRANCH  24  26
HETATM   26  C   UNL     1      37.596  -8.378   0.084  1.00  0.00     0.178 C 
HETATM   27  S   UNL     1      36.402  -7.213   0.154  1.00  0.00    -0.040 SA
BRANCH  26  28
HETATM   28  N   UNL     1      37.499  -9.280  -0.966  1.00  0.00    -0.302 N 
HETATM   29  C   UNL     1      38.217  -9.324  -2.153  1.00  0.00     0.248 C 
HETATM   30  O   UNL     1      38.998  -8.443  -2.512  1.00  0.00    -0.271 OA
HETATM   31  H   UNL     1      36.896 -10.074  -0.772  1.00  0.00     0.171 HD
BRANCH  29  32
HETATM   32  C   UNL     1      37.930 -10.556  -3.002  1.00  0.00     0.278 C 
BRANCH  32  33
HETATM   33  O   UNL     1      37.263 -11.588  -2.285  1.00  0.00    -0.342 OA
BRANCH  33  34
HETATM   34  C   UNL     1      37.954 -12.759  -2.118  1.00  0.00     0.069 A 
HETATM   35  C   UNL     1      38.815 -13.052  -1.058  1.00  0.00     0.037 A 
HETATM   36  C   UNL     1      39.445 -14.299  -0.990  1.00  0.00     0.003 A 
HETATM   37  C   UNL     1      39.219 -15.256  -1.977  1.00  0.00     0.000 A 
HETATM   38  C   UNL     1      38.353 -14.970  -3.030  1.00  0.00     0.003 A 
HETATM   39  C   UNL     1      37.717 -13.730  -3.094  1.00  0.00     0.037 A 
ENDBRANCH  33  34
ENDBRANCH  32  33
ENDBRANCH  29  32
ENDBRANCH  26  28
ENDBRANCH  24  26
ENDBRANCH   1  24
TORSDOF 8
ENDMDL
MODEL 7
REMARK VINA RESULT:      -7.9      2.014      2.977
REMARK  8 active torsions:
REMARK  status: ('A' for Active; 'I' for Inactive)
REMARK    1  A    between atoms: C_4  and  O_5 
REMARK    2  A    between atoms: O_5  and  C_6 
REMARK    3  A    between atoms: C_6  and  C_7 
REMARK       I    between atoms: C_7  and  N_8 
REMARK    4  A    between atoms: N_8  and  C_9 
REMARK    5  A    between atoms: C_9  and  N_10 
REMARK    6  A    between atoms: N_10  and  C_11 
REMARK    7  A    between atoms: C_14  and  N_15 
REMARK    8  A    between atoms: N_18  and  C_19 
ROOT
HETATM    1  C   UNL     1      39.832  -8.660   8.468  1.00  0.00     0.034 A 
HETATM    2  C   UNL     1      38.941  -9.697   8.182  1.00  0.00     0.031 A 
HETATM    3  C   UNL     1      39.303 -10.756   7.335  1.00  0.00     0.026 A 
HETATM    4  C   UNL     1      40.565 -10.814   6.734  1.00  0.00     0.010 A 
HETATM    5  C   UNL     1      41.413  -9.720   6.968  1.00  0.00     0.026 A 
HETATM    6  C   UNL     1      41.063  -8.665   7.828  1.00  0.00     0.031 A 
ENDROOT
BRANCH   4   7
HETATM    7  N   UNL     1      40.986 -11.872   5.904  1.00  0.00    -0.280 NA
HETATM    8  C   UNL     1      40.135 -13.087   5.856  1.00  0.00     0.115 C 
HETATM    9  C   UNL     1      40.623 -14.088   4.781  1.00  0.00     0.138 C 
HETATM   10  N   UNL     1      42.050 -14.431   4.988  1.00  0.00    -0.374 N 
HETATM   11  C   UNL     1      42.902 -13.213   4.995  1.00  0.00     0.138 C 
HETATM   12  C   UNL     1      42.427 -12.212   6.073  1.00  0.00     0.115 C 
BRANCH  10  13
HETATM   13  C   UNL     1      42.600 -15.533   4.305  1.00  0.00     0.115 A 
HETATM   14  C   UNL     1      42.736 -15.612   2.904  1.00  0.00     0.187 A 
HETATM   15  F   UNL     1      42.379 -14.581   2.121  1.00  0.00    -0.200 F 
HETATM   16  C   UNL     1      43.265 -16.741   2.275  1.00  0.00     0.199 A 
HETATM   17  F   UNL     1      43.383 -16.763   0.940  1.00  0.00    -0.199 F 
HETATM   18  C   UNL     1      43.668 -17.833   3.021  1.00  0.00     0.199 A 
HETATM   19  F   UNL     1      44.176 -18.914   2.413  1.00  0.00    -0.199 F 
HETATM   20  C   UNL     1      43.541 -17.805   4.397  1.00  0.00     0.199 A 
HETATM   21  F   UNL     1      43.919 -18.864   5.127  1.00  0.00    -0.199 F 
HETATM   22  C   UNL     1      43.012 -16.679   5.026  1.00  0.00     0.187 A 
HETATM   23  F   UNL     1      42.866 -16.720   6.362  1.00  0.00    -0.200 F 
ENDBRANCH  10  13
ENDBRANCH   4   7
BRANCH   1  24
HETATM   24  N   UNL     1      39.382  -7.683   9.379  1.00  0.00    -0.333 N 
HETATM   25  H   UNL     1      38.788  -6.969   8.955  1.00  0.00     0.168 HD
BRANCH  24  26
HETATM   26  C   UNL     1      39.478  -7.558  10.746  1.00  0.00     0.178 C 
HETATM   27  S   UNL     1      38.517  -6.704  11.813  1.00  0.00    -0.040 SA
BRANCH  26  28
HETATM   28  N   UNL     1      40.574  -8.200  11.304  1.00  0.00    -0.302 N 
HETATM   29  C   UNL     1      40.667  -9.484  11.824  1.00  0.00     0.248 C 
HETATM   30  O   UNL     1      39.699 -10.227  11.985  1.00  0.00    -0.271 OA
HETATM   31  H   UNL     1      41.446  -7.689  11.205  1.00  0.00     0.171 HD
BRANCH  29  32
HETATM   32  C   UNL     1      42.082  -9.891  12.215  1.00  0.00     0.278 C 
BRANCH  32  33
HETATM   33  O   UNL     1      43.034  -8.849  12.039  1.00  0.00    -0.342 OA
BRANCH  33  34
HETATM   34  C   UNL     1      43.753  -8.869  10.873  1.00  0.00     0.069 A 
HETATM   35  C   UNL     1      43.774  -7.856   9.912  1.00  0.00     0.037 A 
HETATM   36  C   UNL     1      44.570  -7.988   8.770  1.00  0.00     0.003 A 
HETATM   37  C   UNL     1      45.347  -9.128   8.583  1.00  0.00     0.000 A 
HETATM   38  C   UNL     1      45.336 -10.137   9.544  1.00  0.00     0.003 A 
HETATM   39  C   UNL     1      44.549 -10.002  10.689  1.00  0.00     0.037 A 
ENDBRANCH  33  34
ENDBRANCH  32  33
ENDBRANCH  29  32
ENDBRANCH  26  28
ENDBRANCH  24  26
ENDBRANCH   1  24
TORSDOF 8
ENDMDL
MODEL 8
REMARK VINA RESULT:      -7.9      5.751     10.522
REMARK  8 active torsions:
REMARK  status: ('A' for Active; 'I' for Inactive)
REMARK    1  A    between atoms: C_4  and  O_5 
REMARK    2  A    between atoms: O_5  and  C_6 
REMARK    3  A    between atoms: C_6  and  C_7 
REMARK       I    between atoms: C_7  and  N_8 
REMARK    4  A    between atoms: N_8  and  C_9 
REMARK    5  A    between atoms: C_9  and  N_10 
REMARK    6  A    between atoms: N_10  and  C_11 
REMARK    7  A    between atoms: C_14  and  N_15 
REMARK    8  A    between atoms: N_18  and  C_19 
ROOT
HETATM    1  C   UNL     1      39.415 -12.202   3.614  1.00  0.00     0.034 A 
HETATM    2  C   UNL     1      39.626 -10.832   3.438  1.00  0.00     0.031 A 
HETATM    3  C   UNL     1      40.034 -10.015   4.504  1.00  0.00     0.026 A 
HETATM    4  C   UNL     1      40.236 -10.533   5.788  1.00  0.00     0.010 A 
HETATM    5  C   UNL     1      39.936 -11.894   5.961  1.00  0.00     0.026 A 
HETATM    6  C   UNL     1      39.543 -12.721   4.895  1.00  0.00     0.031 A 
ENDROOT
BRANCH   4   7
HETATM    7  N   UNL     1      40.676  -9.761   6.881  1.00  0.00    -0.280 NA
HETATM    8  C   UNL     1      42.071  -9.964   7.346  1.00  0.00     0.115 C 
HETATM    9  C   UNL     1      42.470  -8.935   8.431  1.00  0.00     0.138 C 
HETATM   10  N   UNL     1      41.511  -8.960   9.561  1.00  0.00    -0.374 N 
HETATM   11  C   UNL     1      40.121  -8.717   9.094  1.00  0.00     0.138 C 
HETATM   12  C   UNL     1      39.711  -9.746   8.016  1.00  0.00     0.115 C 
BRANCH  10  13
HETATM   13  C   UNL     1      41.851  -8.318  10.768  1.00  0.00     0.115 A 
HETATM   14  C   UNL     1      42.074  -6.931  10.893  1.00  0.00     0.187 A 
HETATM   15  F   UNL     1      41.921  -6.114   9.840  1.00  0.00    -0.200 F 
HETATM   16  C   UNL     1      42.435  -6.349  12.110  1.00  0.00     0.199 A 
HETATM   17  F   UNL     1      42.627  -5.024  12.181  1.00  0.00    -0.199 F 
HETATM   18  C   UNL     1      42.593  -7.129  13.241  1.00  0.00     0.199 A 
HETATM   19  F   UNL     1      42.938  -6.565  14.407  1.00  0.00    -0.199 F 
HETATM   20  C   UNL     1      42.397  -8.495  13.160  1.00  0.00     0.199 A 
HETATM   21  F   UNL     1      42.560  -9.261  14.249  1.00  0.00    -0.199 F 
HETATM   22  C   UNL     1      42.039  -9.079  11.946  1.00  0.00     0.187 A 
HETATM   23  F   UNL     1      41.905 -10.416  11.910  1.00  0.00    -0.200 F 
ENDBRANCH  10  13
ENDBRANCH   4   7
BRANCH   1  24
HETATM   24  N   UNL     1      39.067 -12.933   2.460  1.00  0.00    -0.333 N 
HETATM   25  H   UNL     1      38.100 -12.797   2.164  1.00  0.00     0.168 HD
BRANCH  24  26
HETATM   26  C   UNL     1      39.794 -13.702   1.580  1.00  0.00     0.178 C 
HETATM   27  S   UNL     1      40.063 -13.491  -0.055  1.00  0.00    -0.040 SA
BRANCH  26  28
HETATM   28  N   UNL     1      40.338 -14.850   2.137  1.00  0.00    -0.302 N 
HETATM   29  C   UNL     1      41.659 -15.126   2.461  1.00  0.00     0.248 C 
HETATM   30  O   UNL     1      42.603 -14.393   2.166  1.00  0.00    -0.271 OA
HETATM   31  H   UNL     1      39.645 -15.524   2.449  1.00  0.00     0.171 HD
BRANCH  29  32
HETATM   32  C   UNL     1      41.852 -16.447   3.197  1.00  0.00     0.278 C 
BRANCH  32  33
HETATM   33  O   UNL     1      43.218 -16.814   3.342  1.00  0.00    -0.342 OA
BRANCH  33  34
HETATM   34  C   UNL     1      43.483 -18.154   3.437  1.00  0.00     0.069 A 
HETATM   35  C   UNL     1      43.977 -18.808   4.569  1.00  0.00     0.037 A 
HETATM   36  C   UNL     1      44.184 -20.190   4.546  1.00  0.00     0.003 A 
HETATM   37  C   UNL     1      43.900 -20.925   3.397  1.00  0.00     0.000 A 
HETATM   38  C   UNL     1      43.398 -20.278   2.270  1.00  0.00     0.003 A 
HETATM   39  C   UNL     1      43.182 -18.899   2.295  1.00  0.00     0.037 A 
ENDBRANCH  33  34
ENDBRANCH  32  33
ENDBRANCH  29  32
ENDBRANCH  26  28
ENDBRANCH  24  26
ENDBRANCH   1  24
TORSDOF 8
ENDMDL
MODEL 9
REMARK VINA RESULT:      -7.9      5.804      9.815
REMARK  8 active torsions:
REMARK  status: ('A' for Active; 'I' for Inactive)
REMARK    1  A    between atoms: C_4  and  O_5 
REMARK    2  A    between atoms: O_5  and  C_6 
REMARK    3  A    between atoms: C_6  and  C_7 
REMARK       I    between atoms: C_7  and  N_8 
REMARK    4  A    between atoms: N_8  and  C_9 
REMARK    5  A    between atoms: C_9  and  N_10 
REMARK    6  A    between atoms: N_10  and  C_11 
REMARK    7  A    between atoms: C_14  and  N_15 
REMARK    8  A    between atoms: N_18  and  C_19 
ROOT
HETATM    1  C   UNL     1      40.636 -10.730   2.445  1.00  0.00     0.034 A 
HETATM    2  C   UNL     1      41.955 -10.800   2.903  1.00  0.00     0.031 A 
HETATM    3  C   UNL     1      42.290 -10.433   4.216  1.00  0.00     0.026 A 
HETATM    4  C   UNL     1      41.324  -9.973   5.117  1.00  0.00     0.010 A 
HETATM    5  C   UNL     1      40.022  -9.831   4.611  1.00  0.00     0.026 A 
HETATM    6  C   UNL     1      39.677 -10.212   3.302  1.00  0.00     0.031 A 
ENDROOT
BRANCH   4   7
HETATM    7  N   UNL     1      41.605  -9.626   6.453  1.00  0.00    -0.280 NA
HETATM    8  C   UNL     1      42.637 -10.420   7.165  1.00  0.00     0.115 C 
HETATM    9  C   UNL     1      42.964  -9.822   8.555  1.00  0.00     0.138 C 
HETATM   10  N   UNL     1      41.734  -9.673   9.368  1.00  0.00    -0.374 N 
HETATM   11  C   UNL     1      40.720  -8.843   8.666  1.00  0.00     0.138 C 
HETATM   12  C   UNL     1      40.380  -9.439   7.281  1.00  0.00     0.115 C 
BRANCH  10  13
HETATM   13  C   UNL     1      41.847  -9.424  10.750  1.00  0.00     0.115 A 
HETATM   14  C   UNL     1      40.890  -9.819  11.709  1.00  0.00     0.187 A 
HETATM   15  F   UNL     1      39.805 -10.520  11.345  1.00  0.00    -0.200 F 
HETATM   16  C   UNL     1      41.039  -9.523  13.065  1.00  0.00     0.199 A 
HETATM   17  F   UNL     1      40.106  -9.928  13.939  1.00  0.00    -0.199 F 
HETATM   18  C   UNL     1      42.141  -8.818  13.512  1.00  0.00     0.199 A 
HETATM   19  F   UNL     1      42.280  -8.539  14.816  1.00  0.00    -0.199 F 
HETATM   20  C   UNL     1      43.098  -8.401  12.605  1.00  0.00     0.199 A 
HETATM   21  F   UNL     1      44.165  -7.707  13.028  1.00  0.00    -0.199 F 
HETATM   22  C   UNL     1      42.950  -8.693  11.250  1.00  0.00     0.187 A 
HETATM   23  F   UNL     1      43.884  -8.225  10.405  1.00  0.00    -0.200 F 
ENDBRANCH  10  13
ENDBRANCH   4   7
BRANCH   1  24
HETATM   24  N   UNL     1      40.408 -11.181   1.129  1.00  0.00    -0.333 N 
HETATM   25  H   UNL     1      41.115 -10.872   0.461  1.00  0.00     0.168 HD
BRANCH  24  26
HETATM   26  C   UNL     1      39.495 -12.051   0.579  1.00  0.00     0.178 C 
HETATM   27  S   UNL     1      38.379 -11.803  -0.638  1.00  0.00    -0.040 SA
BRANCH  26  28
HETATM   28  N   UNL     1      39.472 -13.306   1.171  1.00  0.00    -0.302 N 
HETATM   29  C   UNL     1      40.532 -14.149   1.478  1.00  0.00     0.248 C 
HETATM   30  O   UNL     1      41.694 -13.940   1.134  1.00  0.00    -0.271 OA
HETATM   31  H   UNL     1      38.560 -13.579   1.524  1.00  0.00     0.171 HD
BRANCH  29  32
HETATM   32  C   UNL     1      40.125 -15.391   2.262  1.00  0.00     0.278 C 
BRANCH  32  33
HETATM   33  O   UNL     1      40.867 -15.563   3.464  1.00  0.00    -0.342 OA
BRANCH  33  34
HETATM   34  C   UNL     1      41.842 -16.525   3.447  1.00  0.00     0.069 A 
HETATM   35  C   UNL     1      42.155 -17.347   2.362  1.00  0.00     0.037 A 
HETATM   36  C   UNL     1      43.193 -18.279   2.464  1.00  0.00     0.003 A 
HETATM   37  C   UNL     1      43.920 -18.394   3.646  1.00  0.00     0.000 A 
HETATM   38  C   UNL     1      43.617 -17.569   4.726  1.00  0.00     0.003 A 
HETATM   39  C   UNL     1      42.588 -16.632   4.623  1.00  0.00     0.037 A 
ENDBRANCH  33  34
ENDBRANCH  32  33
ENDBRANCH  29  32
ENDBRANCH  26  28
ENDBRANCH  24  26
ENDBRANCH   1  24
TORSDOF 8
ENDMDL
MODEL 10
REMARK VINA RESULT:      -7.8      5.344      7.320
REMARK  8 active torsions:
REMARK  status: ('A' for Active; 'I' for Inactive)
REMARK    1  A    between atoms: C_4  and  O_5 
REMARK    2  A    between atoms: O_5  and  C_6 
REMARK    3  A    between atoms: C_6  and  C_7 
REMARK       I    between atoms: C_7  and  N_8 
REMARK    4  A    between atoms: N_8  and  C_9 
REMARK    5  A    between atoms: C_9  and  N_10 
REMARK    6  A    between atoms: N_10  and  C_11 
REMARK    7  A    between atoms: C_14  and  N_15 
REMARK    8  A    between atoms: N_18  and  C_19 
ROOT
HETATM    1  C   UNL     1      39.102  -9.762   1.139  1.00  0.00     0.034 A 
HETATM    2  C   UNL     1      38.525 -10.939   0.655  1.00  0.00     0.031 A 
HETATM    3  C   UNL     1      39.105 -12.192   0.908  1.00  0.00     0.026 A 
HETATM    4  C   UNL     1      40.288 -12.317   1.644  1.00  0.00     0.010 A 
HETATM    5  C   UNL     1      40.895 -11.116   2.049  1.00  0.00     0.026 A 
HETATM    6  C   UNL     1      40.311  -9.860   1.813  1.00  0.00     0.031 A 
ENDROOT
BRANCH   4   7
HETATM    7  N   UNL     1      40.890 -13.552   1.953  1.00  0.00    -0.280 NA
HETATM    8  C   UNL     1      40.029 -14.605   2.548  1.00  0.00     0.115 C 
HETATM    9  C   UNL     1      40.775 -15.955   2.672  1.00  0.00     0.138 C 
HETATM   10  N   UNL     1      42.039 -15.792   3.430  1.00  0.00    -0.374 N 
HETATM   11  C   UNL     1      42.914 -14.765   2.807  1.00  0.00     0.138 C 
HETATM   12  C   UNL     1      42.179 -13.410   2.687  1.00  0.00     0.115 C 
BRANCH  10  13
HETATM   13  C   UNL     1      42.712 -16.936   3.902  1.00  0.00     0.115 A 
HETATM   14  C   UNL     1      43.259 -17.934   3.069  1.00  0.00     0.187 A 
HETATM   15  F   UNL     1      43.207 -17.817   1.732  1.00  0.00    -0.200 F 
HETATM   16  C   UNL     1      43.895 -19.063   3.589  1.00  0.00     0.199 A 
HETATM   17  F   UNL     1      44.407 -19.980   2.756  1.00  0.00    -0.199 F 
HETATM   18  C   UNL     1      44.000 -19.240   4.957  1.00  0.00     0.199 A 
HETATM   19  F   UNL     1      44.613 -20.325   5.451  1.00  0.00    -0.199 F 
HETATM   20  C   UNL     1      43.467 -18.292   5.810  1.00  0.00     0.199 A 
HETATM   21  F   UNL     1      43.554 -18.461   7.138  1.00  0.00    -0.199 F 
HETATM   22  C   UNL     1      42.830 -17.165   5.292  1.00  0.00     0.187 A 
HETATM   23  F   UNL     1      42.288 -16.298   6.164  1.00  0.00    -0.200 F 
ENDBRANCH  10  13
ENDBRANCH   4   7
BRANCH   1  24
HETATM   24  N   UNL     1      38.400  -8.569   0.876  1.00  0.00    -0.333 N 
HETATM   25  H   UNL     1      37.837  -8.242   1.662  1.00  0.00     0.168 HD
BRANCH  24  26
HETATM   26  C   UNL     1      38.407  -7.688  -0.181  1.00  0.00     0.178 C 
HETATM   27  S   UNL     1      38.149  -6.038  -0.201  1.00  0.00    -0.040 SA
BRANCH  26  28
HETATM   28  N   UNL     1      38.610  -8.281  -1.419  1.00  0.00    -0.302 N 
HETATM   29  C   UNL     1      39.804  -8.588  -2.059  1.00  0.00     0.248 C 
HETATM   30  O   UNL     1      40.910  -8.241  -1.645  1.00  0.00    -0.271 OA
HETATM   31  H   UNL     1      37.762  -8.636  -1.850  1.00  0.00     0.171 HD
BRANCH  29  32
HETATM   32  C   UNL     1      39.626  -9.374  -3.352  1.00  0.00     0.278 C 
BRANCH  32  33
HETATM   33  O   UNL     1      38.577 -10.333  -3.285  1.00  0.00    -0.342 OA
BRANCH  33  34
HETATM   34  C   UNL     1      38.945 -11.622  -2.999  1.00  0.00     0.069 A 
HETATM   35  C   UNL     1      40.255 -12.102  -2.954  1.00  0.00     0.037 A 
HETATM   36  C   UNL     1      40.501 -13.439  -2.626  1.00  0.00     0.003 A 
HETATM   37  C   UNL     1      39.443 -14.299  -2.341  1.00  0.00     0.000 A 
HETATM   38  C   UNL     1      38.135 -13.820  -2.376  1.00  0.00     0.003 A 
HETATM   39  C   UNL     1      37.889 -12.484  -2.694  1.00  0.00     0.037 A 
ENDBRANCH  33  34
ENDBRANCH  32  33
ENDBRANCH  29  32
ENDBRANCH  26  28
ENDBRANCH  24  26
ENDBRANCH   1  24
TORSDOF 8
ENDMDL
