MODEL 1
REMARK VINA RESULT:      -9.2      0.000      0.000
REMARK  6 active torsions:
REMARK  status: ('A' for Active; 'I' for Inactive)
REMARK    1  A    between atoms: C_2  and  C_3 
REMARK    2  A    between atoms: C_3  and  C_4 
REMARK    3  A    between atoms: C_4  and  C_5 
REMARK    4  A    between atoms: C_4  and  C_21 
REMARK       I    between atoms: C_5  and  N_6 
REMARK    5  A    between atoms: N_6  and  C_7 
REMARK    6  A    between atoms: C_14  and  C_15 
REMARK       I    between atoms: C_15  and  N_16 
ROOT
HETATM    1  C   UNL     1      40.590 -14.603   0.877  1.00  0.00     0.035 A 
HETATM    2  C   UNL     1      39.888 -14.919  -0.295  1.00  0.00     0.046 A 
HETATM    3  C   UNL     1      39.576 -13.896  -1.217  1.00  0.00     0.030 A 
HETATM    4  C   UNL     1      39.955 -12.592  -0.924  1.00  0.00     0.063 A 
HETATM    5  N   UNL     1      39.506 -11.840  -1.973  1.00  0.00    -0.277 N 
HETATM    6  H   UNL     1      39.596 -10.837  -2.092  1.00  0.00     0.189 HD
HETATM    7  N   UNL     1      38.897 -12.543  -2.942  1.00  0.00    -0.168 NA
HETATM    8  C   UNL     1      38.938 -13.817  -2.491  1.00  0.00     0.156 A 
HETATM    9  C   UNL     1      40.653 -12.242   0.233  1.00  0.00     0.034 A 
HETATM   10  C   UNL     1      40.977 -13.278   1.118  1.00  0.00     0.032 A 
ENDROOT
BRANCH   1  11
HETATM   11  N   UNL     1      40.972 -15.568   1.835  1.00  0.00    -0.327 N 
HETATM   12  C   UNL     1      42.236 -16.119   1.995  1.00  0.00     0.231 C 
HETATM   13  O   UNL     1      43.176 -15.957   1.220  1.00  0.00    -0.272 OA
HETATM   14  H   UNL     1      40.223 -15.967   2.382  1.00  0.00     0.169 HD
BRANCH  12  15
HETATM   15  C   UNL     1      42.339 -17.060   3.219  1.00  0.00     0.115 C 
BRANCH  15  16
HETATM   16  C   UNL     1      43.555 -18.023   3.058  1.00  0.00    -0.001 C 
HETATM   17  C   UNL     1      44.145 -18.445   4.413  1.00  0.00     0.011 C 
BRANCH  16  18
HETATM   18  C   UNL     1      43.229 -19.277   2.208  1.00  0.00     0.001 C 
HETATM   19  C   UNL     1      43.724 -20.602   2.775  1.00  0.00     0.005 C 
ENDBRANCH  16  18
ENDBRANCH  15  16
BRANCH  15  20
HETATM   20  C   UNL     1      42.370 -16.256   4.519  1.00  0.00    -0.045 A 
HETATM   21  C   UNL     1      43.179 -15.112   4.614  1.00  0.00     0.008 A 
HETATM   22  C   UNL     1      43.203 -14.351   5.785  1.00  0.00     0.001 A 
HETATM   23  C   UNL     1      42.422 -14.723   6.877  1.00  0.00     0.000 A 
HETATM   24  C   UNL     1      41.616 -15.856   6.798  1.00  0.00     0.001 A 
HETATM   25  C   UNL     1      41.587 -16.615   5.627  1.00  0.00     0.008 A 
ENDBRANCH  15  20
ENDBRANCH  12  15
ENDBRANCH   1  11
BRANCH   8  26
HETATM   26  C   UNL     1      38.388 -14.923  -3.290  1.00  0.00     0.270 C 
HETATM   27  N   UNL     1      38.224 -16.089  -2.592  1.00  0.00    -0.365 N 
HETATM   28  H   UNL     1      38.463 -16.101  -1.607  1.00  0.00     0.159 HD
HETATM   29  H   UNL     1      37.821 -16.890  -3.050  1.00  0.00     0.159 HD
HETATM   30  O   UNL     1      38.077 -14.844  -4.474  1.00  0.00    -0.266 OA
ENDBRANCH   8  26
TORSDOF 6
ENDMDL
MODEL 2
REMARK VINA RESULT:      -9.0      1.581      3.578
REMARK  6 active torsions:
REMARK  status: ('A' for Active; 'I' for Inactive)
REMARK    1  A    between atoms: C_2  and  C_3 
REMARK    2  A    between atoms: C_3  and  C_4 
REMARK    3  A    between atoms: C_4  and  C_5 
REMARK    4  A    between atoms: C_4  and  C_21 
REMARK       I    between atoms: C_5  and  N_6 
REMARK    5  A    between atoms: N_6  and  C_7 
REMARK    6  A    between atoms: C_14  and  C_15 
REMARK       I    between atoms: C_15  and  N_16 
ROOT
HETATM    1  C   UNL     1      41.103 -14.117   2.136  1.00  0.00     0.035 A 
HETATM    2  C   UNL     1      40.755 -14.407   0.809  1.00  0.00     0.046 A 
HETATM    3  C   UNL     1      39.757 -13.642   0.168  1.00  0.00     0.030 A 
HETATM    4  C   UNL     1      39.126 -12.631   0.882  1.00  0.00     0.063 A 
HETATM    5  N   UNL     1      38.213 -12.093   0.019  1.00  0.00    -0.277 N 
HETATM    6  H   UNL     1      37.564 -11.337   0.205  1.00  0.00     0.189 HD
HETATM    7  N   UNL     1      38.215 -12.640  -1.207  1.00  0.00    -0.168 NA
HETATM    8  C   UNL     1      39.169 -13.597  -1.132  1.00  0.00     0.156 A 
HETATM    9  C   UNL     1      39.447 -12.316   2.204  1.00  0.00     0.034 A 
HETATM   10  C   UNL     1      40.460 -13.070   2.809  1.00  0.00     0.032 A 
ENDROOT
BRANCH   1  11
HETATM   11  N   UNL     1      42.113 -14.810   2.840  1.00  0.00    -0.327 N 
HETATM   12  C   UNL     1      41.941 -15.918   3.658  1.00  0.00     0.231 C 
HETATM   13  O   UNL     1      40.852 -16.368   4.010  1.00  0.00    -0.272 OA
HETATM   14  H   UNL     1      43.030 -14.386   2.826  1.00  0.00     0.169 HD
BRANCH  12  15
HETATM   15  C   UNL     1      43.274 -16.503   4.180  1.00  0.00     0.115 C 
BRANCH  15  16
HETATM   16  C   UNL     1      43.384 -16.300   5.722  1.00  0.00    -0.001 C 
HETATM   17  C   UNL     1      44.844 -16.291   6.204  1.00  0.00     0.011 C 
BRANCH  16  18
HETATM   18  C   UNL     1      42.654 -15.028   6.221  1.00  0.00     0.001 C 
HETATM   19  C   UNL     1      43.515 -13.775   6.326  1.00  0.00     0.005 C 
ENDBRANCH  16  18
ENDBRANCH  15  16
BRANCH  15  20
HETATM   20  C   UNL     1      43.433 -17.960   3.747  1.00  0.00    -0.045 A 
HETATM   21  C   UNL     1      43.126 -18.336   2.428  1.00  0.00     0.008 A 
HETATM   22  C   UNL     1      43.288 -19.657   2.007  1.00  0.00     0.001 A 
HETATM   23  C   UNL     1      43.755 -20.622   2.896  1.00  0.00     0.000 A 
HETATM   24  C   UNL     1      44.063 -20.266   4.207  1.00  0.00     0.001 A 
HETATM   25  C   UNL     1      43.907 -18.944   4.628  1.00  0.00     0.008 A 
ENDBRANCH  15  20
ENDBRANCH  12  15
ENDBRANCH   1  11
BRANCH   8  26
HETATM   26  C   UNL     1      39.508 -14.425  -2.300  1.00  0.00     0.270 C 
HETATM   27  N   UNL     1      38.676 -15.496  -2.485  1.00  0.00    -0.365 N 
HETATM   28  H   UNL     1      37.903 -15.625  -1.842  1.00  0.00     0.159 HD
HETATM   29  H   UNL     1      38.812 -16.099  -3.280  1.00  0.00     0.159 HD
HETATM   30  O   UNL     1      40.434 -14.200  -3.072  1.00  0.00    -0.266 OA
ENDBRANCH   8  26
TORSDOF 6
ENDMDL
MODEL 3
REMARK VINA RESULT:      -8.6      1.082      3.138
REMARK  6 active torsions:
REMARK  status: ('A' for Active; 'I' for Inactive)
REMARK    1  A    between atoms: C_2  and  C_3 
REMARK    2  A    between atoms: C_3  and  C_4 
REMARK    3  A    between atoms: C_4  and  C_5 
REMARK    4  A    between atoms: C_4  and  C_21 
REMARK       I    between atoms: C_5  and  N_6 
REMARK    5  A    between atoms: N_6  and  C_7 
REMARK    6  A    between atoms: C_14  and  C_15 
REMARK       I    between atoms: C_15  and  N_16 
ROOT
HETATM    1  C   UNL     1      40.949 -13.650   1.073  1.00  0.00     0.035 A 
HETATM    2  C   UNL     1      40.237 -14.243   0.020  1.00  0.00     0.046 A 
HETATM    3  C   UNL     1      39.813 -13.449  -1.068  1.00  0.00     0.030 A 
HETATM    4  C   UNL     1      40.095 -12.089  -1.054  1.00  0.00     0.063 A 
HETATM    5  N   UNL     1      39.552 -11.595  -2.207  1.00  0.00    -0.277 N 
HETATM    6  H   UNL     1      39.557 -10.632  -2.524  1.00  0.00     0.189 HD
HETATM    7  N   UNL     1      38.971 -12.518  -2.990  1.00  0.00    -0.168 NA
HETATM    8  C   UNL     1      39.129 -13.672  -2.301  1.00  0.00     0.156 A 
HETATM    9  C   UNL     1      40.800 -11.466  -0.022  1.00  0.00     0.034 A 
HETATM   10  C   UNL     1      41.235 -12.279   1.032  1.00  0.00     0.032 A 
ENDROOT
BRANCH   1  11
HETATM   11  N   UNL     1      41.439 -14.376   2.181  1.00  0.00    -0.327 N 
HETATM   12  C   UNL     1      42.759 -14.733   2.418  1.00  0.00     0.231 C 
HETATM   13  O   UNL     1      43.678 -14.598   1.612  1.00  0.00    -0.272 OA
HETATM   14  H   UNL     1      40.740 -14.758   2.802  1.00  0.00     0.169 HD
BRANCH  12  15
HETATM   15  C   UNL     1      42.968 -15.420   3.788  1.00  0.00     0.115 C 
BRANCH  15  16
HETATM   16  C   UNL     1      41.749 -15.145   4.720  1.00  0.00    -0.001 C 
HETATM   17  C   UNL     1      40.855 -16.384   4.890  1.00  0.00     0.011 C 
BRANCH  16  18
HETATM   18  C   UNL     1      42.160 -14.594   6.109  1.00  0.00     0.001 C 
HETATM   19  C   UNL     1      42.377 -15.643   7.194  1.00  0.00     0.005 C 
ENDBRANCH  16  18
ENDBRANCH  15  16
BRANCH  15  20
HETATM   20  C   UNL     1      43.269 -16.908   3.607  1.00  0.00    -0.045 A 
HETATM   21  C   UNL     1      42.769 -17.592   2.486  1.00  0.00     0.008 A 
HETATM   22  C   UNL     1      43.052 -18.945   2.291  1.00  0.00     0.001 A 
HETATM   23  C   UNL     1      43.836 -19.635   3.213  1.00  0.00     0.000 A 
HETATM   24  C   UNL     1      44.338 -18.971   4.330  1.00  0.00     0.001 A 
HETATM   25  C   UNL     1      44.060 -17.618   4.524  1.00  0.00     0.008 A 
ENDBRANCH  15  20
ENDBRANCH  12  15
ENDBRANCH   1  11
BRANCH   8  26
HETATM   26  C   UNL     1      38.645 -14.951  -2.841  1.00  0.00     0.270 C 
HETATM   27  N   UNL     1      38.088 -14.856  -4.087  1.00  0.00    -0.365 N 
HETATM   28  H   UNL     1      38.069 -13.951  -4.541  1.00  0.00     0.159 HD
HETATM   29  H   UNL     1      37.760 -15.689  -4.549  1.00  0.00     0.159 HD
HETATM   30  O   UNL     1      38.728 -16.030  -2.264  1.00  0.00    -0.266 OA
ENDBRANCH   8  26
TORSDOF 6
ENDMDL
MODEL 4
REMARK VINA RESULT:      -8.5      1.868      3.109
REMARK  6 active torsions:
REMARK  status: ('A' for Active; 'I' for Inactive)
REMARK    1  A    between atoms: C_2  and  C_3 
REMARK    2  A    between atoms: C_3  and  C_4 
REMARK    3  A    between atoms: C_4  and  C_5 
REMARK    4  A    between atoms: C_4  and  C_21 
REMARK       I    between atoms: C_5  and  N_6 
REMARK    5  A    between atoms: N_6  and  C_7 
REMARK    6  A    between atoms: C_14  and  C_15 
REMARK       I    between atoms: C_15  and  N_16 
ROOT
HETATM    1  C   UNL     1      40.646 -14.544   0.717  1.00  0.00     0.035 A 
HETATM    2  C   UNL     1      41.122 -13.226   0.725  1.00  0.00     0.046 A 
HETATM    3  C   UNL     1      40.696 -12.326  -0.277  1.00  0.00     0.030 A 
HETATM    4  C   UNL     1      39.828 -12.782  -1.261  1.00  0.00     0.063 A 
HETATM    5  N   UNL     1      39.616 -11.710  -2.082  1.00  0.00    -0.277 N 
HETATM    6  H   UNL     1      39.041 -11.681  -2.916  1.00  0.00     0.189 HD
HETATM    7  N   UNL     1      40.241 -10.584  -1.701  1.00  0.00    -0.168 NA
HETATM    8  C   UNL     1      40.909 -10.948  -0.582  1.00  0.00     0.156 A 
HETATM    9  C   UNL     1      39.336 -14.088  -1.299  1.00  0.00     0.034 A 
HETATM   10  C   UNL     1      39.750 -14.954  -0.279  1.00  0.00     0.032 A 
ENDROOT
BRANCH   1  11
HETATM   11  N   UNL     1      40.994 -15.498   1.699  1.00  0.00    -0.327 N 
HETATM   12  C   UNL     1      42.248 -16.057   1.902  1.00  0.00     0.231 C 
HETATM   13  O   UNL     1      43.210 -15.914   1.151  1.00  0.00    -0.272 OA
HETATM   14  H   UNL     1      40.227 -15.883   2.232  1.00  0.00     0.169 HD
BRANCH  12  15
HETATM   15  C   UNL     1      42.310 -16.980   3.143  1.00  0.00     0.115 C 
BRANCH  15  16
HETATM   16  C   UNL     1      43.522 -17.955   3.029  1.00  0.00    -0.001 C 
HETATM   17  C   UNL     1      44.043 -18.396   4.407  1.00  0.00     0.011 C 
BRANCH  16  18
HETATM   18  C   UNL     1      43.223 -19.197   2.154  1.00  0.00     0.001 C 
HETATM   19  C   UNL     1      43.668 -20.533   2.734  1.00  0.00     0.005 C 
ENDBRANCH  16  18
ENDBRANCH  15  16
BRANCH  15  20
HETATM   20  C   UNL     1      42.312 -16.157   4.431  1.00  0.00    -0.045 A 
HETATM   21  C   UNL     1      41.437 -16.492   5.477  1.00  0.00     0.008 A 
HETATM   22  C   UNL     1      41.441 -15.767   6.671  1.00  0.00     0.001 A 
HETATM   23  C   UNL     1      42.316 -14.696   6.835  1.00  0.00     0.000 A 
HETATM   24  C   UNL     1      43.189 -14.350   5.806  1.00  0.00     0.001 A 
HETATM   25  C   UNL     1      43.190 -15.077   4.615  1.00  0.00     0.008 A 
ENDBRANCH  15  20
ENDBRANCH  12  15
ENDBRANCH   1  11
BRANCH   8  26
HETATM   26  C   UNL     1      41.712  -9.975   0.173  1.00  0.00     0.270 C 
HETATM   27  N   UNL     1      41.543 -10.043   1.529  1.00  0.00    -0.365 N 
HETATM   28  H   UNL     1      40.917 -10.746   1.904  1.00  0.00     0.159 HD
HETATM   29  H   UNL     1      42.079  -9.436   2.128  1.00  0.00     0.159 HD
HETATM   30  O   UNL     1      42.488  -9.169  -0.329  1.00  0.00    -0.266 OA
ENDBRANCH   8  26
TORSDOF 6
ENDMDL
MODEL 5
REMARK VINA RESULT:      -8.3      2.070      4.231
REMARK  6 active torsions:
REMARK  status: ('A' for Active; 'I' for Inactive)
REMARK    1  A    between atoms: C_2  and  C_3 
REMARK    2  A    between atoms: C_3  and  C_4 
REMARK    3  A    between atoms: C_4  and  C_5 
REMARK    4  A    between atoms: C_4  and  C_21 
REMARK       I    between atoms: C_5  and  N_6 
REMARK    5  A    between atoms: N_6  and  C_7 
REMARK    6  A    between atoms: C_14  and  C_15 
REMARK       I    between atoms: C_15  and  N_16 
ROOT
HETATM    1  C   UNL     1      41.035 -14.057   1.003  1.00  0.00     0.035 A 
HETATM    2  C   UNL     1      41.281 -12.699   0.759  1.00  0.00     0.046 A 
HETATM    3  C   UNL     1      40.676 -12.070  -0.351  1.00  0.00     0.030 A 
HETATM    4  C   UNL     1      39.866 -12.825  -1.189  1.00  0.00     0.063 A 
HETATM    5  N   UNL     1      39.448 -11.962  -2.163  1.00  0.00    -0.277 N 
HETATM    6  H   UNL     1      38.850 -12.173  -2.954  1.00  0.00     0.189 HD
HETATM    7  N   UNL     1      39.886 -10.701  -2.016  1.00  0.00    -0.168 NA
HETATM    8  C   UNL     1      40.642 -10.751  -0.895  1.00  0.00     0.156 A 
HETATM    9  C   UNL     1      39.600 -14.179  -0.976  1.00  0.00     0.034 A 
HETATM   10  C   UNL     1      40.189 -14.774   0.146  1.00  0.00     0.032 A 
ENDROOT
BRANCH   1  11
HETATM   11  N   UNL     1      41.572 -14.755   2.107  1.00  0.00    -0.327 N 
HETATM   12  C   UNL     1      42.911 -15.038   2.336  1.00  0.00     0.231 C 
HETATM   13  O   UNL     1      43.817 -14.851   1.526  1.00  0.00    -0.272 OA
HETATM   14  H   UNL     1      40.899 -15.177   2.732  1.00  0.00     0.169 HD
BRANCH  12  15
HETATM   15  C   UNL     1      43.166 -15.713   3.704  1.00  0.00     0.115 C 
BRANCH  15  16
HETATM   16  C   UNL     1      42.006 -15.383   4.693  1.00  0.00    -0.001 C 
HETATM   17  C   UNL     1      41.003 -16.542   4.819  1.00  0.00     0.011 C 
BRANCH  16  18
HETATM   18  C   UNL     1      42.506 -14.961   6.097  1.00  0.00     0.001 C 
HETATM   19  C   UNL     1      42.240 -15.960   7.217  1.00  0.00     0.005 C 
ENDBRANCH  16  18
ENDBRANCH  15  16
BRANCH  15  20
HETATM   20  C   UNL     1      43.407 -17.213   3.531  1.00  0.00    -0.045 A 
HETATM   21  C   UNL     1      44.086 -17.932   4.529  1.00  0.00     0.008 A 
HETATM   22  C   UNL     1      44.295 -19.307   4.401  1.00  0.00     0.001 A 
HETATM   23  C   UNL     1      43.832 -19.982   3.274  1.00  0.00     0.000 A 
HETATM   24  C   UNL     1      43.159 -19.282   2.275  1.00  0.00     0.001 A 
HETATM   25  C   UNL     1      42.944 -17.910   2.404  1.00  0.00     0.008 A 
ENDBRANCH  15  20
ENDBRANCH  12  15
ENDBRANCH   1  11
BRANCH   8  26
HETATM   26  C   UNL     1      41.294  -9.543  -0.366  1.00  0.00     0.270 C 
HETATM   27  N   UNL     1      40.453  -8.711   0.322  1.00  0.00    -0.365 N 
HETATM   28  H   UNL     1      39.483  -8.985   0.432  1.00  0.00     0.159 HD
HETATM   29  H   UNL     1      40.820  -7.876   0.749  1.00  0.00     0.159 HD
HETATM   30  O   UNL     1      42.484  -9.277  -0.493  1.00  0.00    -0.266 OA
ENDBRANCH   8  26
TORSDOF 6
ENDMDL
MODEL 6
REMARK VINA RESULT:      -8.2      2.363      4.505
REMARK  6 active torsions:
REMARK  status: ('A' for Active; 'I' for Inactive)
REMARK    1  A    between atoms: C_2  and  C_3 
REMARK    2  A    between atoms: C_3  and  C_4 
REMARK    3  A    between atoms: C_4  and  C_5 
REMARK    4  A    between atoms: C_4  and  C_21 
REMARK       I    between atoms: C_5  and  N_6 
REMARK    5  A    between atoms: N_6  and  C_7 
REMARK    6  A    between atoms: C_14  and  C_15 
REMARK       I    between atoms: C_15  and  N_16 
ROOT
HETATM    1  C   UNL     1      41.761 -14.634   1.725  1.00  0.00     0.035 A 
HETATM    2  C   UNL     1      41.735 -13.250   1.507  1.00  0.00     0.046 A 
HETATM    3  C   UNL     1      40.789 -12.703   0.613  1.00  0.00     0.030 A 
HETATM    4  C   UNL     1      39.919 -13.561  -0.048  1.00  0.00     0.063 A 
HETATM    5  N   UNL     1      39.152 -12.757  -0.843  1.00  0.00    -0.277 N 
HETATM    6  H   UNL     1      38.415 -13.044  -1.477  1.00  0.00     0.189 HD
HETATM    7  N   UNL     1      39.420 -11.445  -0.734  1.00  0.00    -0.168 NA
HETATM    8  C   UNL     1      40.428 -11.396   0.168  1.00  0.00     0.156 A 
HETATM    9  C   UNL     1      39.918 -14.944   0.145  1.00  0.00     0.034 A 
HETATM   10  C   UNL     1      40.847 -15.459   1.058  1.00  0.00     0.032 A 
ENDROOT
BRANCH   1  11
HETATM   11  N   UNL     1      42.651 -15.259   2.627  1.00  0.00    -0.327 N 
HETATM   12  C   UNL     1      42.318 -16.173   3.617  1.00  0.00     0.231 C 
HETATM   13  O   UNL     1      41.170 -16.458   3.953  1.00  0.00    -0.272 OA
HETATM   14  H   UNL     1      43.603 -14.923   2.613  1.00  0.00     0.169 HD
BRANCH  12  15
HETATM   15  C   UNL     1      43.551 -16.754   4.349  1.00  0.00     0.115 C 
BRANCH  15  16
HETATM   16  C   UNL     1      43.500 -16.391   5.865  1.00  0.00    -0.001 C 
HETATM   17  C   UNL     1      44.902 -16.314   6.491  1.00  0.00     0.011 C 
BRANCH  16  18
HETATM   18  C   UNL     1      42.720 -15.083   6.149  1.00  0.00     0.001 C 
HETATM   19  C   UNL     1      43.576 -13.838   6.348  1.00  0.00     0.005 C 
ENDBRANCH  16  18
ENDBRANCH  15  16
BRANCH  15  20
HETATM   20  C   UNL     1      43.677 -18.256   4.089  1.00  0.00    -0.045 A 
HETATM   21  C   UNL     1      43.562 -18.751   2.780  1.00  0.00     0.008 A 
HETATM   22  C   UNL     1      43.699 -20.117   2.519  1.00  0.00     0.001 A 
HETATM   23  C   UNL     1      43.948 -21.006   3.562  1.00  0.00     0.000 A 
HETATM   24  C   UNL     1      44.063 -20.530   4.866  1.00  0.00     0.001 A 
HETATM   25  C   UNL     1      43.933 -19.165   5.127  1.00  0.00     0.008 A 
ENDBRANCH  15  20
ENDBRANCH  12  15
ENDBRANCH   1  11
BRANCH   8  26
HETATM   26  C   UNL     1      41.003 -10.111   0.593  1.00  0.00     0.270 C 
HETATM   27  N   UNL     1      40.147  -9.329   1.320  1.00  0.00    -0.365 N 
HETATM   28  H   UNL     1      39.221  -9.686   1.524  1.00  0.00     0.159 HD
HETATM   29  H   UNL     1      40.467  -8.446   1.682  1.00  0.00     0.159 HD
HETATM   30  O   UNL     1      42.148  -9.743   0.353  1.00  0.00    -0.266 OA
ENDBRANCH   8  26
TORSDOF 6
ENDMDL
MODEL 7
REMARK VINA RESULT:      -8.1      2.828      7.763
REMARK  6 active torsions:
REMARK  status: ('A' for Active; 'I' for Inactive)
REMARK    1  A    between atoms: C_2  and  C_3 
REMARK    2  A    between atoms: C_3  and  C_4 
REMARK    3  A    between atoms: C_4  and  C_5 
REMARK    4  A    between atoms: C_4  and  C_21 
REMARK       I    between atoms: C_5  and  N_6 
REMARK    5  A    between atoms: N_6  and  C_7 
REMARK    6  A    between atoms: C_14  and  C_15 
REMARK       I    between atoms: C_15  and  N_16 
ROOT
HETATM    1  C   UNL     1      42.380 -15.796   2.450  1.00  0.00     0.035 A 
HETATM    2  C   UNL     1      42.172 -15.764   3.836  1.00  0.00     0.046 A 
HETATM    3  C   UNL     1      42.719 -16.783   4.646  1.00  0.00     0.030 A 
HETATM    4  C   UNL     1      43.434 -17.809   4.040  1.00  0.00     0.063 A 
HETATM    5  N   UNL     1      43.813 -18.637   5.058  1.00  0.00    -0.277 N 
HETATM    6  H   UNL     1      44.343 -19.498   4.984  1.00  0.00     0.189 HD
HETATM    7  N   UNL     1      43.439 -18.225   6.281  1.00  0.00    -0.168 NA
HETATM    8  C   UNL     1      42.766 -17.076   6.042  1.00  0.00     0.156 A 
HETATM    9  C   UNL     1      43.659 -17.872   2.664  1.00  0.00     0.034 A 
HETATM   10  C   UNL     1      43.131 -16.834   1.885  1.00  0.00     0.032 A 
ENDROOT
BRANCH   1  11
HETATM   11  N   UNL     1      41.898 -14.800   1.572  1.00  0.00    -0.327 N 
HETATM   12  C   UNL     1      40.661 -14.779   0.943  1.00  0.00     0.231 C 
HETATM   13  O   UNL     1      39.859 -15.711   0.940  1.00  0.00    -0.272 OA
HETATM   14  H   UNL     1      42.565 -14.092   1.299  1.00  0.00     0.169 HD
BRANCH  12  15
HETATM   15  C   UNL     1      40.407 -13.480   0.142  1.00  0.00     0.115 C 
BRANCH  15  16
HETATM   16  C   UNL     1      39.240 -13.691  -0.871  1.00  0.00    -0.001 C 
HETATM   17  C   UNL     1      38.448 -12.398  -1.123  1.00  0.00     0.011 C 
BRANCH  16  18
HETATM   18  C   UNL     1      39.709 -14.296  -2.219  1.00  0.00     0.001 C 
HETATM   19  C   UNL     1      38.637 -15.023  -3.021  1.00  0.00     0.005 C 
ENDBRANCH  16  18
ENDBRANCH  15  16
BRANCH  15  20
HETATM   20  C   UNL     1      40.184 -12.297   1.085  1.00  0.00    -0.045 A 
HETATM   21  C   UNL     1      39.232 -12.393   2.114  1.00  0.00     0.008 A 
HETATM   22  C   UNL     1      39.031 -11.332   3.000  1.00  0.00     0.001 A 
HETATM   23  C   UNL     1      39.775 -10.162   2.869  1.00  0.00     0.000 A 
HETATM   24  C   UNL     1      40.721 -10.052   1.854  1.00  0.00     0.001 A 
HETATM   25  C   UNL     1      40.927 -11.112   0.971  1.00  0.00     0.008 A 
ENDBRANCH  15  20
ENDBRANCH  12  15
ENDBRANCH   1  11
BRANCH   8  26
HETATM   26  C   UNL     1      42.204 -16.282   7.146  1.00  0.00     0.270 C 
HETATM   27  N   UNL     1      43.103 -15.987   8.135  1.00  0.00    -0.365 N 
HETATM   28  H   UNL     1      44.060 -16.305   8.030  1.00  0.00     0.159 HD
HETATM   29  H   UNL     1      42.815 -15.418   8.914  1.00  0.00     0.159 HD
HETATM   30  O   UNL     1      41.045 -15.887   7.204  1.00  0.00    -0.266 OA
ENDBRANCH   8  26
TORSDOF 6
ENDMDL
MODEL 8
REMARK VINA RESULT:      -8.0      5.517      9.030
REMARK  6 active torsions:
REMARK  status: ('A' for Active; 'I' for Inactive)
REMARK    1  A    between atoms: C_2  and  C_3 
REMARK    2  A    between atoms: C_3  and  C_4 
REMARK    3  A    between atoms: C_4  and  C_5 
REMARK    4  A    between atoms: C_4  and  C_21 
REMARK       I    between atoms: C_5  and  N_6 
REMARK    5  A    between atoms: N_6  and  C_7 
REMARK    6  A    between atoms: C_14  and  C_15 
REMARK       I    between atoms: C_15  and  N_16 
ROOT
HETATM    1  C   UNL     1      44.092 -12.299   7.153  1.00  0.00     0.035 A 
HETATM    2  C   UNL     1      43.651 -11.205   7.909  1.00  0.00     0.046 A 
HETATM    3  C   UNL     1      44.478 -10.068   8.038  1.00  0.00     0.030 A 
HETATM    4  C   UNL     1      45.725 -10.075   7.425  1.00  0.00     0.063 A 
HETATM    5  N   UNL     1      46.289  -8.870   7.738  1.00  0.00    -0.277 N 
HETATM    6  H   UNL     1      47.206  -8.533   7.468  1.00  0.00     0.189 HD
HETATM    7  N   UNL     1      45.507  -8.062   8.473  1.00  0.00    -0.168 NA
HETATM    8  C   UNL     1      44.380  -8.788   8.662  1.00  0.00     0.156 A 
HETATM    9  C   UNL     1      46.196 -11.147   6.666  1.00  0.00     0.034 A 
HETATM   10  C   UNL     1      45.346 -12.251   6.529  1.00  0.00     0.032 A 
ENDROOT
BRANCH   1  11
HETATM   11  N   UNL     1      43.315 -13.460   6.945  1.00  0.00    -0.327 N 
HETATM   12  C   UNL     1      42.954 -14.006   5.721  1.00  0.00     0.231 C 
HETATM   13  O   UNL     1      43.132 -13.466   4.631  1.00  0.00    -0.272 OA
HETATM   14  H   UNL     1      42.899 -13.866   7.771  1.00  0.00     0.169 HD
BRANCH  12  15
HETATM   15  C   UNL     1      42.200 -15.351   5.852  1.00  0.00     0.115 C 
BRANCH  15  16
HETATM   16  C   UNL     1      40.664 -15.124   5.713  1.00  0.00    -0.001 C 
HETATM   17  C   UNL     1      39.848 -16.227   6.407  1.00  0.00     0.011 C 
BRANCH  16  18
HETATM   18  C   UNL     1      40.207 -13.732   6.217  1.00  0.00     0.001 C 
HETATM   19  C   UNL     1      39.618 -12.809   5.157  1.00  0.00     0.005 C 
ENDBRANCH  16  18
ENDBRANCH  15  16
BRANCH  15  20
HETATM   20  C   UNL     1      42.753 -16.380   4.866  1.00  0.00    -0.045 A 
HETATM   21  C   UNL     1      43.809 -17.223   5.253  1.00  0.00     0.008 A 
HETATM   22  C   UNL     1      44.311 -18.185   4.375  1.00  0.00     0.001 A 
HETATM   23  C   UNL     1      43.770 -18.317   3.098  1.00  0.00     0.000 A 
HETATM   24  C   UNL     1      42.724 -17.488   2.700  1.00  0.00     0.001 A 
HETATM   25  C   UNL     1      42.217 -16.530   3.578  1.00  0.00     0.008 A 
ENDBRANCH  15  20
ENDBRANCH  12  15
ENDBRANCH   1  11
BRANCH   8  26
HETATM   26  C   UNL     1      43.240  -8.238   9.410  1.00  0.00     0.270 C 
HETATM   27  N   UNL     1      42.198  -7.830   8.621  1.00  0.00    -0.365 N 
HETATM   28  H   UNL     1      42.275  -7.951   7.618  1.00  0.00     0.159 HD
HETATM   29  H   UNL     1      41.361  -7.472   9.051  1.00  0.00     0.159 HD
HETATM   30  O   UNL     1      43.181  -8.151  10.632  1.00  0.00    -0.266 OA
ENDBRANCH   8  26
TORSDOF 6
ENDMDL
MODEL 9
REMARK VINA RESULT:      -7.9      4.430      7.856
REMARK  6 active torsions:
REMARK  status: ('A' for Active; 'I' for Inactive)
REMARK    1  A    between atoms: C_2  and  C_3 
REMARK    2  A    between atoms: C_3  and  C_4 
REMARK    3  A    between atoms: C_4  and  C_5 
REMARK    4  A    between atoms: C_4  and  C_21 
REMARK       I    between atoms: C_5  and  N_6 
REMARK    5  A    between atoms: N_6  and  C_7 
REMARK    6  A    between atoms: C_14  and  C_15 
REMARK       I    between atoms: C_15  and  N_16 
ROOT
HETATM    1  C   UNL     1      42.104 -12.422   5.126  1.00  0.00     0.035 A 
HETATM    2  C   UNL     1      43.191 -12.020   5.914  1.00  0.00     0.046 A 
HETATM    3  C   UNL     1      43.043 -10.933   6.802  1.00  0.00     0.030 A 
HETATM    4  C   UNL     1      41.821 -10.273   6.855  1.00  0.00     0.063 A 
HETATM    5  N   UNL     1      41.988  -9.275   7.773  1.00  0.00    -0.277 N 
HETATM    6  H   UNL     1      41.303  -8.584   8.060  1.00  0.00     0.189 HD
HETATM    7  N   UNL     1      43.200  -9.245   8.351  1.00  0.00    -0.168 NA
HETATM    8  C   UNL     1      43.862 -10.269   7.765  1.00  0.00     0.156 A 
HETATM    9  C   UNL     1      40.719 -10.646   6.084  1.00  0.00     0.034 A 
HETATM   10  C   UNL     1      40.882 -11.745   5.231  1.00  0.00     0.032 A 
ENDROOT
BRANCH   1  11
HETATM   11  N   UNL     1      42.156 -13.519   4.237  1.00  0.00    -0.327 N 
HETATM   12  C   UNL     1      41.518 -14.742   4.394  1.00  0.00     0.231 C 
HETATM   13  O   UNL     1      40.933 -15.103   5.413  1.00  0.00    -0.272 OA
HETATM   14  H   UNL     1      42.807 -13.435   3.469  1.00  0.00     0.169 HD
BRANCH  12  15
HETATM   15  C   UNL     1      41.688 -15.678   3.175  1.00  0.00     0.115 C 
BRANCH  15  16
HETATM   16  C   UNL     1      42.116 -14.857   1.920  1.00  0.00    -0.001 C 
HETATM   17  C   UNL     1      43.543 -15.198   1.461  1.00  0.00     0.011 C 
BRANCH  16  18
HETATM   18  C   UNL     1      41.130 -15.003   0.734  1.00  0.00     0.001 C 
HETATM   19  C   UNL     1      40.036 -13.945   0.654  1.00  0.00     0.005 C 
ENDBRANCH  16  18
ENDBRANCH  15  16
BRANCH  15  20
HETATM   20  C   UNL     1      42.643 -16.826   3.502  1.00  0.00    -0.045 A 
HETATM   21  C   UNL     1      42.727 -17.934   2.642  1.00  0.00     0.008 A 
HETATM   22  C   UNL     1      43.611 -18.981   2.911  1.00  0.00     0.001 A 
HETATM   23  C   UNL     1      44.420 -18.938   4.044  1.00  0.00     0.000 A 
HETATM   24  C   UNL     1      44.347 -17.848   4.908  1.00  0.00     0.001 A 
HETATM   25  C   UNL     1      43.468 -16.798   4.637  1.00  0.00     0.008 A 
ENDBRANCH  15  20
ENDBRANCH  12  15
ENDBRANCH   1  11
BRANCH   8  26
HETATM   26  C   UNL     1      45.243 -10.599   8.148  1.00  0.00     0.270 C 
HETATM   27  N   UNL     1      46.153 -10.452   7.137  1.00  0.00    -0.365 N 
HETATM   28  H   UNL     1      45.828 -10.119   6.237  1.00  0.00     0.159 HD
HETATM   29  H   UNL     1      47.129 -10.623   7.318  1.00  0.00     0.159 HD
HETATM   30  O   UNL     1      45.591 -10.960   9.267  1.00  0.00    -0.266 OA
ENDBRANCH   8  26
TORSDOF 6
ENDMDL
MODEL 10
REMARK VINA RESULT:      -7.8      5.118      8.549
REMARK  6 active torsions:
REMARK  status: ('A' for Active; 'I' for Inactive)
REMARK    1  A    between atoms: C_2  and  C_3 
REMARK    2  A    between atoms: C_3  and  C_4 
REMARK    3  A    between atoms: C_4  and  C_5 
REMARK    4  A    between atoms: C_4  and  C_21 
REMARK       I    between atoms: C_5  and  N_6 
REMARK    5  A    between atoms: N_6  and  C_7 
REMARK    6  A    between atoms: C_14  and  C_15 
REMARK       I    between atoms: C_15  and  N_16 
ROOT
HETATM    1  C   UNL     1      43.075 -11.746   5.881  1.00  0.00     0.035 A 
HETATM    2  C   UNL     1      43.526 -11.563   7.195  1.00  0.00     0.046 A 
HETATM    3  C   UNL     1      43.229 -10.360   7.872  1.00  0.00     0.030 A 
HETATM    4  C   UNL     1      42.512  -9.375   7.204  1.00  0.00     0.063 A 
HETATM    5  N   UNL     1      42.400  -8.343   8.092  1.00  0.00    -0.277 N 
HETATM    6  H   UNL     1      41.945  -7.450   7.941  1.00  0.00     0.189 HD
HETATM    7  N   UNL     1      42.950  -8.580   9.294  1.00  0.00    -0.168 NA
HETATM    8  C   UNL     1      43.463  -9.826   9.175  1.00  0.00     0.156 A 
HETATM    9  C   UNL     1      42.048  -9.525   5.896  1.00  0.00     0.034 A 
HETATM   10  C   UNL     1      42.331 -10.738   5.255  1.00  0.00     0.032 A 
ENDROOT
BRANCH   1  11
HETATM   11  N   UNL     1      43.297 -12.931   5.144  1.00  0.00    -0.327 N 
HETATM   12  C   UNL     1      42.582 -14.116   5.247  1.00  0.00     0.231 C 
HETATM   13  O   UNL     1      41.741 -14.356   6.111  1.00  0.00    -0.272 OA
HETATM   14  H   UNL     1      44.125 -12.942   4.565  1.00  0.00     0.169 HD
BRANCH  12  15
HETATM   15  C   UNL     1      43.011 -15.178   4.207  1.00  0.00     0.115 C 
BRANCH  15  16
HETATM   16  C   UNL     1      43.274 -16.546   4.910  1.00  0.00    -0.001 C 
HETATM   17  C   UNL     1      43.640 -17.653   3.908  1.00  0.00     0.011 C 
BRANCH  16  18
HETATM   18  C   UNL     1      44.351 -16.460   6.021  1.00  0.00     0.001 C 
HETATM   19  C   UNL     1      43.881 -16.834   7.421  1.00  0.00     0.005 C 
ENDBRANCH  16  18
ENDBRANCH  15  16
BRANCH  15  20
HETATM   20  C   UNL     1      41.992 -15.267   3.071  1.00  0.00    -0.045 A 
HETATM   21  C   UNL     1      40.701 -15.759   3.325  1.00  0.00     0.008 A 
HETATM   22  C   UNL     1      39.749 -15.825   2.306  1.00  0.00     0.001 A 
HETATM   23  C   UNL     1      40.074 -15.404   1.018  1.00  0.00     0.000 A 
HETATM   24  C   UNL     1      41.350 -14.915   0.750  1.00  0.00     0.001 A 
HETATM   25  C   UNL     1      42.301 -14.843   1.769  1.00  0.00     0.008 A 
ENDBRANCH  15  20
ENDBRANCH  12  15
ENDBRANCH   1  11
BRANCH   8  26
HETATM   26  C   UNL     1      44.140 -10.480  10.305  1.00  0.00     0.270 C 
HETATM   27  N   UNL     1      43.289 -10.977  11.255  1.00  0.00    -0.365 N 
HETATM   28  H   UNL     1      42.291 -10.883  11.107  1.00  0.00     0.159 HD
HETATM   29  H   UNL     1      43.664 -11.471  12.048  1.00  0.00     0.159 HD
HETATM   30  O   UNL     1      45.355 -10.603  10.416  1.00  0.00    -0.266 OA
ENDBRANCH   8  26
TORSDOF 6
ENDMDL
