MODEL 1
REMARK VINA RESULT:      -8.2      0.000      0.000
REMARK  5 active torsions:
REMARK  status: ('A' for Active; 'I' for Inactive)
REMARK    1  A    between atoms: C_3  and  O_4 
REMARK    2  A    between atoms: O_4  and  C_5 
REMARK    3  A    between atoms: C_5  and  C_6 
REMARK       I    between atoms: C_6  and  N_7 
REMARK    4  A    between atoms: N_7  and  N_8 
REMARK    5  A    between atoms: C_9  and  C_10 
ROOT
HETATM    1  C   UNL     1      44.084 -11.409   7.176  1.00  0.00     0.261 C 
HETATM    2  N   UNL     1      43.161 -12.451   7.277  1.00  0.00    -0.246 N 
HETATM    3  O   UNL     1      45.270 -11.540   6.888  1.00  0.00    -0.269 OA
HETATM    4  H   UNL     1      42.191 -12.262   7.501  1.00  0.00     0.192 HD
ENDROOT
BRANCH   2   5
HETATM    5  N   UNL     1      43.557 -13.740   7.063  1.00  0.00    -0.184 NA
HETATM    6  C   UNL     1      42.948 -14.362   6.105  1.00  0.00     0.152 C 
BRANCH   6   7
HETATM    7  C   UNL     1      43.291 -15.734   5.800  1.00  0.00     0.011 A 
HETATM    8  C   UNL     1      43.324 -16.353   4.509  1.00  0.00     0.004 A 
HETATM    9  C   UNL     1      43.710 -17.683   4.694  1.00  0.00     0.043 A 
HETATM   10  C   UNL     1      43.066 -15.910   3.195  1.00  0.00     0.014 A 
HETATM   11  C   UNL     1      43.850 -18.587   3.635  1.00  0.00     0.030 A 
HETATM   12  N   UNL     1      43.902 -17.866   6.045  1.00  0.00    -0.364 N 
HETATM   13  C   UNL     1      43.590 -18.120   2.343  1.00  0.00     0.002 A 
HETATM   14  C   UNL     1      43.202 -16.801   2.124  1.00  0.00     0.001 A 
HETATM   15  H   UNL     1      44.188 -18.736   6.473  1.00  0.00     0.165 HD
HETATM   16  C   UNL     1      43.655 -16.702   6.717  1.00  0.00     0.102 A 
ENDBRANCH   6   7
ENDBRANCH   2   5
BRANCH   1  17
HETATM   17  C   UNL     1      43.424 -10.056   7.457  1.00  0.00     0.280 C 
BRANCH  17  18
HETATM   18  O   UNL     1      44.327  -9.102   8.009  1.00  0.00    -0.341 OA
BRANCH  18  19
HETATM   19  C   UNL     1      43.870  -8.645   9.219  1.00  0.00     0.081 A 
HETATM   20  C   UNL     1      44.333  -9.224  10.412  1.00  0.00    -0.027 A 
HETATM   21  C   UNL     1      45.331 -10.346  10.415  1.00  0.00     0.051 C 
HETATM   22  C   UNL     1      43.816  -8.758  11.629  1.00  0.00     0.028 A 
HETATM   23  C   UNL     1      42.895  -7.711  11.646  1.00  0.00     0.012 A 
HETATM   24  C   UNL     1      42.479  -7.108  10.459  1.00  0.00     0.028 A 
HETATM   25 BR   UNL     1      42.207  -7.096  13.297  1.00  0.00    -0.051 Br
HETATM   26  C   UNL     1      42.977  -7.561   9.230  1.00  0.00    -0.027 A 
HETATM   27  C   UNL     1      42.527  -6.913   7.950  1.00  0.00     0.051 C 
ENDBRANCH  18  19
ENDBRANCH  17  18
ENDBRANCH   1  17
TORSDOF 5
ENDMDL
MODEL 2
REMARK VINA RESULT:      -8.0      7.626      9.839
REMARK  5 active torsions:
REMARK  status: ('A' for Active; 'I' for Inactive)
REMARK    1  A    between atoms: C_3  and  O_4 
REMARK    2  A    between atoms: O_4  and  C_5 
REMARK    3  A    between atoms: C_5  and  C_6 
REMARK       I    between atoms: C_6  and  N_7 
REMARK    4  A    between atoms: N_7  and  N_8 
REMARK    5  A    between atoms: C_9  and  C_10 
ROOT
HETATM    1  C   UNL     1      40.706 -14.328   0.880  1.00  0.00     0.261 C 
HETATM    2  N   UNL     1      42.041 -14.234   1.275  1.00  0.00    -0.246 N 
HETATM    3  O   UNL     1      40.001 -15.326   0.998  1.00  0.00    -0.269 OA
HETATM    4  H   UNL     1      42.553 -13.366   1.162  1.00  0.00     0.192 HD
ENDROOT
BRANCH   2   5
HETATM    5  N   UNL     1      42.669 -15.311   1.829  1.00  0.00    -0.184 NA
HETATM    6  C   UNL     1      42.536 -15.440   3.110  1.00  0.00     0.152 C 
BRANCH   6   7
HETATM    7  C   UNL     1      43.167 -16.548   3.795  1.00  0.00     0.011 A 
HETATM    8  C   UNL     1      43.258 -17.906   3.348  1.00  0.00     0.004 A 
HETATM    9  C   UNL     1      43.952 -18.621   4.327  1.00  0.00     0.043 A 
HETATM   10  C   UNL     1      42.819 -18.598   2.200  1.00  0.00     0.014 A 
HETATM   11  C   UNL     1      44.228 -19.989   4.215  1.00  0.00     0.030 A 
HETATM   12  N   UNL     1      44.269 -17.734   5.330  1.00  0.00    -0.364 N 
HETATM   13  C   UNL     1      43.782 -20.649   3.067  1.00  0.00     0.002 A 
HETATM   14  C   UNL     1      43.087 -19.967   2.072  1.00  0.00     0.001 A 
HETATM   15  H   UNL     1      44.775 -17.973   6.172  1.00  0.00     0.165 HD
HETATM   16  C   UNL     1      43.804 -16.486   5.020  1.00  0.00     0.102 A 
ENDBRANCH   6   7
ENDBRANCH   2   5
BRANCH   1  17
HETATM   17  C   UNL     1      40.210 -13.006   0.285  1.00  0.00     0.280 C 
BRANCH  17  18
HETATM   18  O   UNL     1      40.346 -12.950  -1.133  1.00  0.00    -0.341 OA
BRANCH  18  19
HETATM   19  C   UNL     1      39.175 -12.537  -1.716  1.00  0.00     0.081 A 
HETATM   20  C   UNL     1      38.884 -11.166  -1.823  1.00  0.00    -0.027 A 
HETATM   21  C   UNL     1      39.826 -10.114  -1.315  1.00  0.00     0.051 C 
HETATM   22  C   UNL     1      37.661 -10.783  -2.390  1.00  0.00     0.028 A 
HETATM   23  C   UNL     1      36.778 -11.746  -2.875  1.00  0.00     0.012 A 
HETATM   24  C   UNL     1      37.097 -13.102  -2.809  1.00  0.00     0.028 A 
HETATM   25 BR   UNL     1      35.131 -11.208  -3.634  1.00  0.00    -0.051 Br
HETATM   26  C   UNL     1      38.310 -13.511  -2.242  1.00  0.00    -0.027 A 
HETATM   27  C   UNL     1      38.653 -14.973  -2.169  1.00  0.00     0.051 C 
ENDBRANCH  18  19
ENDBRANCH  17  18
ENDBRANCH   1  17
TORSDOF 5
ENDMDL
MODEL 3
REMARK VINA RESULT:      -7.9      6.407      9.460
REMARK  5 active torsions:
REMARK  status: ('A' for Active; 'I' for Inactive)
REMARK    1  A    between atoms: C_3  and  O_4 
REMARK    2  A    between atoms: O_4  and  C_5 
REMARK    3  A    between atoms: C_5  and  C_6 
REMARK       I    between atoms: C_6  and  N_7 
REMARK    4  A    between atoms: N_7  and  N_8 
REMARK    5  A    between atoms: C_9  and  C_10 
ROOT
HETATM    1  C   UNL     1      40.976 -14.232   3.781  1.00  0.00     0.261 C 
HETATM    2  N   UNL     1      40.969 -12.974   3.178  1.00  0.00    -0.246 N 
HETATM    3  O   UNL     1      40.147 -15.116   3.584  1.00  0.00    -0.269 OA
HETATM    4  H   UNL     1      41.702 -12.302   3.377  1.00  0.00     0.192 HD
ENDROOT
BRANCH   2   5
HETATM    5  N   UNL     1      39.976 -12.638   2.304  1.00  0.00    -0.184 NA
HETATM    6  C   UNL     1      40.179 -12.971   1.070  1.00  0.00     0.152 C 
BRANCH   6   7
HETATM    7  C   UNL     1      39.188 -12.657   0.063  1.00  0.00     0.011 A 
HETATM    8  C   UNL     1      38.886 -13.405  -1.120  1.00  0.00     0.004 A 
HETATM    9  C   UNL     1      37.863 -12.730  -1.790  1.00  0.00     0.043 A 
HETATM   10  C   UNL     1      39.382 -14.598  -1.686  1.00  0.00     0.014 A 
HETATM   11  C   UNL     1      37.314 -13.187  -2.994  1.00  0.00     0.030 A 
HETATM   12  N   UNL     1      37.557 -11.614  -1.046  1.00  0.00    -0.364 N 
HETATM   13  C   UNL     1      37.824 -14.372  -3.532  1.00  0.00     0.002 A 
HETATM   14  C   UNL     1      38.844 -15.070  -2.890  1.00  0.00     0.001 A 
HETATM   15  H   UNL     1      36.848 -10.936  -1.290  1.00  0.00     0.165 HD
HETATM   16  C   UNL     1      38.344 -11.561   0.070  1.00  0.00     0.102 A 
ENDBRANCH   6   7
ENDBRANCH   2   5
BRANCH   1  17
HETATM   17  C   UNL     1      42.175 -14.389   4.721  1.00  0.00     0.280 C 
BRANCH  17  18
HETATM   18  O   UNL     1      43.365 -14.784   4.042  1.00  0.00    -0.341 OA
BRANCH  18  19
HETATM   19  C   UNL     1      43.547 -16.140   4.134  1.00  0.00     0.081 A 
HETATM   20  C   UNL     1      43.389 -16.952   2.998  1.00  0.00    -0.027 A 
HETATM   21  C   UNL     1      43.023 -16.381   1.659  1.00  0.00     0.051 C 
HETATM   22  C   UNL     1      43.546 -18.338   3.138  1.00  0.00     0.028 A 
HETATM   23  C   UNL     1      43.895 -18.886   4.372  1.00  0.00     0.012 A 
HETATM   24  C   UNL     1      44.099 -18.067   5.482  1.00  0.00     0.028 A 
HETATM   25 BR   UNL     1      44.101 -20.758   4.541  1.00  0.00    -0.051 Br
HETATM   26  C   UNL     1      43.942 -16.679   5.370  1.00  0.00    -0.027 A 
HETATM   27  C   UNL     1      44.159 -15.797   6.567  1.00  0.00     0.051 C 
ENDBRANCH  18  19
ENDBRANCH  17  18
ENDBRANCH   1  17
TORSDOF 5
ENDMDL
MODEL 4
REMARK VINA RESULT:      -7.7      4.144      9.946
REMARK  5 active torsions:
REMARK  status: ('A' for Active; 'I' for Inactive)
REMARK    1  A    between atoms: C_3  and  O_4 
REMARK    2  A    between atoms: O_4  and  C_5 
REMARK    3  A    between atoms: C_5  and  C_6 
REMARK       I    between atoms: C_6  and  N_7 
REMARK    4  A    between atoms: N_7  and  N_8 
REMARK    5  A    between atoms: C_9  and  C_10 
ROOT
HETATM    1  C   UNL     1      40.878 -13.562   5.814  1.00  0.00     0.261 C 
HETATM    2  N   UNL     1      41.937 -12.656   5.747  1.00  0.00    -0.246 N 
HETATM    3  O   UNL     1      39.808 -13.359   6.380  1.00  0.00    -0.269 OA
HETATM    4  H   UNL     1      42.786 -12.890   5.244  1.00  0.00     0.192 HD
ENDROOT
BRANCH   2   5
HETATM    5  N   UNL     1      41.837 -11.438   6.355  1.00  0.00    -0.184 NA
HETATM    6  C   UNL     1      42.850 -11.087   7.079  1.00  0.00     0.152 C 
BRANCH   6   7
HETATM    7  C   UNL     1      42.840  -9.814   7.769  1.00  0.00     0.011 A 
HETATM    8  C   UNL     1      43.115  -9.576   9.154  1.00  0.00     0.004 A 
HETATM    9  C   UNL     1      42.992  -8.203   9.373  1.00  0.00     0.043 A 
HETATM   10  C   UNL     1      43.461 -10.399  10.247  1.00  0.00     0.014 A 
HETATM   11  C   UNL     1      43.197  -7.612  10.626  1.00  0.00     0.030 A 
HETATM   12  N   UNL     1      42.654  -7.628   8.169  1.00  0.00    -0.364 N 
HETATM   13  C   UNL     1      43.541  -8.450  11.690  1.00  0.00     0.002 A 
HETATM   14  C   UNL     1      43.671  -9.824  11.506  1.00  0.00     0.001 A 
HETATM   15  H   UNL     1      42.500  -6.639   8.026  1.00  0.00     0.165 HD
HETATM   16  C   UNL     1      42.562  -8.586   7.199  1.00  0.00     0.102 A 
ENDBRANCH   6   7
ENDBRANCH   2   5
BRANCH   1  17
HETATM   17  C   UNL     1      41.210 -14.858   5.068  1.00  0.00     0.280 C 
BRANCH  17  18
HETATM   18  O   UNL     1      42.460 -14.799   4.384  1.00  0.00    -0.341 OA
BRANCH  18  19
HETATM   19  C   UNL     1      42.788 -16.028   3.870  1.00  0.00     0.081 A 
HETATM   20  C   UNL     1      42.333 -16.405   2.596  1.00  0.00    -0.027 A 
HETATM   21  C   UNL     1      41.484 -15.496   1.755  1.00  0.00     0.051 C 
HETATM   22  C   UNL     1      42.657 -17.683   2.119  1.00  0.00     0.028 A 
HETATM   23  C   UNL     1      43.451 -18.538   2.882  1.00  0.00     0.012 A 
HETATM   24  C   UNL     1      43.940 -18.136   4.124  1.00  0.00     0.028 A 
HETATM   25 BR   UNL     1      43.876 -20.259   2.222  1.00  0.00    -0.051 Br
HETATM   26  C   UNL     1      43.626 -16.866   4.625  1.00  0.00    -0.027 A 
HETATM   27  C   UNL     1      44.151 -16.434   5.966  1.00  0.00     0.051 C 
ENDBRANCH  18  19
ENDBRANCH  17  18
ENDBRANCH   1  17
TORSDOF 5
ENDMDL
MODEL 5
REMARK VINA RESULT:      -7.7      1.444      2.068
REMARK  5 active torsions:
REMARK  status: ('A' for Active; 'I' for Inactive)
REMARK    1  A    between atoms: C_3  and  O_4 
REMARK    2  A    between atoms: O_4  and  C_5 
REMARK    3  A    between atoms: C_5  and  C_6 
REMARK       I    between atoms: C_6  and  N_7 
REMARK    4  A    between atoms: N_7  and  N_8 
REMARK    5  A    between atoms: C_9  and  C_10 
ROOT
HETATM    1  C   UNL     1      43.766 -11.164   6.630  1.00  0.00     0.261 C 
HETATM    2  N   UNL     1      42.867 -11.723   5.720  1.00  0.00    -0.246 N 
HETATM    3  O   UNL     1      44.945 -11.485   6.747  1.00  0.00    -0.269 OA
HETATM    4  H   UNL     1      41.911 -11.391   5.669  1.00  0.00     0.192 HD
ENDROOT
BRANCH   2   5
HETATM    5  N   UNL     1      43.273 -12.721   4.881  1.00  0.00    -0.184 NA
HETATM    6  C   UNL     1      42.341 -13.267   4.168  1.00  0.00     0.152 C 
BRANCH   6   7
HETATM    7  C   UNL     1      42.667 -14.337   3.249  1.00  0.00     0.011 A 
HETATM    8  C   UNL     1      43.014 -15.687   3.577  1.00  0.00     0.004 A 
HETATM    9  C   UNL     1      43.243 -16.362   2.376  1.00  0.00     0.043 A 
HETATM   10  C   UNL     1      43.153 -16.404   4.784  1.00  0.00     0.014 A 
HETATM   11  C   UNL     1      43.603 -17.714   2.322  1.00  0.00     0.030 A 
HETATM   12  N   UNL     1      43.045 -15.457   1.357  1.00  0.00    -0.364 N 
HETATM   13  C   UNL     1      43.732 -18.400   3.532  1.00  0.00     0.002 A 
HETATM   14  C   UNL     1      43.512 -17.758   4.747  1.00  0.00     0.001 A 
HETATM   15  H   UNL     1      43.141 -15.668   0.374  1.00  0.00     0.165 HD
HETATM   16  C   UNL     1      42.697 -14.239   1.870  1.00  0.00     0.102 A 
ENDBRANCH   6   7
ENDBRANCH   2   5
BRANCH   1  17
HETATM   17  C   UNL     1      43.097 -10.070   7.466  1.00  0.00     0.280 C 
BRANCH  17  18
HETATM   18  O   UNL     1      44.010  -9.061   7.893  1.00  0.00    -0.341 OA
BRANCH  18  19
HETATM   19  C   UNL     1      43.705  -8.637   9.162  1.00  0.00     0.081 A 
HETATM   20  C   UNL     1      44.302  -9.252  10.275  1.00  0.00    -0.027 A 
HETATM   21  C   UNL     1      45.284 -10.378  10.127  1.00  0.00     0.051 C 
HETATM   22  C   UNL     1      43.938  -8.817  11.557  1.00  0.00     0.028 A 
HETATM   23  C   UNL     1      43.034  -7.767  11.713  1.00  0.00     0.012 A 
HETATM   24  C   UNL     1      42.484  -7.130  10.601  1.00  0.00     0.028 A 
HETATM   25 BR   UNL     1      42.554  -7.197  13.450  1.00  0.00    -0.051 Br
HETATM   26  C   UNL     1      42.828  -7.549   9.310  1.00  0.00    -0.027 A 
HETATM   27  C   UNL     1      42.233  -6.864   8.111  1.00  0.00     0.051 C 
ENDBRANCH  18  19
ENDBRANCH  17  18
ENDBRANCH   1  17
TORSDOF 5
ENDMDL
MODEL 6
REMARK VINA RESULT:      -7.7      7.475      9.397
REMARK  5 active torsions:
REMARK  status: ('A' for Active; 'I' for Inactive)
REMARK    1  A    between atoms: C_3  and  O_4 
REMARK    2  A    between atoms: O_4  and  C_5 
REMARK    3  A    between atoms: C_5  and  C_6 
REMARK       I    between atoms: C_6  and  N_7 
REMARK    4  A    between atoms: N_7  and  N_8 
REMARK    5  A    between atoms: C_9  and  C_10 
ROOT
HETATM    1  C   UNL     1      40.376 -14.039   1.533  1.00  0.00     0.261 C 
HETATM    2  N   UNL     1      41.521 -14.817   1.362  1.00  0.00    -0.246 N 
HETATM    3  O   UNL     1      39.566 -14.163   2.447  1.00  0.00    -0.269 OA
HETATM    4  H   UNL     1      42.155 -14.640   0.590  1.00  0.00     0.192 HD
ENDROOT
BRANCH   2   5
HETATM    5  N   UNL     1      41.806 -15.820   2.243  1.00  0.00    -0.184 NA
HETATM    6  C   UNL     1      43.011 -15.826   2.716  1.00  0.00     0.152 C 
BRANCH   6   7
HETATM    7  C   UNL     1      43.415 -16.850   3.655  1.00  0.00     0.011 A 
HETATM    8  C   UNL     1      43.535 -18.256   3.406  1.00  0.00     0.004 A 
HETATM    9  C   UNL     1      43.955 -18.855   4.595  1.00  0.00     0.043 A 
HETATM   10  C   UNL     1      43.330 -19.079   2.279  1.00  0.00     0.014 A 
HETATM   11  C   UNL     1      44.180 -20.232   4.714  1.00  0.00     0.030 A 
HETATM   12  N   UNL     1      44.083 -17.854   5.532  1.00  0.00    -0.364 N 
HETATM   13  C   UNL     1      43.970 -21.024   3.582  1.00  0.00     0.002 A 
HETATM   14  C   UNL     1      43.551 -20.459   2.380  1.00  0.00     0.001 A 
HETATM   15  H   UNL     1      44.375 -17.995   6.489  1.00  0.00     0.165 HD
HETATM   16  C   UNL     1      43.763 -16.646   4.977  1.00  0.00     0.102 A 
ENDBRANCH   6   7
ENDBRANCH   2   5
BRANCH   1  17
HETATM   17  C   UNL     1      40.256 -12.980   0.433  1.00  0.00     0.280 C 
BRANCH  17  18
HETATM   18  O   UNL     1      39.150 -13.206  -0.437  1.00  0.00    -0.341 OA
BRANCH  18  19
HETATM   19  C   UNL     1      38.962 -12.133  -1.271  1.00  0.00     0.081 A 
HETATM   20  C   UNL     1      39.635 -12.069  -2.502  1.00  0.00    -0.027 A 
HETATM   21  C   UNL     1      40.570 -13.153  -2.953  1.00  0.00     0.051 C 
HETATM   22  C   UNL     1      39.447 -10.939  -3.310  1.00  0.00     0.028 A 
HETATM   23  C   UNL     1      38.576  -9.926  -2.912  1.00  0.00     0.012 A 
HETATM   24  C   UNL     1      37.874 -10.022  -1.711  1.00  0.00     0.028 A 
HETATM   25 BR   UNL     1      38.338  -8.408  -4.016  1.00  0.00    -0.051 Br
HETATM   26  C   UNL     1      38.048 -11.138  -0.883  1.00  0.00    -0.027 A 
HETATM   27  C   UNL     1      37.294 -11.240   0.413  1.00  0.00     0.051 C 
ENDBRANCH  18  19
ENDBRANCH  17  18
ENDBRANCH   1  17
TORSDOF 5
ENDMDL
MODEL 7
REMARK VINA RESULT:      -7.7      0.938      1.959
REMARK  5 active torsions:
REMARK  status: ('A' for Active; 'I' for Inactive)
REMARK    1  A    between atoms: C_3  and  O_4 
REMARK    2  A    between atoms: O_4  and  C_5 
REMARK    3  A    between atoms: C_5  and  C_6 
REMARK       I    between atoms: C_6  and  N_7 
REMARK    4  A    between atoms: N_7  and  N_8 
REMARK    5  A    between atoms: C_9  and  C_10 
ROOT
HETATM    1  C   UNL     1      42.948 -10.943   6.616  1.00  0.00     0.261 C 
HETATM    2  N   UNL     1      43.356 -12.080   7.315  1.00  0.00    -0.246 N 
HETATM    3  O   UNL     1      42.949 -10.825   5.394  1.00  0.00    -0.269 OA
HETATM    4  H   UNL     1      43.308 -12.109   8.327  1.00  0.00     0.192 HD
ENDROOT
BRANCH   2   5
HETATM    5  N   UNL     1      43.816 -13.172   6.638  1.00  0.00    -0.184 NA
HETATM    6  C   UNL     1      43.053 -14.217   6.674  1.00  0.00     0.152 C 
BRANCH   6   7
HETATM    7  C   UNL     1      43.452 -15.429   5.991  1.00  0.00     0.011 A 
HETATM    8  C   UNL     1      43.180 -15.788   4.631  1.00  0.00     0.004 A 
HETATM    9  C   UNL     1      43.757 -17.039   4.407  1.00  0.00     0.043 A 
HETATM   10  C   UNL     1      42.499 -15.165   3.564  1.00  0.00     0.014 A 
HETATM   11  C   UNL     1      43.688 -17.698   3.173  1.00  0.00     0.030 A 
HETATM   12  N   UNL     1      44.355 -17.428   5.585  1.00  0.00    -0.364 N 
HETATM   13  C   UNL     1      43.009 -17.057   2.133  1.00  0.00     0.002 A 
HETATM   14  C   UNL     1      42.421 -15.809   2.323  1.00  0.00     0.001 A 
HETATM   15  H   UNL     1      44.854 -18.297   5.718  1.00  0.00     0.165 HD
HETATM   16  C   UNL     1      44.180 -16.467   6.541  1.00  0.00     0.102 A 
ENDBRANCH   6   7
ENDBRANCH   2   5
BRANCH   1  17
HETATM   17  C   UNL     1      42.474  -9.846   7.573  1.00  0.00     0.280 C 
BRANCH  17  18
HETATM   18  O   UNL     1      43.525  -8.974   7.982  1.00  0.00    -0.341 OA
BRANCH  18  19
HETATM   19  C   UNL     1      43.373  -8.615   9.298  1.00  0.00     0.081 A 
HETATM   20  C   UNL     1      42.398  -7.672   9.663  1.00  0.00    -0.027 A 
HETATM   21  C   UNL     1      41.497  -7.028   8.650  1.00  0.00     0.051 C 
HETATM   22  C   UNL     1      42.296  -7.301  11.012  1.00  0.00     0.028 A 
HETATM   23  C   UNL     1      43.119  -7.895  11.968  1.00  0.00     0.012 A 
HETATM   24  C   UNL     1      44.049  -8.868  11.602  1.00  0.00     0.028 A 
HETATM   25 BR   UNL     1      42.967  -7.381  13.782  1.00  0.00    -0.051 Br
HETATM   26  C   UNL     1      44.174  -9.251  10.261  1.00  0.00    -0.027 A 
HETATM   27  C   UNL     1      45.179 -10.297   9.866  1.00  0.00     0.051 C 
ENDBRANCH  18  19
ENDBRANCH  17  18
ENDBRANCH   1  17
TORSDOF 5
ENDMDL
MODEL 8
REMARK VINA RESULT:      -7.6      4.186      9.556
REMARK  5 active torsions:
REMARK  status: ('A' for Active; 'I' for Inactive)
REMARK    1  A    between atoms: C_3  and  O_4 
REMARK    2  A    between atoms: O_4  and  C_5 
REMARK    3  A    between atoms: C_5  and  C_6 
REMARK       I    between atoms: C_6  and  N_7 
REMARK    4  A    between atoms: N_7  and  N_8 
REMARK    5  A    between atoms: C_9  and  C_10 
ROOT
HETATM    1  C   UNL     1      43.294 -12.505   3.835  1.00  0.00     0.261 C 
HETATM    2  N   UNL     1      43.504 -12.688   5.202  1.00  0.00    -0.246 N 
HETATM    3  O   UNL     1      43.387 -11.434   3.242  1.00  0.00    -0.269 OA
HETATM    4  H   UNL     1      43.428 -13.610   5.617  1.00  0.00     0.192 HD
ENDROOT
BRANCH   2   5
HETATM    5  N   UNL     1      43.823 -11.624   5.996  1.00  0.00    -0.184 NA
HETATM    6  C   UNL     1      44.719 -11.849   6.901  1.00  0.00     0.152 C 
BRANCH   6   7
HETATM    7  C   UNL     1      45.126 -10.787   7.796  1.00  0.00     0.011 A 
HETATM    8  C   UNL     1      44.520 -10.422   9.041  1.00  0.00     0.004 A 
HETATM    9  C   UNL     1      45.245  -9.346   9.559  1.00  0.00     0.043 A 
HETATM   10  C   UNL     1      43.422 -10.906   9.784  1.00  0.00     0.014 A 
HETATM   11  C   UNL     1      44.929  -8.733  10.777  1.00  0.00     0.030 A 
HETATM   12  N   UNL     1      46.252  -9.066   8.663  1.00  0.00    -0.364 N 
HETATM   13  C   UNL     1      43.838  -9.234  11.492  1.00  0.00     0.002 A 
HETATM   14  C   UNL     1      43.093 -10.305  11.005  1.00  0.00     0.001 A 
HETATM   15  H   UNL     1      46.937  -8.333   8.778  1.00  0.00     0.165 HD
HETATM   16  C   UNL     1      46.191  -9.926   7.602  1.00  0.00     0.102 A 
ENDBRANCH   6   7
ENDBRANCH   2   5
BRANCH   1  17
HETATM   17  C   UNL     1      42.947 -13.828   3.146  1.00  0.00     0.280 C 
BRANCH  17  18
HETATM   18  O   UNL     1      42.357 -14.777   4.032  1.00  0.00    -0.341 OA
BRANCH  18  19
HETATM   19  C   UNL     1      42.669 -16.057   3.648  1.00  0.00     0.081 A 
HETATM   20  C   UNL     1      43.582 -16.816   4.398  1.00  0.00    -0.027 A 
HETATM   21  C   UNL     1      44.243 -16.272   5.631  1.00  0.00     0.051 C 
HETATM   22  C   UNL     1      43.904 -18.106   3.955  1.00  0.00     0.028 A 
HETATM   23  C   UNL     1      43.294 -18.632   2.817  1.00  0.00     0.012 A 
HETATM   24  C   UNL     1      42.351 -17.889   2.107  1.00  0.00     0.028 A 
HETATM   25 BR   UNL     1      43.744 -20.374   2.233  1.00  0.00    -0.051 Br
HETATM   26  C   UNL     1      42.016 -16.595   2.527  1.00  0.00    -0.027 A 
HETATM   27  C   UNL     1      41.002 -15.793   1.760  1.00  0.00     0.051 C 
ENDBRANCH  18  19
ENDBRANCH  17  18
ENDBRANCH   1  17
TORSDOF 5
ENDMDL
MODEL 9
REMARK VINA RESULT:      -7.4      6.183      7.586
REMARK  5 active torsions:
REMARK  status: ('A' for Active; 'I' for Inactive)
REMARK    1  A    between atoms: C_3  and  O_4 
REMARK    2  A    between atoms: O_4  and  C_5 
REMARK    3  A    between atoms: C_5  and  C_6 
REMARK       I    between atoms: C_6  and  N_7 
REMARK    4  A    between atoms: N_7  and  N_8 
REMARK    5  A    between atoms: C_9  and  C_10 
ROOT
HETATM    1  C   UNL     1      42.620 -11.916   2.622  1.00  0.00     0.261 C 
HETATM    2  N   UNL     1      42.252 -13.258   2.517  1.00  0.00    -0.246 N 
HETATM    3  O   UNL     1      43.529 -11.484   3.325  1.00  0.00    -0.269 OA
HETATM    4  H   UNL     1      41.500 -13.540   1.898  1.00  0.00     0.192 HD
ENDROOT
BRANCH   2   5
HETATM    5  N   UNL     1      42.911 -14.208   3.242  1.00  0.00    -0.184 NA
HETATM    6  C   UNL     1      42.550 -15.431   3.023  1.00  0.00     0.152 C 
BRANCH   6   7
HETATM    7  C   UNL     1      43.184 -16.514   3.744  1.00  0.00     0.011 A 
HETATM    8  C   UNL     1      43.292 -17.882   3.336  1.00  0.00     0.004 A 
HETATM    9  C   UNL     1      43.984 -18.563   4.340  1.00  0.00     0.043 A 
HETATM   10  C   UNL     1      42.870 -18.610   2.203  1.00  0.00     0.014 A 
HETATM   11  C   UNL     1      44.274 -19.931   4.268  1.00  0.00     0.030 A 
HETATM   12  N   UNL     1      44.283 -17.646   5.322  1.00  0.00    -0.364 N 
HETATM   13  C   UNL     1      43.845 -20.627   3.135  1.00  0.00     0.002 A 
HETATM   14  C   UNL     1      43.153 -19.979   2.116  1.00  0.00     0.001 A 
HETATM   15  H   UNL     1      44.784 -17.857   6.174  1.00  0.00     0.165 HD
HETATM   16  C   UNL     1      43.810 -16.412   4.973  1.00  0.00     0.102 A 
ENDBRANCH   6   7
ENDBRANCH   2   5
BRANCH   1  17
HETATM   17  C   UNL     1      41.749 -11.031   1.725  1.00  0.00     0.280 C 
BRANCH  17  18
HETATM   18  O   UNL     1      40.959 -11.781   0.805  1.00  0.00    -0.341 OA
BRANCH  18  19
HETATM   19  C   UNL     1      39.694 -11.259   0.716  1.00  0.00     0.081 A 
HETATM   20  C   UNL     1      38.699 -11.656   1.625  1.00  0.00    -0.027 A 
HETATM   21  C   UNL     1      38.973 -12.651   2.716  1.00  0.00     0.051 C 
HETATM   22  C   UNL     1      37.408 -11.130   1.480  1.00  0.00     0.028 A 
HETATM   23  C   UNL     1      37.137 -10.198   0.478  1.00  0.00     0.012 A 
HETATM   24  C   UNL     1      38.143  -9.772  -0.389  1.00  0.00     0.028 A 
HETATM   25 BR   UNL     1      35.389  -9.501   0.297  1.00  0.00    -0.051 Br
HETATM   26  C   UNL     1      39.440 -10.287  -0.267  1.00  0.00    -0.027 A 
HETATM   27  C   UNL     1      40.523  -9.829  -1.203  1.00  0.00     0.051 C 
ENDBRANCH  18  19
ENDBRANCH  17  18
ENDBRANCH   1  17
TORSDOF 5
ENDMDL
MODEL 10
REMARK VINA RESULT:      -7.2      6.539      9.821
REMARK  5 active torsions:
REMARK  status: ('A' for Active; 'I' for Inactive)
REMARK    1  A    between atoms: C_3  and  O_4 
REMARK    2  A    between atoms: O_4  and  C_5 
REMARK    3  A    between atoms: C_5  and  C_6 
REMARK       I    between atoms: C_6  and  N_7 
REMARK    4  A    between atoms: N_7  and  N_8 
REMARK    5  A    between atoms: C_9  and  C_10 
ROOT
HETATM    1  C   UNL     1      41.139 -13.482   3.877  1.00  0.00     0.261 C 
HETATM    2  N   UNL     1      41.984 -12.443   3.485  1.00  0.00    -0.246 N 
HETATM    3  O   UNL     1      39.949 -13.573   3.592  1.00  0.00    -0.269 OA
HETATM    4  H   UNL     1      42.964 -12.449   3.744  1.00  0.00     0.192 HD
ENDROOT
BRANCH   2   5
HETATM    5  N   UNL     1      41.498 -11.410   2.736  1.00  0.00    -0.184 NA
HETATM    6  C   UNL     1      41.701 -11.497   1.461  1.00  0.00     0.152 C 
BRANCH   6   7
HETATM    7  C   UNL     1      41.228 -10.451   0.580  1.00  0.00     0.011 A 
HETATM    8  C   UNL     1      41.015 -10.538  -0.833  1.00  0.00     0.004 A 
HETATM    9  C   UNL     1      40.554  -9.292  -1.263  1.00  0.00     0.043 A 
HETATM   10  C   UNL     1      41.167 -11.561  -1.793  1.00  0.00     0.014 A 
HETATM   11  C   UNL     1      40.239  -9.018  -2.599  1.00  0.00     0.030 A 
HETATM   12  N   UNL     1      40.491  -8.478  -0.155  1.00  0.00    -0.364 N 
HETATM   13  C   UNL     1      40.397 -10.050  -3.528  1.00  0.00     0.002 A 
HETATM   14  C   UNL     1      40.855 -11.304  -3.134  1.00  0.00     0.001 A 
HETATM   15  H   UNL     1      40.189  -7.513  -0.165  1.00  0.00     0.165 HD
HETATM   16  C   UNL     1      40.891  -9.164   0.957  1.00  0.00     0.102 A 
ENDBRANCH   6   7
ENDBRANCH   2   5
BRANCH   1  17
HETATM   17  C   UNL     1      41.894 -14.526   4.706  1.00  0.00     0.280 C 
BRANCH  17  18
HETATM   18  O   UNL     1      43.213 -14.771   4.223  1.00  0.00    -0.341 OA
BRANCH  18  19
HETATM   19  C   UNL     1      43.360 -16.086   3.863  1.00  0.00     0.081 A 
HETATM   20  C   UNL     1      43.063 -16.498   2.554  1.00  0.00    -0.027 A 
HETATM   21  C   UNL     1      42.582 -15.533   1.508  1.00  0.00     0.051 C 
HETATM   22  C   UNL     1      43.189 -17.857   2.233  1.00  0.00     0.028 A 
HETATM   23  C   UNL     1      43.643 -18.766   3.188  1.00  0.00     0.012 A 
HETATM   24  C   UNL     1      43.983 -18.339   4.471  1.00  0.00     0.028 A 
HETATM   25 BR   UNL     1      43.804 -20.595   2.736  1.00  0.00    -0.051 Br
HETATM   26  C   UNL     1      43.860 -16.988   4.818  1.00  0.00    -0.027 A 
HETATM   27  C   UNL     1      44.224 -16.529   6.202  1.00  0.00     0.051 C 
ENDBRANCH  18  19
ENDBRANCH  17  18
ENDBRANCH   1  17
TORSDOF 5
ENDMDL
