MODEL 1
REMARK VINA RESULT:      -9.4      0.000      0.000
REMARK  5 active torsions:
REMARK  status: ('A' for Active; 'I' for Inactive)
REMARK    1  A    between atoms: C_6  and  S_7 
REMARK    2  A    between atoms: S_7  and  C_8 
REMARK    3  A    between atoms: C_8  and  C_9 
REMARK       I    between atoms: C_9  and  N_10 
REMARK    4  A    between atoms: N_10  and  C_11 
REMARK    5  A    between atoms: N_22  and  C_23 
ROOT
HETATM    1  C   UNL     1      45.730  -9.443   8.972  1.00  0.00     0.001 A 
HETATM    2  C   UNL     1      45.376 -10.660   8.390  1.00  0.00     0.019 A 
HETATM    3  C   UNL     1      44.173 -10.767   7.680  1.00  0.00     0.061 A 
HETATM    4  C   UNL     1      43.324  -9.675   7.551  1.00  0.00     0.075 A 
HETATM    5  N   UNL     1      42.086  -9.768   6.911  1.00  0.00    -0.223 NA
HETATM    6  C   UNL     1      41.777 -10.873   6.309  1.00  0.00     0.177 A 
HETATM    7  N   UNL     1      42.603 -12.000   6.262  1.00  0.00    -0.256 N 
HETATM    8  C   UNL     1      43.791 -12.022   7.007  1.00  0.00     0.267 A 
HETATM    9  O   UNL     1      44.559 -12.977   7.106  1.00  0.00    -0.267 OA
HETATM   10  C   UNL     1      43.695  -8.455   8.124  1.00  0.00     0.032 A 
HETATM   11  C   UNL     1      44.893  -8.339   8.833  1.00  0.00     0.002 A 
ENDROOT
BRANCH   6  12
HETATM   12  S   UNL     1      40.147 -10.977   5.644  1.00  0.00    -0.082 SA
BRANCH  12  13
HETATM   13  C   UNL     1      40.418 -10.679   3.875  1.00  0.00     0.185 C 
BRANCH  13  14
HETATM   14  C   UNL     1      39.803 -11.775   3.011  1.00  0.00     0.231 C 
HETATM   15  N   UNL     1      40.206 -11.727   1.690  1.00  0.00    -0.326 N 
HETATM   16  H   UNL     1      40.758 -10.911   1.432  1.00  0.00     0.169 HD
HETATM   17  O   UNL     1      39.056 -12.616   3.505  1.00  0.00    -0.272 OA
BRANCH  15  18
HETATM   18  C   UNL     1      39.908 -12.635   0.654  1.00  0.00     0.037 A 
HETATM   19  C   UNL     1      39.351 -12.254  -0.573  1.00  0.00     0.061 A 
HETATM   20  C   UNL     1      39.075 -13.258  -1.474  1.00  0.00     0.065 A 
HETATM   21  C   UNL     1      39.335 -14.600  -1.203  1.00  0.00     0.063 A 
HETATM   22  N   UNL     1      38.513 -13.183  -2.743  1.00  0.00    -0.306 N 
HETATM   23  N   UNL     1      38.935 -15.347  -2.304  1.00  0.00    -0.307 N 
HETATM   24  C   UNL     1      39.890 -15.009  -0.018  1.00  0.00     0.034 A 
HETATM   25  C   UNL     1      38.416 -14.476  -3.273  1.00  0.00     0.325 A 
HETATM   26  H   UNL     1      38.986 -16.345  -2.420  1.00  0.00     0.170 HD
HETATM   27  O   UNL     1      37.966 -14.789  -4.361  1.00  0.00    -0.247 OA
HETATM   28  C   UNL     1      40.174 -14.006   0.917  1.00  0.00     0.032 A 
HETATM   29  H   UNL     1      38.211 -12.351  -3.226  1.00  0.00     0.170 HD
ENDBRANCH  15  18
ENDBRANCH  13  14
ENDBRANCH  12  13
ENDBRANCH   6  12
BRANCH   7  30
HETATM   30  C   UNL     1      42.334 -13.138   5.429  1.00  0.00     0.046 A 
HETATM   31  C   UNL     1      41.484 -14.166   5.866  1.00  0.00     0.055 A 
HETATM   32  C   UNL     1      41.261 -15.300   5.076  1.00  0.00     0.058 A 
HETATM   33 CL   UNL     1      40.184 -16.506   5.686  1.00  0.00    -0.082 Cl
HETATM   34  C   UNL     1      41.899 -15.427   3.839  1.00  0.00     0.055 A 
HETATM   35 CL   UNL     1      41.680 -16.799   2.815  1.00  0.00    -0.083 Cl
HETATM   36  C   UNL     1      42.760 -14.419   3.400  1.00  0.00     0.028 A 
HETATM   37  C   UNL     1      42.979 -13.285   4.191  1.00  0.00     0.032 A 
ENDBRANCH   7  30
TORSDOF 5
ENDMDL
MODEL 2
REMARK VINA RESULT:      -9.3      3.524      5.323
REMARK  5 active torsions:
REMARK  status: ('A' for Active; 'I' for Inactive)
REMARK    1  A    between atoms: C_6  and  S_7 
REMARK    2  A    between atoms: S_7  and  C_8 
REMARK    3  A    between atoms: C_8  and  C_9 
REMARK       I    between atoms: C_9  and  N_10 
REMARK    4  A    between atoms: N_10  and  C_11 
REMARK    5  A    between atoms: N_22  and  C_23 
ROOT
HETATM    1  C   UNL     1      46.184 -10.839   7.226  1.00  0.00     0.001 A 
HETATM    2  C   UNL     1      45.760 -11.127   5.928  1.00  0.00     0.019 A 
HETATM    3  C   UNL     1      44.404 -11.377   5.679  1.00  0.00     0.061 A 
HETATM    4  C   UNL     1      43.474 -11.346   6.710  1.00  0.00     0.075 A 
HETATM    5  N   UNL     1      42.129 -11.660   6.507  1.00  0.00    -0.223 NA
HETATM    6  C   UNL     1      41.711 -11.862   5.297  1.00  0.00     0.177 A 
HETATM    7  N   UNL     1      42.527 -11.798   4.164  1.00  0.00    -0.256 N 
HETATM    8  C   UNL     1      43.912 -11.632   4.313  1.00  0.00     0.267 A 
HETATM    9  O   UNL     1      44.738 -11.634   3.403  1.00  0.00    -0.267 OA
HETATM   10  C   UNL     1      43.906 -11.041   8.005  1.00  0.00     0.032 A 
HETATM   11  C   UNL     1      45.255 -10.789   8.263  1.00  0.00     0.002 A 
ENDROOT
BRANCH   6  12
HETATM   12  S   UNL     1      40.040 -12.393   5.120  1.00  0.00    -0.082 SA
BRANCH  12  13
HETATM   13  C   UNL     1      39.845 -13.563   6.493  1.00  0.00     0.185 C 
BRANCH  13  14
HETATM   14  C   UNL     1      40.362 -14.952   6.139  1.00  0.00     0.231 C 
HETATM   15  N   UNL     1      41.418 -14.937   5.246  1.00  0.00    -0.326 N 
HETATM   16  H   UNL     1      41.639 -14.025   4.849  1.00  0.00     0.169 HD
HETATM   17  O   UNL     1      39.873 -15.953   6.656  1.00  0.00    -0.272 OA
BRANCH  15  18
HETATM   18  C   UNL     1      42.186 -16.025   4.786  1.00  0.00     0.037 A 
HETATM   19  C   UNL     1      41.902 -16.729   3.609  1.00  0.00     0.061 A 
HETATM   20  C   UNL     1      42.717 -17.797   3.308  1.00  0.00     0.065 A 
HETATM   21  C   UNL     1      43.786 -18.176   4.117  1.00  0.00     0.063 A 
HETATM   22  N   UNL     1      42.666 -18.679   2.234  1.00  0.00    -0.306 N 
HETATM   23  N   UNL     1      44.391 -19.286   3.541  1.00  0.00    -0.307 N 
HETATM   24  C   UNL     1      44.101 -17.503   5.270  1.00  0.00     0.034 A 
HETATM   25  C   UNL     1      43.701 -19.614   2.366  1.00  0.00     0.325 A 
HETATM   26  H   UNL     1      45.187 -19.799   3.883  1.00  0.00     0.170 HD
HETATM   27  O   UNL     1      43.953 -20.536   1.610  1.00  0.00    -0.247 OA
HETATM   28  C   UNL     1      43.282 -16.416   5.600  1.00  0.00     0.032 A 
HETATM   29  H   UNL     1      42.003 -18.673   1.474  1.00  0.00     0.170 HD
ENDBRANCH  15  18
ENDBRANCH  13  14
ENDBRANCH  12  13
ENDBRANCH   6  12
BRANCH   7  30
HETATM   30  C   UNL     1      42.015 -11.826   2.823  1.00  0.00     0.046 A 
HETATM   31  C   UNL     1      41.690 -13.043   2.203  1.00  0.00     0.055 A 
HETATM   32  C   UNL     1      41.238 -13.077   0.878  1.00  0.00     0.058 A 
HETATM   33 CL   UNL     1      40.843 -14.618   0.202  1.00  0.00    -0.082 Cl
HETATM   34  C   UNL     1      41.117 -11.890   0.150  1.00  0.00     0.055 A 
HETATM   35 CL   UNL     1      40.576 -11.854  -1.489  1.00  0.00    -0.083 Cl
HETATM   36  C   UNL     1      41.453 -10.675   0.750  1.00  0.00     0.028 A 
HETATM   37  C   UNL     1      41.902 -10.643   2.075  1.00  0.00     0.032 A 
ENDBRANCH   7  30
TORSDOF 5
ENDMDL
MODEL 3
REMARK VINA RESULT:      -9.3      3.798      6.282
REMARK  5 active torsions:
REMARK  status: ('A' for Active; 'I' for Inactive)
REMARK    1  A    between atoms: C_6  and  S_7 
REMARK    2  A    between atoms: S_7  and  C_8 
REMARK    3  A    between atoms: C_8  and  C_9 
REMARK       I    between atoms: C_9  and  N_10 
REMARK    4  A    between atoms: N_10  and  C_11 
REMARK    5  A    between atoms: N_22  and  C_23 
ROOT
HETATM    1  C   UNL     1      44.039 -20.778   5.281  1.00  0.00     0.001 A 
HETATM    2  C   UNL     1      43.762 -19.511   5.793  1.00  0.00     0.019 A 
HETATM    3  C   UNL     1      43.542 -18.440   4.916  1.00  0.00     0.061 A 
HETATM    4  C   UNL     1      43.601 -18.624   3.540  1.00  0.00     0.075 A 
HETATM    5  N   UNL     1      43.458 -17.564   2.642  1.00  0.00    -0.223 NA
HETATM    6  C   UNL     1      43.133 -16.397   3.102  1.00  0.00     0.177 A 
HETATM    7  N   UNL     1      42.923 -16.116   4.455  1.00  0.00    -0.256 N 
HETATM    8  C   UNL     1      43.194 -17.099   5.419  1.00  0.00     0.267 A 
HETATM    9  O   UNL     1      43.120 -16.950   6.637  1.00  0.00    -0.267 OA
HETATM   10  C   UNL     1      43.865 -19.901   3.037  1.00  0.00     0.032 A 
HETATM   11  C   UNL     1      44.083 -20.975   3.903  1.00  0.00     0.002 A 
ENDROOT
BRANCH   6  12
HETATM   12  S   UNL     1      43.107 -15.073   1.938  1.00  0.00    -0.082 SA
BRANCH  12  13
HETATM   13  C   UNL     1      41.465 -15.235   1.185  1.00  0.00     0.185 C 
BRANCH  13  14
HETATM   14  C   UNL     1      40.978 -13.919   0.586  1.00  0.00     0.231 C 
HETATM   15  N   UNL     1      40.617 -14.019  -0.744  1.00  0.00    -0.326 N 
HETATM   16  H   UNL     1      40.828 -14.911  -1.187  1.00  0.00     0.169 HD
HETATM   17  O   UNL     1      40.902 -12.908   1.278  1.00  0.00    -0.272 OA
BRANCH  15  18
HETATM   18  C   UNL     1      40.042 -13.030  -1.567  1.00  0.00     0.037 A 
HETATM   19  C   UNL     1      40.782 -12.021  -2.196  1.00  0.00     0.061 A 
HETATM   20  C   UNL     1      40.077 -11.099  -2.937  1.00  0.00     0.065 A 
HETATM   21  C   UNL     1      38.692 -11.150  -3.077  1.00  0.00     0.063 A 
HETATM   22  N   UNL     1      40.535  -9.992  -3.646  1.00  0.00    -0.306 N 
HETATM   23  N   UNL     1      38.299 -10.079  -3.870  1.00  0.00    -0.307 N 
HETATM   24  C   UNL     1      37.937 -12.130  -2.486  1.00  0.00     0.034 A 
HETATM   25  C   UNL     1      39.438  -9.345  -4.231  1.00  0.00     0.325 A 
HETATM   26  H   UNL     1      37.365  -9.836  -4.153  1.00  0.00     0.170 HD
HETATM   27  O   UNL     1      39.465  -8.339  -4.917  1.00  0.00    -0.247 OA
HETATM   28  C   UNL     1      38.631 -13.076  -1.722  1.00  0.00     0.032 A 
HETATM   29  H   UNL     1      41.489  -9.682  -3.737  1.00  0.00     0.170 HD
ENDBRANCH  15  18
ENDBRANCH  13  14
ENDBRANCH  12  13
ENDBRANCH   6  12
BRANCH   7  30
HETATM   30  C   UNL     1      42.373 -14.876   4.925  1.00  0.00     0.046 A 
HETATM   31  C   UNL     1      43.206 -13.863   5.426  1.00  0.00     0.055 A 
HETATM   32  C   UNL     1      42.667 -12.673   5.931  1.00  0.00     0.058 A 
HETATM   33 CL   UNL     1      43.769 -11.474   6.508  1.00  0.00    -0.082 Cl
HETATM   34  C   UNL     1      41.282 -12.487   5.954  1.00  0.00     0.055 A 
HETATM   35 CL   UNL     1      40.546 -11.052   6.570  1.00  0.00    -0.083 Cl
HETATM   36  C   UNL     1      40.443 -13.494   5.475  1.00  0.00     0.028 A 
HETATM   37  C   UNL     1      40.983 -14.682   4.967  1.00  0.00     0.032 A 
ENDBRANCH   7  30
TORSDOF 5
ENDMDL
MODEL 4
REMARK VINA RESULT:      -9.1      4.002      9.852
REMARK  5 active torsions:
REMARK  status: ('A' for Active; 'I' for Inactive)
REMARK    1  A    between atoms: C_6  and  S_7 
REMARK    2  A    between atoms: S_7  and  C_8 
REMARK    3  A    between atoms: C_8  and  C_9 
REMARK       I    between atoms: C_9  and  N_10 
REMARK    4  A    between atoms: N_10  and  C_11 
REMARK    5  A    between atoms: N_22  and  C_23 
ROOT
HETATM    1  C   UNL     1      43.545 -18.811   2.750  1.00  0.00     0.001 A 
HETATM    2  C   UNL     1      42.875 -17.611   2.514  1.00  0.00     0.019 A 
HETATM    3  C   UNL     1      42.940 -16.580   3.460  1.00  0.00     0.061 A 
HETATM    4  C   UNL     1      43.661 -16.739   4.637  1.00  0.00     0.075 A 
HETATM    5  N   UNL     1      43.687 -15.759   5.631  1.00  0.00    -0.223 NA
HETATM    6  C   UNL     1      43.126 -14.615   5.394  1.00  0.00     0.177 A 
HETATM    7  N   UNL     1      42.477 -14.292   4.198  1.00  0.00    -0.256 N 
HETATM    8  C   UNL     1      42.289 -15.279   3.220  1.00  0.00     0.267 A 
HETATM    9  O   UNL     1      41.673 -15.138   2.166  1.00  0.00    -0.267 OA
HETATM   10  C   UNL     1      44.343 -17.940   4.858  1.00  0.00     0.032 A 
HETATM   11  C   UNL     1      44.285 -18.973   3.920  1.00  0.00     0.002 A 
ENDROOT
BRANCH   6  12
HETATM   12  S   UNL     1      43.068 -13.474   6.736  1.00  0.00    -0.082 SA
BRANCH  12  13
HETATM   13  C   UNL     1      44.552 -12.465   6.467  1.00  0.00     0.185 C 
BRANCH  13  14
HETATM   14  C   UNL     1      44.766 -11.454   7.588  1.00  0.00     0.231 C 
HETATM   15  N   UNL     1      43.592 -10.899   8.063  1.00  0.00    -0.326 N 
HETATM   16  H   UNL     1      42.753 -11.138   7.537  1.00  0.00     0.169 HD
HETATM   17  O   UNL     1      45.894 -11.221   8.014  1.00  0.00    -0.272 OA
BRANCH  15  18
HETATM   18  C   UNL     1      43.422 -10.014   9.146  1.00  0.00     0.037 A 
HETATM   19  C   UNL     1      43.255 -10.435  10.471  1.00  0.00     0.061 A 
HETATM   20  C   UNL     1      43.057  -9.456  11.418  1.00  0.00     0.065 A 
HETATM   21  C   UNL     1      43.027  -8.100  11.099  1.00  0.00     0.063 A 
HETATM   22  N   UNL     1      42.847  -9.574  12.788  1.00  0.00    -0.306 N 
HETATM   23  N   UNL     1      42.800  -7.386  12.270  1.00  0.00    -0.307 N 
HETATM   24  C   UNL     1      43.197  -7.650   9.815  1.00  0.00     0.034 A 
HETATM   25  C   UNL     1      42.682  -8.294  13.333  1.00  0.00     0.325 A 
HETATM   26  H   UNL     1      42.720  -6.389  12.375  1.00  0.00     0.170 HD
HETATM   27  O   UNL     1      42.474  -8.018  14.501  1.00  0.00    -0.247 OA
HETATM   28  C   UNL     1      43.395  -8.628   8.833  1.00  0.00     0.032 A 
HETATM   29  H   UNL     1      42.811 -10.426  13.325  1.00  0.00     0.170 HD
ENDBRANCH  15  18
ENDBRANCH  13  14
ENDBRANCH  12  13
ENDBRANCH   6  12
BRANCH   7  30
HETATM   30  C   UNL     1      42.037 -12.963   3.876  1.00  0.00     0.046 A 
HETATM   31  C   UNL     1      40.755 -12.521   4.239  1.00  0.00     0.055 A 
HETATM   32  C   UNL     1      40.307 -11.244   3.882  1.00  0.00     0.058 A 
HETATM   33 CL   UNL     1      38.722 -10.778   4.389  1.00  0.00    -0.082 Cl
HETATM   34  C   UNL     1      41.134 -10.394   3.142  1.00  0.00     0.055 A 
HETATM   35 CL   UNL     1      40.646  -8.810   2.658  1.00  0.00    -0.083 Cl
HETATM   36  C   UNL     1      42.405 -10.828   2.760  1.00  0.00     0.028 A 
HETATM   37  C   UNL     1      42.852 -12.105   3.121  1.00  0.00     0.032 A 
ENDBRANCH   7  30
TORSDOF 5
ENDMDL
MODEL 5
REMARK VINA RESULT:      -8.9      3.784      8.660
REMARK  5 active torsions:
REMARK  status: ('A' for Active; 'I' for Inactive)
REMARK    1  A    between atoms: C_6  and  S_7 
REMARK    2  A    between atoms: S_7  and  C_8 
REMARK    3  A    between atoms: C_8  and  C_9 
REMARK       I    between atoms: C_9  and  N_10 
REMARK    4  A    between atoms: N_10  and  C_11 
REMARK    5  A    between atoms: N_22  and  C_23 
ROOT
HETATM    1  C   UNL     1      43.690 -19.791   2.555  1.00  0.00     0.001 A 
HETATM    2  C   UNL     1      43.117 -18.569   2.204  1.00  0.00     0.019 A 
HETATM    3  C   UNL     1      42.979 -17.562   3.169  1.00  0.00     0.061 A 
HETATM    4  C   UNL     1      43.402 -17.768   4.476  1.00  0.00     0.075 A 
HETATM    5  N   UNL     1      43.213 -16.813   5.477  1.00  0.00    -0.223 NA
HETATM    6  C   UNL     1      42.745 -15.650   5.149  1.00  0.00     0.177 A 
HETATM    7  N   UNL     1      42.400 -15.281   3.845  1.00  0.00    -0.256 N 
HETATM    8  C   UNL     1      42.427 -16.240   2.822  1.00  0.00     0.267 A 
HETATM    9  O   UNL     1      42.078 -16.058   1.658  1.00  0.00    -0.267 OA
HETATM   10  C   UNL     1      43.989 -18.991   4.815  1.00  0.00     0.032 A 
HETATM   11  C   UNL     1      44.133 -19.999   3.860  1.00  0.00     0.002 A 
ENDROOT
BRANCH   6  12
HETATM   12  S   UNL     1      42.397 -14.540   6.474  1.00  0.00    -0.082 SA
BRANCH  12  13
HETATM   13  C   UNL     1      44.024 -13.821   6.831  1.00  0.00     0.185 C 
BRANCH  13  14
HETATM   14  C   UNL     1      44.030 -12.306   6.655  1.00  0.00     0.231 C 
HETATM   15  N   UNL     1      42.820 -11.711   6.959  1.00  0.00    -0.326 N 
HETATM   16  H   UNL     1      42.052 -12.354   7.144  1.00  0.00     0.169 HD
HETATM   17  O   UNL     1      45.053 -11.721   6.310  1.00  0.00    -0.272 OA
BRANCH  15  18
HETATM   18  C   UNL     1      42.510 -10.337   6.997  1.00  0.00     0.037 A 
HETATM   19  C   UNL     1      42.774  -9.514   8.099  1.00  0.00     0.061 A 
HETATM   20  C   UNL     1      42.376  -8.199   8.006  1.00  0.00     0.065 A 
HETATM   21  C   UNL     1      41.744  -7.684   6.876  1.00  0.00     0.063 A 
HETATM   22  N   UNL     1      42.487  -7.170   8.936  1.00  0.00    -0.306 N 
HETATM   23  N   UNL     1      41.469  -6.342   7.110  1.00  0.00    -0.307 N 
HETATM   24  C   UNL     1      41.480  -8.457   5.775  1.00  0.00     0.034 A 
HETATM   25  C   UNL     1      41.924  -6.007   8.393  1.00  0.00     0.325 A 
HETATM   26  H   UNL     1      41.016  -5.692   6.490  1.00  0.00     0.170 HD
HETATM   27  O   UNL     1      41.841  -4.916   8.929  1.00  0.00    -0.247 OA
HETATM   28  C   UNL     1      41.871  -9.799   5.847  1.00  0.00     0.032 A 
HETATM   29  H   UNL     1      42.895  -7.224   9.856  1.00  0.00     0.170 HD
ENDBRANCH  15  18
ENDBRANCH  13  14
ENDBRANCH  12  13
ENDBRANCH   6  12
BRANCH   7  30
HETATM   30  C   UNL     1      42.074 -13.935   3.468  1.00  0.00     0.046 A 
HETATM   31  C   UNL     1      40.737 -13.534   3.316  1.00  0.00     0.055 A 
HETATM   32  C   UNL     1      40.419 -12.235   2.900  1.00  0.00     0.058 A 
HETATM   33 CL   UNL     1      38.746 -11.825   2.758  1.00  0.00    -0.082 Cl
HETATM   34  C   UNL     1      41.438 -11.322   2.618  1.00  0.00     0.055 A 
HETATM   35 CL   UNL     1      41.123  -9.708   2.092  1.00  0.00    -0.083 Cl
HETATM   36  C   UNL     1      42.772 -11.714   2.749  1.00  0.00     0.028 A 
HETATM   37  C   UNL     1      43.088 -13.011   3.168  1.00  0.00     0.032 A 
ENDBRANCH   7  30
TORSDOF 5
ENDMDL
MODEL 6
REMARK VINA RESULT:      -8.8      4.864      9.003
REMARK  5 active torsions:
REMARK  status: ('A' for Active; 'I' for Inactive)
REMARK    1  A    between atoms: C_6  and  S_7 
REMARK    2  A    between atoms: S_7  and  C_8 
REMARK    3  A    between atoms: C_8  and  C_9 
REMARK       I    between atoms: C_9  and  N_10 
REMARK    4  A    between atoms: N_10  and  C_11 
REMARK    5  A    between atoms: N_22  and  C_23 
ROOT
HETATM    1  C   UNL     1      37.834 -14.528  -3.242  1.00  0.00     0.001 A 
HETATM    2  C   UNL     1      37.986 -13.181  -2.913  1.00  0.00     0.019 A 
HETATM    3  C   UNL     1      38.869 -12.811  -1.890  1.00  0.00     0.061 A 
HETATM    4  C   UNL     1      39.594 -13.771  -1.194  1.00  0.00     0.075 A 
HETATM    5  N   UNL     1      40.427 -13.441  -0.123  1.00  0.00    -0.223 NA
HETATM    6  C   UNL     1      40.629 -12.190   0.148  1.00  0.00     0.177 A 
HETATM    7  N   UNL     1      40.054 -11.131  -0.561  1.00  0.00    -0.256 N 
HETATM    8  C   UNL     1      39.096 -11.395  -1.550  1.00  0.00     0.267 A 
HETATM    9  O   UNL     1      38.469 -10.550  -2.187  1.00  0.00    -0.267 OA
HETATM   10  C   UNL     1      39.446 -15.117  -1.542  1.00  0.00     0.032 A 
HETATM   11  C   UNL     1      38.569 -15.495  -2.561  1.00  0.00     0.002 A 
ENDROOT
BRANCH   6  12
HETATM   12  S   UNL     1      41.573 -11.841   1.594  1.00  0.00    -0.082 SA
BRANCH  12  13
HETATM   13  C   UNL     1      40.455 -12.343   2.932  1.00  0.00     0.185 C 
BRANCH  13  14
HETATM   14  C   UNL     1      40.795 -13.728   3.471  1.00  0.00     0.231 C 
HETATM   15  N   UNL     1      41.806 -14.360   2.772  1.00  0.00    -0.326 N 
HETATM   16  H   UNL     1      42.112 -13.884   1.925  1.00  0.00     0.169 HD
HETATM   17  O   UNL     1      40.217 -14.174   4.460  1.00  0.00    -0.272 OA
BRANCH  15  18
HETATM   18  C   UNL     1      42.424 -15.593   3.057  1.00  0.00     0.037 A 
HETATM   19  C   UNL     1      42.316 -16.722   2.235  1.00  0.00     0.061 A 
HETATM   20  C   UNL     1      42.941 -17.871   2.665  1.00  0.00     0.065 A 
HETATM   21  C   UNL     1      43.661 -17.932   3.856  1.00  0.00     0.063 A 
HETATM   22  N   UNL     1      42.988 -19.130   2.076  1.00  0.00    -0.306 N 
HETATM   23  N   UNL     1      44.151 -19.224   3.999  1.00  0.00    -0.307 N 
HETATM   24  C   UNL     1      43.798 -16.845   4.681  1.00  0.00     0.034 A 
HETATM   25  C   UNL     1      43.736 -19.985   2.896  1.00  0.00     0.325 A 
HETATM   26  H   UNL     1      44.706 -19.591   4.753  1.00  0.00     0.170 HD
HETATM   27  O   UNL     1      43.979 -21.162   2.696  1.00  0.00    -0.247 OA
HETATM   28  C   UNL     1      43.166 -15.665   4.267  1.00  0.00     0.032 A 
HETATM   29  H   UNL     1      42.562 -19.410   1.207  1.00  0.00     0.170 HD
ENDBRANCH  15  18
ENDBRANCH  13  14
ENDBRANCH  12  13
ENDBRANCH   6  12
BRANCH   7  30
HETATM   30  C   UNL     1      40.442  -9.760  -0.378  1.00  0.00     0.046 A 
HETATM   31  C   UNL     1      41.581  -9.243  -1.015  1.00  0.00     0.055 A 
HETATM   32  C   UNL     1      41.988  -7.921  -0.798  1.00  0.00     0.058 A 
HETATM   33 CL   UNL     1      43.391  -7.364  -1.639  1.00  0.00    -0.082 Cl
HETATM   34  C   UNL     1      41.265  -7.100   0.073  1.00  0.00     0.055 A 
HETATM   35 CL   UNL     1      41.711  -5.464   0.396  1.00  0.00    -0.083 Cl
HETATM   36  C   UNL     1      40.140  -7.608   0.725  1.00  0.00     0.028 A 
HETATM   37  C   UNL     1      39.733  -8.929   0.504  1.00  0.00     0.032 A 
ENDBRANCH   7  30
TORSDOF 5
ENDMDL
MODEL 7
REMARK VINA RESULT:      -8.7      3.708      5.582
REMARK  5 active torsions:
REMARK  status: ('A' for Active; 'I' for Inactive)
REMARK    1  A    between atoms: C_6  and  S_7 
REMARK    2  A    between atoms: S_7  and  C_8 
REMARK    3  A    between atoms: C_8  and  C_9 
REMARK       I    between atoms: C_9  and  N_10 
REMARK    4  A    between atoms: N_10  and  C_11 
REMARK    5  A    between atoms: N_22  and  C_23 
ROOT
HETATM    1  C   UNL     1      39.296  -6.577   5.874  1.00  0.00     0.001 A 
HETATM    2  C   UNL     1      39.486  -7.880   6.335  1.00  0.00     0.019 A 
HETATM    3  C   UNL     1      40.305  -8.760   5.615  1.00  0.00     0.061 A 
HETATM    4  C   UNL     1      40.929  -8.352   4.443  1.00  0.00     0.075 A 
HETATM    5  N   UNL     1      41.693  -9.226   3.665  1.00  0.00    -0.223 NA
HETATM    6  C   UNL     1      41.932 -10.416   4.117  1.00  0.00     0.177 A 
HETATM    7  N   UNL     1      41.464 -10.899   5.343  1.00  0.00    -0.256 N 
HETATM    8  C   UNL     1      40.572 -10.126   6.100  1.00  0.00     0.267 A 
HETATM    9  O   UNL     1      40.036 -10.471   7.151  1.00  0.00    -0.267 OA
HETATM   10  C   UNL     1      40.745  -7.040   3.996  1.00  0.00     0.032 A 
HETATM   11  C   UNL     1      39.932  -6.155   4.708  1.00  0.00     0.002 A 
ENDROOT
BRANCH   6  12
HETATM   12  S   UNL     1      42.779 -11.515   3.030  1.00  0.00    -0.082 SA
BRANCH  12  13
HETATM   13  C   UNL     1      41.420 -12.416   2.235  1.00  0.00     0.185 C 
BRANCH  13  14
HETATM   14  C   UNL     1      41.435 -13.900   2.587  1.00  0.00     0.231 C 
HETATM   15  N   UNL     1      42.703 -14.452   2.595  1.00  0.00    -0.326 N 
HETATM   16  H   UNL     1      43.445 -13.844   2.255  1.00  0.00     0.169 HD
HETATM   17  O   UNL     1      40.393 -14.488   2.864  1.00  0.00    -0.272 OA
BRANCH  15  18
HETATM   18  C   UNL     1      43.082 -15.757   2.967  1.00  0.00     0.037 A 
HETATM   19  C   UNL     1      43.021 -16.857   2.103  1.00  0.00     0.061 A 
HETATM   20  C   UNL     1      43.385 -18.080   2.620  1.00  0.00     0.065 A 
HETATM   21  C   UNL     1      43.806 -18.241   3.938  1.00  0.00     0.063 A 
HETATM   22  N   UNL     1      43.406 -19.331   2.012  1.00  0.00    -0.306 N 
HETATM   23  N   UNL     1      44.087 -19.587   4.140  1.00  0.00    -0.307 N 
HETATM   24  C   UNL     1      43.890 -17.186   4.810  1.00  0.00     0.034 A 
HETATM   25  C   UNL     1      43.838 -20.281   2.947  1.00  0.00     0.325 A 
HETATM   26  H   UNL     1      44.408 -20.027   4.986  1.00  0.00     0.170 HD
HETATM   27  O   UNL     1      43.971 -21.478   2.764  1.00  0.00    -0.247 OA
HETATM   28  C   UNL     1      43.519 -15.932   4.308  1.00  0.00     0.032 A 
HETATM   29  H   UNL     1      43.154 -19.548   1.061  1.00  0.00     0.170 HD
ENDBRANCH  15  18
ENDBRANCH  13  14
ENDBRANCH  12  13
ENDBRANCH   6  12
BRANCH   7  30
HETATM   30  C   UNL     1      41.900 -12.141   5.917  1.00  0.00     0.046 A 
HETATM   31  C   UNL     1      41.043 -13.252   5.965  1.00  0.00     0.055 A 
HETATM   32  C   UNL     1      41.449 -14.448   6.569  1.00  0.00     0.058 A 
HETATM   33 CL   UNL     1      40.335 -15.770   6.564  1.00  0.00    -0.082 Cl
HETATM   34  C   UNL     1      42.717 -14.544   7.148  1.00  0.00     0.055 A 
HETATM   35 CL   UNL     1      43.283 -15.981   7.919  1.00  0.00    -0.083 Cl
HETATM   36  C   UNL     1      43.572 -13.440   7.122  1.00  0.00     0.028 A 
HETATM   37  C   UNL     1      43.165 -12.247   6.515  1.00  0.00     0.032 A 
ENDBRANCH   7  30
TORSDOF 5
ENDMDL
MODEL 8
REMARK VINA RESULT:      -8.6      3.227      8.172
REMARK  5 active torsions:
REMARK  status: ('A' for Active; 'I' for Inactive)
REMARK    1  A    between atoms: C_6  and  S_7 
REMARK    2  A    between atoms: S_7  and  C_8 
REMARK    3  A    between atoms: C_8  and  C_9 
REMARK       I    between atoms: C_9  and  N_10 
REMARK    4  A    between atoms: N_10  and  C_11 
REMARK    5  A    between atoms: N_22  and  C_23 
ROOT
HETATM    1  C   UNL     1      44.076 -17.072   4.973  1.00  0.00     0.001 A 
HETATM    2  C   UNL     1      43.619 -16.787   3.687  1.00  0.00     0.019 A 
HETATM    3  C   UNL     1      42.580 -15.865   3.507  1.00  0.00     0.061 A 
HETATM    4  C   UNL     1      41.993 -15.233   4.596  1.00  0.00     0.075 A 
HETATM    5  N   UNL     1      40.908 -14.364   4.456  1.00  0.00    -0.223 NA
HETATM    6  C   UNL     1      40.520 -14.039   3.263  1.00  0.00     0.177 A 
HETATM    7  N   UNL     1      41.112 -14.512   2.088  1.00  0.00    -0.256 N 
HETATM    8  C   UNL     1      42.107 -15.498   2.160  1.00  0.00     0.267 A 
HETATM    9  O   UNL     1      42.648 -16.044   1.200  1.00  0.00    -0.267 OA
HETATM   10  C   UNL     1      42.468 -15.513   5.881  1.00  0.00     0.032 A 
HETATM   11  C   UNL     1      43.505 -16.430   6.070  1.00  0.00     0.002 A 
ENDROOT
BRANCH   6  12
HETATM   12  S   UNL     1      39.062 -13.055   3.151  1.00  0.00    -0.082 SA
BRANCH  12  13
HETATM   13  C   UNL     1      39.659 -11.402   3.601  1.00  0.00     0.185 C 
BRANCH  13  14
HETATM   14  C   UNL     1      40.404 -11.406   4.931  1.00  0.00     0.231 C 
HETATM   15  N   UNL     1      41.777 -11.324   4.795  1.00  0.00    -0.326 N 
HETATM   16  H   UNL     1      42.125 -11.390   3.840  1.00  0.00     0.169 HD
HETATM   17  O   UNL     1      39.788 -11.444   5.993  1.00  0.00    -0.272 OA
BRANCH  15  18
HETATM   18  C   UNL     1      42.748 -11.209   5.809  1.00  0.00     0.037 A 
HETATM   19  C   UNL     1      42.683 -10.262   6.839  1.00  0.00     0.061 A 
HETATM   20  C   UNL     1      43.728 -10.241   7.736  1.00  0.00     0.065 A 
HETATM   21  C   UNL     1      44.808 -11.116   7.649  1.00  0.00     0.063 A 
HETATM   22  N   UNL     1      43.941  -9.412   8.832  1.00  0.00    -0.306 N 
HETATM   23  N   UNL     1      45.683 -10.827   8.689  1.00  0.00    -0.307 N 
HETATM   24  C   UNL     1      44.900 -12.063   6.662  1.00  0.00     0.034 A 
HETATM   25  C   UNL     1      45.156  -9.762   9.435  1.00  0.00     0.325 A 
HETATM   26  H   UNL     1      46.557 -11.277   8.900  1.00  0.00     0.170 HD
HETATM   27  O   UNL     1      45.662  -9.243  10.415  1.00  0.00    -0.247 OA
HETATM   28  C   UNL     1      43.852 -12.100   5.734  1.00  0.00     0.032 A 
HETATM   29  H   UNL     1      43.341  -8.671   9.159  1.00  0.00     0.170 HD
ENDBRANCH  15  18
ENDBRANCH  13  14
ENDBRANCH  12  13
ENDBRANCH   6  12
BRANCH   7  30
HETATM   30  C   UNL     1      40.802 -13.992   0.786  1.00  0.00     0.046 A 
HETATM   31  C   UNL     1      41.238 -12.715   0.399  1.00  0.00     0.055 A 
HETATM   32  C   UNL     1      40.895 -12.186  -0.851  1.00  0.00     0.058 A 
HETATM   33 CL   UNL     1      41.492 -10.614  -1.250  1.00  0.00    -0.082 Cl
HETATM   34  C   UNL     1      40.097 -12.925  -1.728  1.00  0.00     0.055 A 
HETATM   35 CL   UNL     1      39.625 -12.336  -3.280  1.00  0.00    -0.083 Cl
HETATM   36  C   UNL     1      39.643 -14.190  -1.348  1.00  0.00     0.028 A 
HETATM   37  C   UNL     1      39.990 -14.718  -0.099  1.00  0.00     0.032 A 
ENDBRANCH   7  30
TORSDOF 5
ENDMDL
MODEL 9
REMARK VINA RESULT:      -8.6      3.677      8.882
REMARK  5 active torsions:
REMARK  status: ('A' for Active; 'I' for Inactive)
REMARK    1  A    between atoms: C_6  and  S_7 
REMARK    2  A    between atoms: S_7  and  C_8 
REMARK    3  A    between atoms: C_8  and  C_9 
REMARK       I    between atoms: C_9  and  N_10 
REMARK    4  A    between atoms: N_10  and  C_11 
REMARK    5  A    between atoms: N_22  and  C_23 
ROOT
HETATM    1  C   UNL     1      43.635 -19.432   2.630  1.00  0.00     0.001 A 
HETATM    2  C   UNL     1      43.011 -18.243   2.254  1.00  0.00     0.019 A 
HETATM    3  C   UNL     1      42.919 -17.186   3.170  1.00  0.00     0.061 A 
HETATM    4  C   UNL     1      43.439 -17.309   4.452  1.00  0.00     0.075 A 
HETATM    5  N   UNL     1      43.300 -16.302   5.410  1.00  0.00    -0.223 NA
HETATM    6  C   UNL     1      42.784 -15.169   5.053  1.00  0.00     0.177 A 
HETATM    7  N   UNL     1      42.339 -14.882   3.759  1.00  0.00    -0.256 N 
HETATM    8  C   UNL     1      42.314 -15.896   2.791  1.00  0.00     0.267 A 
HETATM    9  O   UNL     1      41.878 -15.787   1.647  1.00  0.00    -0.267 OA
HETATM   10  C   UNL     1      44.076 -18.499   4.815  1.00  0.00     0.032 A 
HETATM   11  C   UNL     1      44.174 -19.558   3.909  1.00  0.00     0.002 A 
ENDROOT
BRANCH   6  12
HETATM   12  S   UNL     1      42.506 -13.992   6.336  1.00  0.00    -0.082 SA
BRANCH  12  13
HETATM   13  C   UNL     1      44.190 -13.506   6.804  1.00  0.00     0.185 C 
BRANCH  13  14
HETATM   14  C   UNL     1      44.320 -11.998   6.988  1.00  0.00     0.231 C 
HETATM   15  N   UNL     1      43.201 -11.413   7.550  1.00  0.00    -0.326 N 
HETATM   16  H   UNL     1      42.396 -12.027   7.661  1.00  0.00     0.169 HD
HETATM   17  O   UNL     1      45.357 -11.417   6.680  1.00  0.00    -0.272 OA
BRANCH  15  18
HETATM   18  C   UNL     1      43.023 -10.071   7.940  1.00  0.00     0.037 A 
HETATM   19  C   UNL     1      42.230  -9.158   7.233  1.00  0.00     0.061 A 
HETATM   20  C   UNL     1      42.184  -7.868   7.712  1.00  0.00     0.065 A 
HETATM   21  C   UNL     1      42.880  -7.465   8.850  1.00  0.00     0.063 A 
HETATM   22  N   UNL     1      41.507  -6.759   7.214  1.00  0.00    -0.306 N 
HETATM   23  N   UNL     1      42.630  -6.113   9.052  1.00  0.00    -0.307 N 
HETATM   24  C   UNL     1      43.656  -8.333   9.573  1.00  0.00     0.034 A 
HETATM   25  C   UNL     1      41.777  -5.657   8.036  1.00  0.00     0.325 A 
HETATM   26  H   UNL     1      42.988  -5.526   9.786  1.00  0.00     0.170 HD
HETATM   27  O   UNL     1      41.357  -4.522   7.898  1.00  0.00    -0.247 OA
HETATM   28  C   UNL     1      43.722  -9.650   9.103  1.00  0.00     0.032 A 
HETATM   29  H   UNL     1      40.918  -6.724   6.397  1.00  0.00     0.170 HD
ENDBRANCH  15  18
ENDBRANCH  13  14
ENDBRANCH  12  13
ENDBRANCH   6  12
BRANCH   7  30
HETATM   30  C   UNL     1      41.956 -13.565   3.333  1.00  0.00     0.046 A 
HETATM   31  C   UNL     1      40.605 -13.234   3.144  1.00  0.00     0.055 A 
HETATM   32  C   UNL     1      40.233 -11.966   2.681  1.00  0.00     0.058 A 
HETATM   33 CL   UNL     1      38.545 -11.641   2.497  1.00  0.00    -0.082 Cl
HETATM   34  C   UNL     1      41.213 -11.014   2.387  1.00  0.00     0.055 A 
HETATM   35 CL   UNL     1      40.831  -9.435   1.803  1.00  0.00    -0.083 Cl
HETATM   36  C   UNL     1      42.561 -11.337   2.554  1.00  0.00     0.028 A 
HETATM   37  C   UNL     1      42.930 -12.604   3.020  1.00  0.00     0.032 A 
ENDBRANCH   7  30
TORSDOF 5
ENDMDL
MODEL 10
REMARK VINA RESULT:      -8.6      4.574      6.573
REMARK  5 active torsions:
REMARK  status: ('A' for Active; 'I' for Inactive)
REMARK    1  A    between atoms: C_6  and  S_7 
REMARK    2  A    between atoms: S_7  and  C_8 
REMARK    3  A    between atoms: C_8  and  C_9 
REMARK       I    between atoms: C_9  and  N_10 
REMARK    4  A    between atoms: N_10  and  C_11 
REMARK    5  A    between atoms: N_22  and  C_23 
ROOT
HETATM    1  C   UNL     1      46.475 -10.588   7.462  1.00  0.00     0.001 A 
HETATM    2  C   UNL     1      45.655  -9.883   8.343  1.00  0.00     0.019 A 
HETATM    3  C   UNL     1      44.266  -9.892   8.159  1.00  0.00     0.061 A 
HETATM    4  C   UNL     1      43.694 -10.592   7.104  1.00  0.00     0.075 A 
HETATM    5  N   UNL     1      42.320 -10.562   6.851  1.00  0.00    -0.223 NA
HETATM    6  C   UNL     1      41.542  -9.968   7.700  1.00  0.00     0.177 A 
HETATM    7  N   UNL     1      41.989  -9.336   8.865  1.00  0.00    -0.256 N 
HETATM    8  C   UNL     1      43.365  -9.204   9.100  1.00  0.00     0.267 A 
HETATM    9  O   UNL     1      43.878  -8.607  10.044  1.00  0.00    -0.267 OA
HETATM   10  C   UNL     1      44.522 -11.308   6.234  1.00  0.00     0.032 A 
HETATM   11  C   UNL     1      45.908 -11.306   6.411  1.00  0.00     0.002 A 
ENDROOT
BRANCH   6  12
HETATM   12  S   UNL     1      39.842  -9.842   7.254  1.00  0.00    -0.082 SA
BRANCH  12  13
HETATM   13  C   UNL     1      39.834 -10.434   5.539  1.00  0.00     0.185 C 
BRANCH  13  14
HETATM   14  C   UNL     1      39.961 -11.952   5.459  1.00  0.00     0.231 C 
HETATM   15  N   UNL     1      40.953 -12.377   4.595  1.00  0.00    -0.326 N 
HETATM   16  H   UNL     1      41.389 -11.645   4.038  1.00  0.00     0.169 HD
HETATM   17  O   UNL     1      39.247 -12.677   6.146  1.00  0.00    -0.272 OA
BRANCH  15  18
HETATM   18  C   UNL     1      41.396 -13.693   4.358  1.00  0.00     0.037 A 
HETATM   19  C   UNL     1      42.491 -14.271   5.013  1.00  0.00     0.061 A 
HETATM   20  C   UNL     1      42.834 -15.553   4.647  1.00  0.00     0.065 A 
HETATM   21  C   UNL     1      42.135 -16.268   3.676  1.00  0.00     0.063 A 
HETATM   22  N   UNL     1      43.869 -16.361   5.104  1.00  0.00    -0.306 N 
HETATM   23  N   UNL     1      42.738 -17.512   3.539  1.00  0.00    -0.307 N 
HETATM   24  C   UNL     1      41.051 -15.740   3.023  1.00  0.00     0.034 A 
HETATM   25  C   UNL     1      43.825 -17.584   4.422  1.00  0.00     0.325 A 
HETATM   26  H   UNL     1      42.472 -18.257   2.918  1.00  0.00     0.170 HD
HETATM   27  O   UNL     1      44.583 -18.527   4.563  1.00  0.00    -0.247 OA
HETATM   28  C   UNL     1      40.687 -14.434   3.375  1.00  0.00     0.032 A 
HETATM   29  H   UNL     1      44.555 -16.130   5.805  1.00  0.00     0.170 HD
ENDBRANCH  15  18
ENDBRANCH  13  14
ENDBRANCH  12  13
ENDBRANCH   6  12
BRANCH   7  30
HETATM   30  C   UNL     1      41.103  -8.860   9.890  1.00  0.00     0.046 A 
HETATM   31  C   UNL     1      40.680  -9.707  10.926  1.00  0.00     0.055 A 
HETATM   32  C   UNL     1      39.778  -9.259  11.898  1.00  0.00     0.058 A 
HETATM   33 CL   UNL     1      39.327 -10.365  13.148  1.00  0.00    -0.082 Cl
HETATM   34  C   UNL     1      39.274  -7.956  11.838  1.00  0.00     0.055 A 
HETATM   35 CL   UNL     1      38.152  -7.337  12.994  1.00  0.00    -0.083 Cl
HETATM   36  C   UNL     1      39.675  -7.109  10.802  1.00  0.00     0.028 A 
HETATM   37  C   UNL     1      40.579  -7.559   9.833  1.00  0.00     0.032 A 
ENDBRANCH   7  30
TORSDOF 5
ENDMDL
