MODEL 1
REMARK VINA RESULT:      -8.9      0.000      0.000
REMARK  5 active torsions:
REMARK  status: ('A' for Active; 'I' for Inactive)
REMARK    1  A    between atoms: C_5  and  C_6 
REMARK    2  A    between atoms: C_9  and  O_10 
REMARK    3  A    between atoms: N_14  and  C_15 
REMARK    4  A    between atoms: C_15  and  C_16 
REMARK       I    between atoms: C_16  and  N_17 
REMARK    5  A    between atoms: N_17  and  C_18 
ROOT
HETATM    1  C   UNL     1      45.024 -16.533   6.584  1.00  0.00     0.156 C 
HETATM    2  N   UNL     1      43.929 -16.420   5.652  1.00  0.00    -0.346 N 
HETATM    3  C   UNL     1      42.970 -15.464   5.667  1.00  0.00     0.113 A 
HETATM    4  C   UNL     1      42.109 -15.660   4.621  1.00  0.00     0.014 A 
HETATM    5  C   UNL     1      41.063 -14.604   4.612  1.00  0.00     0.158 C 
HETATM    6  N   UNL     1      41.579 -13.735   5.698  1.00  0.00    -0.325 N 
HETATM    7  C   UNL     1      42.648 -14.286   6.402  1.00  0.00     0.272 C 
HETATM    8  O   UNL     1      43.184 -13.840   7.401  1.00  0.00    -0.266 OA
HETATM    9  C   UNL     1      42.561 -16.768   3.881  1.00  0.00     0.002 A 
HETATM   10  C   UNL     1      43.721 -17.229   4.538  1.00  0.00     0.045 A 
HETATM   11  C   UNL     1      42.142 -17.410   2.701  1.00  0.00     0.014 A 
HETATM   12  C   UNL     1      42.885 -18.485   2.201  1.00  0.00     0.001 A 
HETATM   13  C   UNL     1      44.028 -18.926   2.861  1.00  0.00     0.002 A 
HETATM   14  C   UNL     1      44.465 -18.311   4.039  1.00  0.00     0.030 A 
ENDROOT
BRANCH   6  15
HETATM   15  C   UNL     1      40.991 -12.444   5.998  1.00  0.00     0.229 C 
BRANCH  15  16
HETATM   16  C   UNL     1      41.979 -11.286   5.968  1.00  0.00     0.235 C 
HETATM   17  N   UNL     1      42.540 -10.963   7.188  1.00  0.00    -0.355 N 
HETATM   18  H   UNL     1      42.358 -11.596   7.960  1.00  0.00     0.162 HD
HETATM   19  O   UNL     1      42.331 -10.767   4.909  1.00  0.00    -0.272 OA
BRANCH  17  20
HETATM   20  C   UNL     1      43.730 -10.138   7.231  1.00  0.00     0.084 C 
HETATM   21  C   UNL     1      43.882  -9.352   8.525  1.00  0.00     0.025 C 
HETATM   22  C   UNL     1      45.347  -8.938   8.490  1.00  0.00     0.002 C 
HETATM   23  C   UNL     1      46.079 -10.131   7.884  1.00  0.00     0.002 C 
HETATM   24  C   UNL     1      45.016 -10.966   7.168  1.00  0.00     0.025 C 
ENDBRANCH  17  20
ENDBRANCH  15  16
ENDBRANCH   6  15
BRANCH   5  25
HETATM   25  C   UNL     1      41.044 -13.979   3.242  1.00  0.00    -0.030 A 
HETATM   26  C   UNL     1      39.876 -14.065   2.469  1.00  0.00     0.012 A 
HETATM   27  C   UNL     1      39.819 -13.490   1.197  1.00  0.00     0.037 A 
HETATM   28  C   UNL     1      40.918 -12.811   0.671  1.00  0.00     0.068 A 
HETATM   29  C   UNL     1      42.087 -12.723   1.426  1.00  0.00     0.037 A 
HETATM   30  C   UNL     1      42.149 -13.304   2.699  1.00  0.00     0.012 A 
BRANCH  28  31
HETATM   31  O   UNL     1      40.725 -12.290  -0.577  1.00  0.00    -0.356 OA
HETATM   32  C   UNL     1      40.223 -13.176  -1.570  1.00  0.00     0.210 C 
ENDBRANCH  28  31
ENDBRANCH   5  25
TORSDOF 5
ENDMDL
MODEL 2
REMARK VINA RESULT:      -8.6      2.832      6.370
REMARK  5 active torsions:
REMARK  status: ('A' for Active; 'I' for Inactive)
REMARK    1  A    between atoms: C_5  and  C_6 
REMARK    2  A    between atoms: C_9  and  O_10 
REMARK    3  A    between atoms: N_14  and  C_15 
REMARK    4  A    between atoms: C_15  and  C_16 
REMARK       I    between atoms: C_16  and  N_17 
REMARK    5  A    between atoms: N_17  and  C_18 
ROOT
HETATM    1  C   UNL     1      37.157 -10.969   0.588  1.00  0.00     0.156 C 
HETATM    2  N   UNL     1      38.337 -11.750   0.305  1.00  0.00    -0.346 N 
HETATM    3  C   UNL     1      39.434 -11.843   1.093  1.00  0.00     0.113 A 
HETATM    4  C   UNL     1      40.343 -12.690   0.517  1.00  0.00     0.014 A 
HETATM    5  C   UNL     1      41.544 -12.819   1.382  1.00  0.00     0.158 C 
HETATM    6  N   UNL     1      41.081 -12.054   2.566  1.00  0.00    -0.325 N 
HETATM    7  C   UNL     1      39.876 -11.382   2.367  1.00  0.00     0.272 C 
HETATM    8  O   UNL     1      39.331 -10.600   3.127  1.00  0.00    -0.266 OA
HETATM    9  C   UNL     1      39.785 -13.189  -0.674  1.00  0.00     0.002 A 
HETATM   10  C   UNL     1      38.510 -12.596  -0.786  1.00  0.00     0.045 A 
HETATM   11  C   UNL     1      40.199 -14.113  -1.652  1.00  0.00     0.014 A 
HETATM   12  C   UNL     1      39.339 -14.428  -2.709  1.00  0.00     0.001 A 
HETATM   13  C   UNL     1      38.083 -13.835  -2.804  1.00  0.00     0.002 A 
HETATM   14  C   UNL     1      37.648 -12.910  -1.850  1.00  0.00     0.030 A 
ENDROOT
BRANCH   6  15
HETATM   15  C   UNL     1      41.843 -12.003   3.799  1.00  0.00     0.229 C 
BRANCH  15  16
HETATM   16  C   UNL     1      41.603 -13.184   4.730  1.00  0.00     0.235 C 
HETATM   17  N   UNL     1      42.677 -14.041   4.877  1.00  0.00    -0.355 N 
HETATM   18  H   UNL     1      43.560 -13.745   4.473  1.00  0.00     0.162 HD
HETATM   19  O   UNL     1      40.568 -13.287   5.386  1.00  0.00    -0.272 OA
BRANCH  17  20
HETATM   20  C   UNL     1      42.697 -14.977   5.981  1.00  0.00     0.084 C 
HETATM   21  C   UNL     1      42.104 -16.337   5.639  1.00  0.00     0.025 C 
HETATM   22  C   UNL     1      42.621 -17.216   6.770  1.00  0.00     0.002 C 
HETATM   23  C   UNL     1      44.036 -16.717   7.043  1.00  0.00     0.002 C 
HETATM   24  C   UNL     1      44.120 -15.317   6.433  1.00  0.00     0.025 C 
ENDBRANCH  17  20
ENDBRANCH  15  16
ENDBRANCH   6  15
BRANCH   5  25
HETATM   25  C   UNL     1      41.791 -14.286   1.621  1.00  0.00    -0.030 A 
HETATM   26  C   UNL     1      43.100 -14.782   1.522  1.00  0.00     0.012 A 
HETATM   27  C   UNL     1      43.367 -16.136   1.744  1.00  0.00     0.037 A 
HETATM   28  C   UNL     1      42.341 -17.020   2.076  1.00  0.00     0.068 A 
HETATM   29  C   UNL     1      41.035 -16.541   2.173  1.00  0.00     0.037 A 
HETATM   30  C   UNL     1      40.763 -15.187   1.945  1.00  0.00     0.012 A 
BRANCH  28  31
HETATM   31  O   UNL     1      42.742 -18.312   2.275  1.00  0.00    -0.356 OA
HETATM   32  C   UNL     1      43.861 -18.510   3.130  1.00  0.00     0.210 C 
ENDBRANCH  28  31
ENDBRANCH   5  25
TORSDOF 5
ENDMDL
MODEL 3
REMARK VINA RESULT:      -8.4      2.682      6.803
REMARK  5 active torsions:
REMARK  status: ('A' for Active; 'I' for Inactive)
REMARK    1  A    between atoms: C_5  and  C_6 
REMARK    2  A    between atoms: C_9  and  O_10 
REMARK    3  A    between atoms: N_14  and  C_15 
REMARK    4  A    between atoms: C_15  and  C_16 
REMARK       I    between atoms: C_16  and  N_17 
REMARK    5  A    between atoms: N_17  and  C_18 
ROOT
HETATM    1  C   UNL     1      42.874 -18.001   2.564  1.00  0.00     0.156 C 
HETATM    2  N   UNL     1      42.962 -16.843   3.422  1.00  0.00    -0.346 N 
HETATM    3  C   UNL     1      42.744 -15.561   3.047  1.00  0.00     0.113 A 
HETATM    4  C   UNL     1      42.895 -14.734   4.128  1.00  0.00     0.014 A 
HETATM    5  C   UNL     1      42.638 -13.324   3.736  1.00  0.00     0.158 C 
HETATM    6  N   UNL     1      42.177 -13.534   2.342  1.00  0.00    -0.325 N 
HETATM    7  C   UNL     1      42.336 -14.842   1.886  1.00  0.00     0.272 C 
HETATM    8  O   UNL     1      42.145 -15.260   0.757  1.00  0.00    -0.266 OA
HETATM    9  C   UNL     1      43.182 -15.530   5.252  1.00  0.00     0.002 A 
HETATM   10  C   UNL     1      43.208 -16.863   4.791  1.00  0.00     0.045 A 
HETATM   11  C   UNL     1      43.384 -15.276   6.622  1.00  0.00     0.014 A 
HETATM   12  C   UNL     1      43.598 -16.346   7.497  1.00  0.00     0.001 A 
HETATM   13  C   UNL     1      43.618 -17.655   7.026  1.00  0.00     0.002 A 
HETATM   14  C   UNL     1      43.427 -17.938   5.669  1.00  0.00     0.030 A 
ENDROOT
BRANCH   6  15
HETATM   15  C   UNL     1      41.638 -12.455   1.537  1.00  0.00     0.229 C 
BRANCH  15  16
HETATM   16  C   UNL     1      40.289 -12.765   0.901  1.00  0.00     0.235 C 
HETATM   17  N   UNL     1      40.310 -12.921  -0.471  1.00  0.00    -0.355 N 
HETATM   18  H   UNL     1      41.223 -12.953  -0.916  1.00  0.00     0.162 HD
HETATM   19  O   UNL     1      39.288 -12.977   1.585  1.00  0.00    -0.272 OA
BRANCH  17  20
HETATM   20  C   UNL     1      39.190 -13.553  -1.136  1.00  0.00     0.084 C 
HETATM   21  C   UNL     1      38.177 -12.567  -1.697  1.00  0.00     0.025 C 
HETATM   22  C   UNL     1      37.380 -13.428  -2.668  1.00  0.00     0.002 C 
HETATM   23  C   UNL     1      38.406 -14.365  -3.298  1.00  0.00     0.002 C 
HETATM   24  C   UNL     1      39.619 -14.357  -2.367  1.00  0.00     0.025 C 
ENDBRANCH  17  20
ENDBRANCH  15  16
ENDBRANCH   6  15
BRANCH   5  25
HETATM   25  C   UNL     1      41.605 -12.760   4.677  1.00  0.00    -0.030 A 
HETATM   26  C   UNL     1      41.921 -11.621   5.433  1.00  0.00     0.012 A 
HETATM   27  C   UNL     1      40.985 -11.065   6.310  1.00  0.00     0.037 A 
HETATM   28  C   UNL     1      39.715 -11.627   6.447  1.00  0.00     0.068 A 
HETATM   29  C   UNL     1      39.391 -12.762   5.706  1.00  0.00     0.037 A 
HETATM   30  C   UNL     1      40.328 -13.325   4.831  1.00  0.00     0.012 A 
BRANCH  28  31
HETATM   31  O   UNL     1      38.897 -10.980   7.330  1.00  0.00    -0.356 OA
HETATM   32  C   UNL     1      39.404  -9.788   7.917  1.00  0.00     0.210 C 
ENDBRANCH  28  31
ENDBRANCH   5  25
TORSDOF 5
ENDMDL
MODEL 4
REMARK VINA RESULT:      -8.3      2.290      5.363
REMARK  5 active torsions:
REMARK  status: ('A' for Active; 'I' for Inactive)
REMARK    1  A    between atoms: C_5  and  C_6 
REMARK    2  A    between atoms: C_9  and  O_10 
REMARK    3  A    between atoms: N_14  and  C_15 
REMARK    4  A    between atoms: C_15  and  C_16 
REMARK       I    between atoms: C_16  and  N_17 
REMARK    5  A    between atoms: N_17  and  C_18 
ROOT
HETATM    1  C   UNL     1      37.265 -11.087   1.329  1.00  0.00     0.156 C 
HETATM    2  N   UNL     1      38.505 -11.757   1.019  1.00  0.00    -0.346 N 
HETATM    3  C   UNL     1      39.534 -11.956   1.876  1.00  0.00     0.113 A 
HETATM    4  C   UNL     1      40.534 -12.645   1.243  1.00  0.00     0.014 A 
HETATM    5  C   UNL     1      41.662 -12.889   2.178  1.00  0.00     0.158 C 
HETATM    6  N   UNL     1      41.059 -12.377   3.433  1.00  0.00    -0.325 N 
HETATM    7  C   UNL     1      39.841 -11.724   3.249  1.00  0.00     0.272 C 
HETATM    8  O   UNL     1      39.193 -11.119   4.084  1.00  0.00    -0.266 OA
HETATM    9  C   UNL     1      40.106 -12.934  -0.066  1.00  0.00     0.002 A 
HETATM   10  C   UNL     1      38.815 -12.378  -0.187  1.00  0.00     0.045 A 
HETATM   11  C   UNL     1      40.651 -13.642  -1.154  1.00  0.00     0.014 A 
HETATM   12  C   UNL     1      39.902 -13.786  -2.327  1.00  0.00     0.001 A 
HETATM   13  C   UNL     1      38.629 -13.232  -2.428  1.00  0.00     0.002 A 
HETATM   14  C   UNL     1      38.065 -12.518  -1.367  1.00  0.00     0.030 A 
ENDROOT
BRANCH   6  15
HETATM   15  C   UNL     1      41.710 -12.529   4.720  1.00  0.00     0.229 C 
BRANCH  15  16
HETATM   16  C   UNL     1      42.576 -11.344   5.125  1.00  0.00     0.235 C 
HETATM   17  N   UNL     1      42.951 -11.320   6.454  1.00  0.00    -0.355 N 
HETATM   18  H   UNL     1      42.739 -12.145   7.007  1.00  0.00     0.162 HD
HETATM   19  O   UNL     1      43.001 -10.543   4.294  1.00  0.00    -0.272 OA
BRANCH  17  20
HETATM   20  C   UNL     1      44.040 -10.463   6.874  1.00  0.00     0.084 C 
HETATM   21  C   UNL     1      44.011 -10.118   8.356  1.00  0.00     0.025 C 
HETATM   22  C   UNL     1      45.422  -9.604   8.604  1.00  0.00     0.002 C 
HETATM   23  C   UNL     1      46.320 -10.483   7.739  1.00  0.00     0.002 C 
HETATM   24  C   UNL     1      45.408 -11.126   6.693  1.00  0.00     0.025 C 
ENDBRANCH  17  20
ENDBRANCH  15  16
ENDBRANCH   6  15
BRANCH   5  25
HETATM   25  C   UNL     1      41.966 -14.365   2.166  1.00  0.00    -0.030 A 
HETATM   26  C   UNL     1      40.952 -15.273   2.509  1.00  0.00     0.012 A 
HETATM   27  C   UNL     1      41.196 -16.649   2.502  1.00  0.00     0.037 A 
HETATM   28  C   UNL     1      42.449 -17.149   2.146  1.00  0.00     0.068 A 
HETATM   29  C   UNL     1      43.466 -16.257   1.809  1.00  0.00     0.037 A 
HETATM   30  C   UNL     1      43.227 -14.878   1.821  1.00  0.00     0.012 A 
BRANCH  28  31
HETATM   31  O   UNL     1      42.548 -18.512   2.172  1.00  0.00    -0.356 OA
HETATM   32  C   UNL     1      43.747 -19.056   2.708  1.00  0.00     0.210 C 
ENDBRANCH  28  31
ENDBRANCH   5  25
TORSDOF 5
ENDMDL
MODEL 5
REMARK VINA RESULT:      -7.8     16.394     18.213
REMARK  5 active torsions:
REMARK  status: ('A' for Active; 'I' for Inactive)
REMARK    1  A    between atoms: C_5  and  C_6 
REMARK    2  A    between atoms: C_9  and  O_10 
REMARK    3  A    between atoms: N_14  and  C_15 
REMARK    4  A    between atoms: C_15  and  C_16 
REMARK       I    between atoms: C_16  and  N_17 
REMARK    5  A    between atoms: N_17  and  C_18 
ROOT
HETATM    1  C   UNL     1      46.219 -31.438   3.903  1.00  0.00     0.156 C 
HETATM    2  N   UNL     1      45.521 -30.685   2.889  1.00  0.00    -0.346 N 
HETATM    3  C   UNL     1      46.097 -29.931   1.924  1.00  0.00     0.113 A 
HETATM    4  C   UNL     1      45.126 -29.382   1.129  1.00  0.00     0.014 A 
HETATM    5  C   UNL     1      45.746 -28.569   0.051  1.00  0.00     0.158 C 
HETATM    6  N   UNL     1      47.174 -28.891   0.285  1.00  0.00    -0.325 N 
HETATM    7  C   UNL     1      47.405 -29.612   1.456  1.00  0.00     0.272 C 
HETATM    8  O   UNL     1      48.483 -29.909   1.941  1.00  0.00    -0.266 OA
HETATM    9  C   UNL     1      43.876 -29.837   1.585  1.00  0.00     0.002 A 
HETATM   10  C   UNL     1      44.143 -30.672   2.691  1.00  0.00     0.045 A 
HETATM   11  C   UNL     1      42.545 -29.670   1.161  1.00  0.00     0.014 A 
HETATM   12  C   UNL     1      41.517 -30.337   1.836  1.00  0.00     0.001 A 
HETATM   13  C   UNL     1      41.799 -31.159   2.923  1.00  0.00     0.002 A 
HETATM   14  C   UNL     1      43.111 -31.339   3.372  1.00  0.00     0.030 A 
ENDROOT
BRANCH   6  15
HETATM   15  C   UNL     1      48.222 -28.462  -0.621  1.00  0.00     0.229 C 
BRANCH  15  16
HETATM   16  C   UNL     1      48.946 -29.603  -1.322  1.00  0.00     0.235 C 
HETATM   17  N   UNL     1      50.198 -29.900  -0.818  1.00  0.00    -0.355 N 
HETATM   18  H   UNL     1      50.467 -29.437   0.045  1.00  0.00     0.162 HD
HETATM   19  O   UNL     1      48.396 -30.278  -2.192  1.00  0.00    -0.272 OA
BRANCH  17  20
HETATM   20  C   UNL     1      50.823 -31.161  -1.156  1.00  0.00     0.084 C 
HETATM   21  C   UNL     1      51.960 -31.031  -2.158  1.00  0.00     0.025 C 
HETATM   22  C   UNL     1      52.686 -32.361  -2.010  1.00  0.00     0.002 C 
HETATM   23  C   UNL     1      52.620 -32.682  -0.520  1.00  0.00     0.002 C 
HETATM   24  C   UNL     1      51.492 -31.822   0.053  1.00  0.00     0.025 C 
ENDBRANCH  17  20
ENDBRANCH  15  16
ENDBRANCH   6  15
BRANCH   5  25
HETATM   25  C   UNL     1      45.188 -29.041  -1.267  1.00  0.00    -0.030 A 
HETATM   26  C   UNL     1      45.004 -28.111  -2.302  1.00  0.00     0.012 A 
HETATM   27  C   UNL     1      44.497 -28.514  -3.540  1.00  0.00     0.037 A 
HETATM   28  C   UNL     1      44.169 -29.850  -3.776  1.00  0.00     0.068 A 
HETATM   29  C   UNL     1      44.341 -30.783  -2.754  1.00  0.00     0.037 A 
HETATM   30  C   UNL     1      44.844 -30.380  -1.511  1.00  0.00     0.012 A 
BRANCH  28  31
HETATM   31  O   UNL     1      43.692 -30.108  -5.030  1.00  0.00    -0.356 OA
HETATM   32  C   UNL     1      44.240 -31.233  -5.704  1.00  0.00     0.210 C 
ENDBRANCH  28  31
ENDBRANCH   5  25
TORSDOF 5
ENDMDL
MODEL 6
REMARK VINA RESULT:      -7.6      1.761      2.090
REMARK  5 active torsions:
REMARK  status: ('A' for Active; 'I' for Inactive)
REMARK    1  A    between atoms: C_5  and  C_6 
REMARK    2  A    between atoms: C_9  and  O_10 
REMARK    3  A    between atoms: N_14  and  C_15 
REMARK    4  A    between atoms: C_15  and  C_16 
REMARK       I    between atoms: C_16  and  N_17 
REMARK    5  A    between atoms: N_17  and  C_18 
ROOT
HETATM    1  C   UNL     1      44.106 -15.539   6.401  1.00  0.00     0.156 C 
HETATM    2  N   UNL     1      43.183 -15.800   5.322  1.00  0.00    -0.346 N 
HETATM    3  C   UNL     1      42.095 -15.056   5.013  1.00  0.00     0.113 A 
HETATM    4  C   UNL     1      41.470 -15.590   3.918  1.00  0.00     0.014 A 
HETATM    5  C   UNL     1      40.285 -14.771   3.554  1.00  0.00     0.158 C 
HETATM    6  N   UNL     1      40.460 -13.645   4.503  1.00  0.00    -0.325 N 
HETATM    7  C   UNL     1      41.467 -13.852   5.444  1.00  0.00     0.272 C 
HETATM    8  O   UNL     1      41.745 -13.145   6.398  1.00  0.00    -0.266 OA
HETATM    9  C   UNL     1      42.214 -16.703   3.486  1.00  0.00     0.002 A 
HETATM   10  C   UNL     1      43.303 -16.814   4.377  1.00  0.00     0.045 A 
HETATM   11  C   UNL     1      42.113 -17.608   2.413  1.00  0.00     0.014 A 
HETATM   12  C   UNL     1      43.094 -18.592   2.247  1.00  0.00     0.001 A 
HETATM   13  C   UNL     1      44.162 -18.686   3.134  1.00  0.00     0.002 A 
HETATM   14  C   UNL     1      44.286 -17.805   4.213  1.00  0.00     0.030 A 
ENDROOT
BRANCH   6  15
HETATM   15  C   UNL     1      39.629 -12.457   4.453  1.00  0.00     0.229 C 
BRANCH  15  16
HETATM   16  C   UNL     1      40.409 -11.149   4.482  1.00  0.00     0.235 C 
HETATM   17  N   UNL     1      40.354 -10.461   5.679  1.00  0.00    -0.355 N 
HETATM   18  H   UNL     1      39.924 -10.940   6.465  1.00  0.00     0.162 HD
HETATM   19  O   UNL     1      41.126 -10.805   3.543  1.00  0.00    -0.272 OA
BRANCH  17  20
HETATM   20  C   UNL     1      41.317  -9.413   5.944  1.00  0.00     0.084 C 
HETATM   21  C   UNL     1      40.732  -8.011   5.859  1.00  0.00     0.025 C 
HETATM   22  C   UNL     1      41.783  -7.170   6.571  1.00  0.00     0.002 C 
HETATM   23  C   UNL     1      42.273  -8.044   7.722  1.00  0.00     0.002 C 
HETATM   24  C   UNL     1      41.871  -9.477   7.371  1.00  0.00     0.025 C 
ENDBRANCH  17  20
ENDBRANCH  15  16
ENDBRANCH   6  15
BRANCH   5  25
HETATM   25  C   UNL     1      40.401 -14.407   2.096  1.00  0.00    -0.030 A 
HETATM   26  C   UNL     1      39.758 -15.208   1.140  1.00  0.00     0.012 A 
HETATM   27  C   UNL     1      39.837 -14.897  -0.220  1.00  0.00     0.037 A 
HETATM   28  C   UNL     1      40.551 -13.780  -0.656  1.00  0.00     0.068 A 
HETATM   29  C   UNL     1      41.200 -12.980   0.283  1.00  0.00     0.037 A 
HETATM   30  C   UNL     1      41.127 -13.292   1.646  1.00  0.00     0.012 A 
BRANCH  28  31
HETATM   31  O   UNL     1      40.540 -13.587  -2.009  1.00  0.00    -0.356 OA
HETATM   32  C   UNL     1      39.591 -12.657  -2.515  1.00  0.00     0.210 C 
ENDBRANCH  28  31
ENDBRANCH   5  25
TORSDOF 5
ENDMDL
MODEL 7
REMARK VINA RESULT:      -7.5      2.319      5.375
REMARK  5 active torsions:
REMARK  status: ('A' for Active; 'I' for Inactive)
REMARK    1  A    between atoms: C_5  and  C_6 
REMARK    2  A    between atoms: C_9  and  O_10 
REMARK    3  A    between atoms: N_14  and  C_15 
REMARK    4  A    between atoms: C_15  and  C_16 
REMARK       I    between atoms: C_16  and  N_17 
REMARK    5  A    between atoms: N_17  and  C_18 
ROOT
HETATM    1  C   UNL     1      39.274  -9.219   3.855  1.00  0.00     0.156 C 
HETATM    2  N   UNL     1      40.048 -10.190   3.119  1.00  0.00    -0.346 N 
HETATM    3  C   UNL     1      41.302 -10.600   3.424  1.00  0.00     0.113 A 
HETATM    4  C   UNL     1      41.709 -11.544   2.519  1.00  0.00     0.014 A 
HETATM    5  C   UNL     1      43.076 -12.019   2.854  1.00  0.00     0.158 C 
HETATM    6  N   UNL     1      43.274 -11.317   4.146  1.00  0.00    -0.325 N 
HETATM    7  C   UNL     1      42.276 -10.391   4.443  1.00  0.00     0.272 C 
HETATM    8  O   UNL     1      42.249  -9.607   5.375  1.00  0.00    -0.266 OA
HETATM    9  C   UNL     1      40.652 -11.775   1.620  1.00  0.00     0.002 A 
HETATM   10  C   UNL     1      39.603 -10.921   2.022  1.00  0.00     0.045 A 
HETATM   11  C   UNL     1      40.448 -12.645   0.532  1.00  0.00     0.014 A 
HETATM   12  C   UNL     1      39.212 -12.650  -0.123  1.00  0.00     0.001 A 
HETATM   13  C   UNL     1      38.187 -11.802   0.288  1.00  0.00     0.002 A 
HETATM   14  C   UNL     1      38.363 -10.923   1.362  1.00  0.00     0.030 A 
ENDROOT
BRANCH   6  15
HETATM   15  C   UNL     1      44.424 -11.569   4.993  1.00  0.00     0.229 C 
BRANCH  15  16
HETATM   16  C   UNL     1      44.101 -11.632   6.480  1.00  0.00     0.235 C 
HETATM   17  N   UNL     1      44.717 -10.668   7.254  1.00  0.00    -0.355 N 
HETATM   18  H   UNL     1      45.212  -9.930   6.762  1.00  0.00     0.162 HD
HETATM   19  O   UNL     1      43.260 -12.413   6.924  1.00  0.00    -0.272 OA
BRANCH  17  20
HETATM   20  C   UNL     1      44.226 -10.405   8.591  1.00  0.00     0.084 C 
HETATM   21  C   UNL     1      45.327 -10.099   9.596  1.00  0.00     0.025 C 
HETATM   22  C   UNL     1      44.557  -9.465  10.746  1.00  0.00     0.002 C 
HETATM   23  C   UNL     1      43.470  -8.628  10.079  1.00  0.00     0.002 C 
HETATM   24  C   UNL     1      43.337  -9.160   8.652  1.00  0.00     0.025 C 
ENDBRANCH  17  20
ENDBRANCH  15  16
ENDBRANCH   6  15
BRANCH   5  25
HETATM   25  C   UNL     1      43.039 -13.523   2.938  1.00  0.00    -0.030 A 
HETATM   26  C   UNL     1      42.531 -14.129   4.097  1.00  0.00     0.012 A 
HETATM   27  C   UNL     1      42.474 -15.521   4.207  1.00  0.00     0.037 A 
HETATM   28  C   UNL     1      42.914 -16.337   3.165  1.00  0.00     0.068 A 
HETATM   29  C   UNL     1      43.427 -15.748   2.010  1.00  0.00     0.037 A 
HETATM   30  C   UNL     1      43.491 -14.354   1.900  1.00  0.00     0.012 A 
BRANCH  28  31
HETATM   31  O   UNL     1      42.794 -17.678   3.400  1.00  0.00    -0.356 OA
HETATM   32  C   UNL     1      43.964 -18.466   3.224  1.00  0.00     0.210 C 
ENDBRANCH  28  31
ENDBRANCH   5  25
TORSDOF 5
ENDMDL
MODEL 8
REMARK VINA RESULT:      -7.3     16.052     18.472
REMARK  5 active torsions:
REMARK  status: ('A' for Active; 'I' for Inactive)
REMARK    1  A    between atoms: C_5  and  C_6 
REMARK    2  A    between atoms: C_9  and  O_10 
REMARK    3  A    between atoms: N_14  and  C_15 
REMARK    4  A    between atoms: C_15  and  C_16 
REMARK       I    between atoms: C_16  and  N_17 
REMARK    5  A    between atoms: N_17  and  C_18 
ROOT
HETATM    1  C   UNL     1      50.507 -30.330  -0.273  1.00  0.00     0.156 C 
HETATM    2  N   UNL     1      49.452 -30.065   0.675  1.00  0.00    -0.346 N 
HETATM    3  C   UNL     1      48.296 -29.411   0.412  1.00  0.00     0.113 A 
HETATM    4  C   UNL     1      47.526 -29.366   1.544  1.00  0.00     0.014 A 
HETATM    5  C   UNL     1      46.244 -28.669   1.265  1.00  0.00     0.158 C 
HETATM    6  N   UNL     1      46.371 -28.492  -0.202  1.00  0.00    -0.325 N 
HETATM    7  C   UNL     1      47.626 -28.831  -0.705  1.00  0.00     0.272 C 
HETATM    8  O   UNL     1      48.033 -28.678  -1.843  1.00  0.00    -0.266 OA
HETATM    9  C   UNL     1      48.204 -30.058   2.564  1.00  0.00     0.002 A 
HETATM   10  C   UNL     1      49.414 -30.506   1.994  1.00  0.00     0.045 A 
HETATM   11  C   UNL     1      47.911 -30.393   3.899  1.00  0.00     0.014 A 
HETATM   12  C   UNL     1      48.819 -31.166   4.631  1.00  0.00     0.001 A 
HETATM   13  C   UNL     1      50.008 -31.601   4.052  1.00  0.00     0.002 A 
HETATM   14  C   UNL     1      50.328 -31.279   2.730  1.00  0.00     0.030 A 
ENDROOT
BRANCH   6  15
HETATM   15  C   UNL     1      45.283 -27.986  -1.016  1.00  0.00     0.229 C 
BRANCH  15  16
HETATM   16  C   UNL     1      44.615 -29.039  -1.891  1.00  0.00     0.235 C 
HETATM   17  N   UNL     1      45.152 -29.176  -3.156  1.00  0.00    -0.355 N 
HETATM   18  H   UNL     1      46.014 -28.673  -3.347  1.00  0.00     0.162 HD
HETATM   19  O   UNL     1      43.744 -29.786  -1.447  1.00  0.00    -0.272 OA
BRANCH  17  20
HETATM   20  C   UNL     1      44.848 -30.356  -3.937  1.00  0.00     0.084 C 
HETATM   21  C   UNL     1      44.060 -30.063  -5.205  1.00  0.00     0.025 C 
HETATM   22  C   UNL     1      44.246 -31.341  -6.013  1.00  0.00     0.002 C 
HETATM   23  C   UNL     1      45.682 -31.777  -5.735  1.00  0.00     0.002 C 
HETATM   24  C   UNL     1      46.108 -31.052  -4.458  1.00  0.00     0.025 C 
ENDBRANCH  17  20
ENDBRANCH  15  16
ENDBRANCH   6  15
BRANCH   5  25
HETATM   25  C   UNL     1      45.118 -29.568   1.709  1.00  0.00    -0.030 A 
HETATM   26  C   UNL     1      45.135 -30.920   1.331  1.00  0.00     0.012 A 
HETATM   27  C   UNL     1      44.113 -31.784   1.730  1.00  0.00     0.037 A 
HETATM   28  C   UNL     1      43.059 -31.325   2.520  1.00  0.00     0.068 A 
HETATM   29  C   UNL     1      43.027 -29.983   2.898  1.00  0.00     0.037 A 
HETATM   30  C   UNL     1      44.047 -29.113   2.493  1.00  0.00     0.012 A 
BRANCH  28  31
HETATM   31  O   UNL     1      42.133 -32.276   2.846  1.00  0.00    -0.356 OA
HETATM   32  C   UNL     1      41.005 -32.391   1.989  1.00  0.00     0.210 C 
ENDBRANCH  28  31
ENDBRANCH   5  25
TORSDOF 5
ENDMDL
MODEL 9
REMARK VINA RESULT:      -7.3      2.467      2.989
REMARK  5 active torsions:
REMARK  status: ('A' for Active; 'I' for Inactive)
REMARK    1  A    between atoms: C_5  and  C_6 
REMARK    2  A    between atoms: C_9  and  O_10 
REMARK    3  A    between atoms: N_14  and  C_15 
REMARK    4  A    between atoms: C_15  and  C_16 
REMARK       I    between atoms: C_16  and  N_17 
REMARK    5  A    between atoms: N_17  and  C_18 
ROOT
HETATM    1  C   UNL     1      44.271 -15.111   6.421  1.00  0.00     0.156 C 
HETATM    2  N   UNL     1      43.162 -15.027   5.501  1.00  0.00    -0.346 N 
HETATM    3  C   UNL     1      42.243 -14.034   5.455  1.00  0.00     0.113 A 
HETATM    4  C   UNL     1      41.354 -14.277   4.443  1.00  0.00     0.014 A 
HETATM    5  C   UNL     1      40.352 -13.183   4.367  1.00  0.00     0.158 C 
HETATM    6  N   UNL     1      40.923 -12.252   5.370  1.00  0.00    -0.325 N 
HETATM    7  C   UNL     1      41.983 -12.789   6.099  1.00  0.00     0.272 C 
HETATM    8  O   UNL     1      42.557 -12.287   7.049  1.00  0.00    -0.266 OA
HETATM    9  C   UNL     1      41.747 -15.458   3.787  1.00  0.00     0.002 A 
HETATM   10  C   UNL     1      42.900 -15.913   4.460  1.00  0.00     0.045 A 
HETATM   11  C   UNL     1      41.279 -16.175   2.670  1.00  0.00     0.014 A 
HETATM   12  C   UNL     1      41.968 -17.316   2.245  1.00  0.00     0.001 A 
HETATM   13  C   UNL     1      43.106 -17.750   2.920  1.00  0.00     0.002 A 
HETATM   14  C   UNL     1      43.590 -17.062   4.037  1.00  0.00     0.030 A 
ENDROOT
BRANCH   6  15
HETATM   15  C   UNL     1      40.393 -10.918   5.576  1.00  0.00     0.229 C 
BRANCH  15  16
HETATM   16  C   UNL     1      39.589 -10.757   6.859  1.00  0.00     0.235 C 
HETATM   17  N   UNL     1      40.245 -10.103   7.883  1.00  0.00    -0.355 N 
HETATM   18  H   UNL     1      41.136  -9.672   7.657  1.00  0.00     0.162 HD
HETATM   19  O   UNL     1      38.404 -11.083   6.921  1.00  0.00    -0.272 OA
BRANCH  17  20
HETATM   20  C   UNL     1      39.485  -9.585   9.002  1.00  0.00     0.084 C 
HETATM   21  C   UNL     1      40.265  -9.554  10.308  1.00  0.00     0.025 C 
HETATM   22  C   UNL     1      39.432  -8.613  11.168  1.00  0.00     0.002 C 
HETATM   23  C   UNL     1      38.934  -7.538  10.207  1.00  0.00     0.002 C 
HETATM   24  C   UNL     1      39.076  -8.123   8.801  1.00  0.00     0.025 C 
ENDBRANCH  17  20
ENDBRANCH  15  16
ENDBRANCH   6  15
BRANCH   5  25
HETATM   25  C   UNL     1      40.330 -12.668   2.951  1.00  0.00    -0.030 A 
HETATM   26  C   UNL     1      39.116 -12.661   2.246  1.00  0.00     0.012 A 
HETATM   27  C   UNL     1      39.056 -12.184   0.935  1.00  0.00     0.037 A 
HETATM   28  C   UNL     1      40.200 -11.698   0.300  1.00  0.00     0.068 A 
HETATM   29  C   UNL     1      41.413 -11.704   0.987  1.00  0.00     0.037 A 
HETATM   30  C   UNL     1      41.477 -12.188   2.299  1.00  0.00     0.012 A 
BRANCH  28  31
HETATM   31  O   UNL     1      39.999 -11.254  -0.977  1.00  0.00    -0.356 OA
HETATM   32  C   UNL     1      40.844 -11.797  -1.983  1.00  0.00     0.210 C 
ENDBRANCH  28  31
ENDBRANCH   5  25
TORSDOF 5
ENDMDL
MODEL 10
REMARK VINA RESULT:      -7.1      3.109      6.147
REMARK  5 active torsions:
REMARK  status: ('A' for Active; 'I' for Inactive)
REMARK    1  A    between atoms: C_5  and  C_6 
REMARK    2  A    between atoms: C_9  and  O_10 
REMARK    3  A    between atoms: N_14  and  C_15 
REMARK    4  A    between atoms: C_15  and  C_16 
REMARK       I    between atoms: C_16  and  N_17 
REMARK    5  A    between atoms: N_17  and  C_18 
ROOT
HETATM    1  C   UNL     1      36.815 -10.968   0.439  1.00  0.00     0.156 C 
HETATM    2  N   UNL     1      38.069 -11.666   0.287  1.00  0.00    -0.346 N 
HETATM    3  C   UNL     1      39.046 -11.752   1.219  1.00  0.00     0.113 A 
HETATM    4  C   UNL     1      40.078 -12.510   0.735  1.00  0.00     0.014 A 
HETATM    5  C   UNL     1      41.150 -12.631   1.757  1.00  0.00     0.158 C 
HETATM    6  N   UNL     1      40.477 -11.970   2.902  1.00  0.00    -0.325 N 
HETATM    7  C   UNL     1      39.274 -11.351   2.568  1.00  0.00     0.272 C 
HETATM    8  O   UNL     1      38.580 -10.650   3.283  1.00  0.00    -0.266 OA
HETATM    9  C   UNL     1      39.726 -12.961  -0.551  1.00  0.00     0.002 A 
HETATM   10  C   UNL     1      38.446 -12.429  -0.814  1.00  0.00     0.045 A 
HETATM   11  C   UNL     1      40.331 -13.795  -1.509  1.00  0.00     0.014 A 
HETATM   12  C   UNL     1      39.651 -14.087  -2.696  1.00  0.00     0.001 A 
HETATM   13  C   UNL     1      38.387 -13.556  -2.939  1.00  0.00     0.002 A 
HETATM   14  C   UNL     1      37.765 -12.718  -2.008  1.00  0.00     0.030 A 
ENDROOT
BRANCH   6  15
HETATM   15  C   UNL     1      41.052 -11.959   4.233  1.00  0.00     0.229 C 
BRANCH  15  16
HETATM   16  C   UNL     1      41.127 -10.577   4.869  1.00  0.00     0.235 C 
HETATM   17  N   UNL     1      40.127 -10.297   5.779  1.00  0.00    -0.355 N 
HETATM   18  H   UNL     1      39.519 -11.066   6.047  1.00  0.00     0.162 HD
HETATM   19  O   UNL     1      42.080  -9.826   4.666  1.00  0.00    -0.272 OA
BRANCH  17  20
HETATM   20  C   UNL     1      40.284  -9.185   6.693  1.00  0.00     0.084 C 
HETATM   21  C   UNL     1      39.381  -8.002   6.377  1.00  0.00     0.025 C 
HETATM   22  C   UNL     1      39.425  -7.197   7.669  1.00  0.00     0.002 C 
HETATM   23  C   UNL     1      39.453  -8.240   8.782  1.00  0.00     0.002 C 
HETATM   24  C   UNL     1      39.898  -9.550   8.129  1.00  0.00     0.025 C 
ENDBRANCH  17  20
ENDBRANCH  15  16
ENDBRANCH   6  15
BRANCH   5  25
HETATM   25  C   UNL     1      41.450 -14.096   1.946  1.00  0.00    -0.030 A 
HETATM   26  C   UNL     1      42.754 -14.561   1.713  1.00  0.00     0.012 A 
HETATM   27  C   UNL     1      43.071 -15.910   1.885  1.00  0.00     0.037 A 
HETATM   28  C   UNL     1      42.100 -16.823   2.299  1.00  0.00     0.068 A 
HETATM   29  C   UNL     1      40.800 -16.376   2.528  1.00  0.00     0.037 A 
HETATM   30  C   UNL     1      40.478 -15.025   2.351  1.00  0.00     0.012 A 
BRANCH  28  31
HETATM   31  O   UNL     1      42.546 -18.108   2.437  1.00  0.00    -0.356 OA
HETATM   32  C   UNL     1      43.821 -18.281   3.042  1.00  0.00     0.210 C 
ENDBRANCH  28  31
ENDBRANCH   5  25
TORSDOF 5
ENDMDL
