MODEL 1
REMARK VINA RESULT:      -8.0      0.000      0.000
REMARK  5 active torsions:
REMARK  status: ('A' for Active; 'I' for Inactive)
REMARK    1  A    between atoms: C_2  and  O_3 
REMARK    2  A    between atoms: O_3  and  C_4 
REMARK    3  A    between atoms: C_5  and  C_6 
REMARK       I    between atoms: C_6  and  N_7 
REMARK    4  A    between atoms: N_7  and  N_8 
REMARK    5  A    between atoms: C_9  and  C_10 
ROOT
HETATM    1  C   UNL     1      40.240 -14.890   0.122  1.00  0.00     0.274 C 
HETATM    2  N   UNL     1      41.416 -14.583   0.786  1.00  0.00    -0.243 N 
HETATM    3  O   UNL     1      39.527 -15.863   0.357  1.00  0.00    -0.266 OA
HETATM    4  H   UNL     1      41.940 -13.753   0.523  1.00  0.00     0.192 HD
ENDROOT
BRANCH   2   5
HETATM    5  N   UNL     1      41.763 -15.297   1.897  1.00  0.00    -0.183 NA
HETATM    6  C   UNL     1      42.760 -16.108   1.767  1.00  0.00     0.152 C 
BRANCH   6   7
HETATM    7  C   UNL     1      43.224 -16.844   2.927  1.00  0.00     0.011 A 
HETATM    8  C   UNL     1      43.430 -18.256   3.049  1.00  0.00     0.004 A 
HETATM    9  C   UNL     1      43.925 -18.497   4.332  1.00  0.00     0.043 A 
HETATM   10  C   UNL     1      43.260 -19.357   2.182  1.00  0.00     0.014 A 
HETATM   11  C   UNL     1      44.261 -19.778   4.791  1.00  0.00     0.030 A 
HETATM   12  N   UNL     1      44.003 -17.283   4.972  1.00  0.00    -0.364 N 
HETATM   13  C   UNL     1      44.087 -20.847   3.911  1.00  0.00     0.002 A 
HETATM   14  C   UNL     1      43.592 -20.644   2.626  1.00  0.00     0.001 A 
HETATM   15  H   UNL     1      44.334 -17.150   5.918  1.00  0.00     0.165 HD
HETATM   16  C   UNL     1      43.589 -16.284   4.138  1.00  0.00     0.102 A 
ENDBRANCH   6   7
ENDBRANCH   2   5
BRANCH   1  17
HETATM   17  C   UNL     1      39.783 -13.886  -0.882  1.00  0.00     0.067 A 
HETATM   18  C   UNL     1      39.680 -12.510  -0.628  1.00  0.00     0.084 A 
HETATM   19  C   UNL     1      39.160 -11.664  -1.618  1.00  0.00     0.038 A 
HETATM   20  C   UNL     1      38.791 -12.175  -2.866  1.00  0.00     0.003 A 
HETATM   21  C   UNL     1      38.932 -13.533  -3.134  1.00  0.00     0.001 A 
HETATM   22  C   UNL     1      39.426 -14.384  -2.146  1.00  0.00     0.020 A 
BRANCH  18  23
HETATM   23  O   UNL     1      40.057 -12.032   0.603  1.00  0.00    -0.350 OA
BRANCH  23  24
HETATM   24  C   UNL     1      38.956 -11.708   1.464  1.00  0.00     0.171 C 
HETATM   25  C   UNL     1      39.081 -12.534   2.730  1.00  0.00     0.034 C 
ENDBRANCH  23  24
ENDBRANCH  18  23
ENDBRANCH   1  17
TORSDOF 5
ENDMDL
MODEL 2
REMARK VINA RESULT:      -7.9      1.403      2.502
REMARK  5 active torsions:
REMARK  status: ('A' for Active; 'I' for Inactive)
REMARK    1  A    between atoms: C_2  and  O_3 
REMARK    2  A    between atoms: O_3  and  C_4 
REMARK    3  A    between atoms: C_5  and  C_6 
REMARK       I    between atoms: C_6  and  N_7 
REMARK    4  A    between atoms: N_7  and  N_8 
REMARK    5  A    between atoms: C_9  and  C_10 
ROOT
HETATM    1  C   UNL     1      40.873 -13.869   1.149  1.00  0.00     0.274 C 
HETATM    2  N   UNL     1      41.733 -14.908   0.834  1.00  0.00    -0.243 N 
HETATM    3  O   UNL     1      40.180 -13.806   2.162  1.00  0.00    -0.266 OA
HETATM    4  H   UNL     1      42.269 -14.872  -0.029  1.00  0.00     0.192 HD
ENDROOT
BRANCH   2   5
HETATM    5  N   UNL     1      41.982 -15.876   1.764  1.00  0.00    -0.183 NA
HETATM    6  C   UNL     1      43.155 -15.860   2.307  1.00  0.00     0.152 C 
BRANCH   6   7
HETATM    7  C   UNL     1      43.459 -16.817   3.352  1.00  0.00     0.011 A 
HETATM    8  C   UNL     1      43.553 -18.242   3.240  1.00  0.00     0.004 A 
HETATM    9  C   UNL     1      43.912 -18.736   4.496  1.00  0.00     0.043 A 
HETATM   10  C   UNL     1      43.387 -19.163   2.184  1.00  0.00     0.014 A 
HETATM   11  C   UNL     1      44.115 -20.099   4.748  1.00  0.00     0.030 A 
HETATM   12  N   UNL     1      44.016 -17.658   5.343  1.00  0.00    -0.364 N 
HETATM   13  C   UNL     1      43.947 -20.987   3.684  1.00  0.00     0.002 A 
HETATM   14  C   UNL     1      43.586 -20.529   2.420  1.00  0.00     0.001 A 
HETATM   15  H   UNL     1      44.269 -17.715   6.320  1.00  0.00     0.165 HD
HETATM   16  C   UNL     1      43.751 -16.501   4.667  1.00  0.00     0.102 A 
ENDBRANCH   6   7
ENDBRANCH   2   5
BRANCH   1  17
HETATM   17  C   UNL     1      40.889 -12.708   0.213  1.00  0.00     0.067 A 
HETATM   18  C   UNL     1      40.552 -12.790  -1.147  1.00  0.00     0.084 A 
HETATM   19  C   UNL     1      40.683 -11.653  -1.957  1.00  0.00     0.038 A 
HETATM   20  C   UNL     1      41.099 -10.435  -1.411  1.00  0.00     0.003 A 
HETATM   21  C   UNL     1      41.393 -10.343  -0.055  1.00  0.00     0.001 A 
HETATM   22  C   UNL     1      41.289 -11.474   0.753  1.00  0.00     0.020 A 
BRANCH  18  23
HETATM   23  O   UNL     1      40.138 -13.996  -1.657  1.00  0.00    -0.350 OA
BRANCH  23  24
HETATM   24  C   UNL     1      38.730 -14.063  -1.921  1.00  0.00     0.171 C 
HETATM   25  C   UNL     1      38.528 -14.700  -3.283  1.00  0.00     0.034 C 
ENDBRANCH  23  24
ENDBRANCH  18  23
ENDBRANCH   1  17
TORSDOF 5
ENDMDL
MODEL 3
REMARK VINA RESULT:      -7.8      2.029      8.064
REMARK  5 active torsions:
REMARK  status: ('A' for Active; 'I' for Inactive)
REMARK    1  A    between atoms: C_2  and  O_3 
REMARK    2  A    between atoms: O_3  and  C_4 
REMARK    3  A    between atoms: C_5  and  C_6 
REMARK       I    between atoms: C_6  and  N_7 
REMARK    4  A    between atoms: N_7  and  N_8 
REMARK    5  A    between atoms: C_9  and  C_10 
ROOT
HETATM    1  C   UNL     1      42.796 -16.964   2.234  1.00  0.00     0.274 C 
HETATM    2  N   UNL     1      41.502 -16.548   2.504  1.00  0.00    -0.243 N 
HETATM    3  O   UNL     1      43.601 -16.363   1.528  1.00  0.00    -0.266 OA
HETATM    4  H   UNL     1      40.907 -17.112   3.103  1.00  0.00     0.192 HD
ENDROOT
BRANCH   2   5
HETATM    5  N   UNL     1      41.104 -15.304   2.106  1.00  0.00    -0.183 NA
HETATM    6  C   UNL     1      40.491 -15.235   0.971  1.00  0.00     0.152 C 
BRANCH   6   7
HETATM    7  C   UNL     1      39.979 -13.955   0.524  1.00  0.00     0.011 A 
HETATM    8  C   UNL     1      39.318 -13.653  -0.710  1.00  0.00     0.004 A 
HETATM    9  C   UNL     1      38.967 -12.301  -0.677  1.00  0.00     0.043 A 
HETATM   10  C   UNL     1      38.963 -14.406  -1.850  1.00  0.00     0.014 A 
HETATM   11  C   UNL     1      38.280 -11.667  -1.720  1.00  0.00     0.030 A 
HETATM   12  N   UNL     1      39.411 -11.796   0.522  1.00  0.00    -0.364 N 
HETATM   13  C   UNL     1      37.940 -12.437  -2.834  1.00  0.00     0.002 A 
HETATM   14  C   UNL     1      38.276 -13.786  -2.902  1.00  0.00     0.001 A 
HETATM   15  H   UNL     1      39.292 -10.839   0.824  1.00  0.00     0.165 HD
HETATM   16  C   UNL     1      40.016 -12.779   1.252  1.00  0.00     0.102 A 
ENDBRANCH   6   7
ENDBRANCH   2   5
BRANCH   1  17
HETATM   17  C   UNL     1      43.243 -18.191   2.955  1.00  0.00     0.067 A 
HETATM   18  C   UNL     1      43.671 -18.206   4.291  1.00  0.00     0.084 A 
HETATM   19  C   UNL     1      44.150 -19.401   4.847  1.00  0.00     0.038 A 
HETATM   20  C   UNL     1      44.159 -20.580   4.096  1.00  0.00     0.003 A 
HETATM   21  C   UNL     1      43.696 -20.576   2.784  1.00  0.00     0.001 A 
HETATM   22  C   UNL     1      43.241 -19.386   2.217  1.00  0.00     0.020 A 
BRANCH  18  23
HETATM   23  O   UNL     1      43.644 -17.037   5.011  1.00  0.00    -0.350 OA
BRANCH  23  24
HETATM   24  C   UNL     1      42.911 -17.126   6.241  1.00  0.00     0.171 C 
HETATM   25  C   UNL     1      41.582 -16.419   6.058  1.00  0.00     0.034 C 
ENDBRANCH  23  24
ENDBRANCH  18  23
ENDBRANCH   1  17
TORSDOF 5
ENDMDL
MODEL 4
REMARK VINA RESULT:      -7.5      4.626      8.206
REMARK  5 active torsions:
REMARK  status: ('A' for Active; 'I' for Inactive)
REMARK    1  A    between atoms: C_2  and  O_3 
REMARK    2  A    between atoms: O_3  and  C_4 
REMARK    3  A    between atoms: C_5  and  C_6 
REMARK       I    between atoms: C_6  and  N_7 
REMARK    4  A    between atoms: N_7  and  N_8 
REMARK    5  A    between atoms: C_9  and  C_10 
ROOT
HETATM    1  C   UNL     1      43.525 -16.975   5.583  1.00  0.00     0.274 C 
HETATM    2  N   UNL     1      43.795 -15.693   5.133  1.00  0.00    -0.243 N 
HETATM    3  O   UNL     1      43.159 -17.265   6.720  1.00  0.00    -0.266 OA
HETATM    4  H   UNL     1      44.091 -15.550   4.172  1.00  0.00     0.192 HD
ENDROOT
BRANCH   2   5
HETATM    5  N   UNL     1      43.492 -14.627   5.930  1.00  0.00    -0.183 NA
HETATM    6  C   UNL     1      43.529 -13.464   5.368  1.00  0.00     0.152 C 
BRANCH   6   7
HETATM    7  C   UNL     1      43.149 -12.297   6.141  1.00  0.00     0.011 A 
HETATM    8  C   UNL     1      44.000 -11.426   6.895  1.00  0.00     0.004 A 
HETATM    9  C   UNL     1      43.196 -10.417   7.430  1.00  0.00     0.043 A 
HETATM   10  C   UNL     1      45.386 -11.386   7.161  1.00  0.00     0.014 A 
HETATM   11  C   UNL     1      43.705  -9.373   8.212  1.00  0.00     0.030 A 
HETATM   12  N   UNL     1      41.905 -10.672   7.031  1.00  0.00    -0.364 N 
HETATM   13  C   UNL     1      45.080  -9.357   8.456  1.00  0.00     0.002 A 
HETATM   14  C   UNL     1      45.910 -10.348   7.941  1.00  0.00     0.001 A 
HETATM   15  H   UNL     1      41.105 -10.100   7.267  1.00  0.00     0.165 HD
HETATM   16  C   UNL     1      41.865 -11.794   6.254  1.00  0.00     0.102 A 
ENDBRANCH   6   7
ENDBRANCH   2   5
BRANCH   1  17
HETATM   17  C   UNL     1      43.598 -18.051   4.552  1.00  0.00     0.067 A 
HETATM   18  C   UNL     1      43.252 -17.873   3.204  1.00  0.00     0.084 A 
HETATM   19  C   UNL     1      43.278 -18.975   2.336  1.00  0.00     0.038 A 
HETATM   20  C   UNL     1      43.690 -20.230   2.793  1.00  0.00     0.003 A 
HETATM   21  C   UNL     1      44.074 -20.398   4.120  1.00  0.00     0.001 A 
HETATM   22  C   UNL     1      44.027 -19.313   4.995  1.00  0.00     0.020 A 
BRANCH  18  23
HETATM   23  O   UNL     1      42.859 -16.628   2.777  1.00  0.00    -0.350 OA
BRANCH  23  24
HETATM   24  C   UNL     1      41.501 -16.573   2.318  1.00  0.00     0.171 C 
HETATM   25  C   UNL     1      40.629 -16.092   3.462  1.00  0.00     0.034 C 
ENDBRANCH  23  24
ENDBRANCH  18  23
ENDBRANCH   1  17
TORSDOF 5
ENDMDL
MODEL 5
REMARK VINA RESULT:      -7.4      5.392      7.831
REMARK  5 active torsions:
REMARK  status: ('A' for Active; 'I' for Inactive)
REMARK    1  A    between atoms: C_2  and  O_3 
REMARK    2  A    between atoms: O_3  and  C_4 
REMARK    3  A    between atoms: C_5  and  C_6 
REMARK       I    between atoms: C_6  and  N_7 
REMARK    4  A    between atoms: N_7  and  N_8 
REMARK    5  A    between atoms: C_9  and  C_10 
ROOT
HETATM    1  C   UNL     1      44.521 -11.781   7.107  1.00  0.00     0.274 C 
HETATM    2  N   UNL     1      43.575 -12.790   7.026  1.00  0.00    -0.243 N 
HETATM    3  O   UNL     1      45.457 -11.623   6.326  1.00  0.00    -0.266 OA
HETATM    4  H   UNL     1      42.833 -12.840   7.718  1.00  0.00     0.192 HD
ENDROOT
BRANCH   2   5
HETATM    5  N   UNL     1      43.549 -13.595   5.923  1.00  0.00    -0.183 NA
HETATM    6  C   UNL     1      42.492 -14.324   5.772  1.00  0.00     0.152 C 
BRANCH   6   7
HETATM    7  C   UNL     1      42.370 -15.148   4.586  1.00  0.00     0.011 A 
HETATM    8  C   UNL     1      43.039 -16.381   4.299  1.00  0.00     0.004 A 
HETATM    9  C   UNL     1      42.572 -16.832   3.062  1.00  0.00     0.043 A 
HETATM   10  C   UNL     1      43.987 -17.173   4.983  1.00  0.00     0.014 A 
HETATM   11  C   UNL     1      43.001 -18.030   2.477  1.00  0.00     0.030 A 
HETATM   12  N   UNL     1      41.668 -15.902   2.606  1.00  0.00    -0.364 N 
HETATM   13  C   UNL     1      43.936 -18.795   3.177  1.00  0.00     0.002 A 
HETATM   14  C   UNL     1      44.425 -18.375   4.411  1.00  0.00     0.001 A 
HETATM   15  H   UNL     1      41.163 -15.969   1.732  1.00  0.00     0.165 HD
HETATM   16  C   UNL     1      41.535 -14.890   3.513  1.00  0.00     0.102 A 
ENDBRANCH   6   7
ENDBRANCH   2   5
BRANCH   1  17
HETATM   17  C   UNL     1      44.295 -10.768   8.178  1.00  0.00     0.067 A 
HETATM   18  C   UNL     1      43.120 -10.015   8.313  1.00  0.00     0.084 A 
HETATM   19  C   UNL     1      43.045  -9.029   9.308  1.00  0.00     0.038 A 
HETATM   20  C   UNL     1      44.111  -8.827  10.189  1.00  0.00     0.003 A 
HETATM   21  C   UNL     1      45.261  -9.602  10.083  1.00  0.00     0.001 A 
HETATM   22  C   UNL     1      45.353 -10.568   9.081  1.00  0.00     0.020 A 
BRANCH  18  23
HETATM   23  O   UNL     1      42.083 -10.238   7.440  1.00  0.00    -0.350 OA
BRANCH  23  24
HETATM   24  C   UNL     1      41.957  -9.239   6.419  1.00  0.00     0.171 C 
HETATM   25  C   UNL     1      42.054  -9.921   5.068  1.00  0.00     0.034 C 
ENDBRANCH  23  24
ENDBRANCH  18  23
ENDBRANCH   1  17
TORSDOF 5
ENDMDL
MODEL 6
REMARK VINA RESULT:      -7.4      2.147      8.204
REMARK  5 active torsions:
REMARK  status: ('A' for Active; 'I' for Inactive)
REMARK    1  A    between atoms: C_2  and  O_3 
REMARK    2  A    between atoms: O_3  and  C_4 
REMARK    3  A    between atoms: C_5  and  C_6 
REMARK       I    between atoms: C_6  and  N_7 
REMARK    4  A    between atoms: N_7  and  N_8 
REMARK    5  A    between atoms: C_9  and  C_10 
ROOT
HETATM    1  C   UNL     1      42.910 -15.334   3.329  1.00  0.00     0.274 C 
HETATM    2  N   UNL     1      42.181 -15.891   2.291  1.00  0.00    -0.243 N 
HETATM    3  O   UNL     1      43.298 -14.169   3.376  1.00  0.00    -0.266 OA
HETATM    4  H   UNL     1      41.901 -16.867   2.340  1.00  0.00     0.192 HD
ENDROOT
BRANCH   2   5
HETATM    5  N   UNL     1      41.699 -15.082   1.302  1.00  0.00    -0.183 NA
HETATM    6  C   UNL     1      40.499 -14.631   1.466  1.00  0.00     0.152 C 
BRANCH   6   7
HETATM    7  C   UNL     1      39.954 -13.710   0.488  1.00  0.00     0.011 A 
HETATM    8  C   UNL     1      39.429 -14.014  -0.810  1.00  0.00     0.004 A 
HETATM    9  C   UNL     1      38.979 -12.816  -1.369  1.00  0.00     0.043 A 
HETATM   10  C   UNL     1      39.275 -15.200  -1.560  1.00  0.00     0.014 A 
HETATM   11  C   UNL     1      38.381 -12.743  -2.634  1.00  0.00     0.030 A 
HETATM   12  N   UNL     1      39.234 -11.820  -0.456  1.00  0.00    -0.364 N 
HETATM   13  C   UNL     1      38.238 -13.932  -3.352  1.00  0.00     0.002 A 
HETATM   14  C   UNL     1      38.679 -15.143  -2.827  1.00  0.00     0.001 A 
HETATM   15  H   UNL     1      39.008 -10.844  -0.589  1.00  0.00     0.165 HD
HETATM   16  C   UNL     1      39.814 -12.345   0.663  1.00  0.00     0.102 A 
ENDBRANCH   6   7
ENDBRANCH   2   5
BRANCH   1  17
HETATM   17  C   UNL     1      43.136 -16.219   4.508  1.00  0.00     0.067 A 
HETATM   18  C   UNL     1      43.585 -17.545   4.421  1.00  0.00     0.084 A 
HETATM   19  C   UNL     1      43.683 -18.316   5.589  1.00  0.00     0.038 A 
HETATM   20  C   UNL     1      43.384 -17.759   6.835  1.00  0.00     0.003 A 
HETATM   21  C   UNL     1      42.979 -16.431   6.927  1.00  0.00     0.001 A 
HETATM   22  C   UNL     1      42.855 -15.665   5.768  1.00  0.00     0.020 A 
BRANCH  18  23
HETATM   23  O   UNL     1      43.880 -18.067   3.186  1.00  0.00    -0.350 OA
BRANCH  23  24
HETATM   24  C   UNL     1      44.014 -19.495   3.174  1.00  0.00     0.171 C 
HETATM   25  C   UNL     1      43.272 -20.035   1.967  1.00  0.00     0.034 C 
ENDBRANCH  23  24
ENDBRANCH  18  23
ENDBRANCH   1  17
TORSDOF 5
ENDMDL
MODEL 7
REMARK VINA RESULT:      -7.1      5.377      8.514
REMARK  5 active torsions:
REMARK  status: ('A' for Active; 'I' for Inactive)
REMARK    1  A    between atoms: C_2  and  O_3 
REMARK    2  A    between atoms: O_3  and  C_4 
REMARK    3  A    between atoms: C_5  and  C_6 
REMARK       I    between atoms: C_6  and  N_7 
REMARK    4  A    between atoms: N_7  and  N_8 
REMARK    5  A    between atoms: C_9  and  C_10 
ROOT
HETATM    1  C   UNL     1      42.954 -15.696   5.834  1.00  0.00     0.274 C 
HETATM    2  N   UNL     1      43.550 -14.454   5.685  1.00  0.00    -0.243 N 
HETATM    3  O   UNL     1      42.180 -16.007   6.735  1.00  0.00    -0.266 OA
HETATM    4  H   UNL     1      44.178 -14.287   4.905  1.00  0.00     0.192 HD
ENDROOT
BRANCH   2   5
HETATM    5  N   UNL     1      43.150 -13.421   6.485  1.00  0.00    -0.183 NA
HETATM    6  C   UNL     1      43.535 -12.240   6.128  1.00  0.00     0.152 C 
BRANCH   6   7
HETATM    7  C   UNL     1      43.086 -11.094   6.893  1.00  0.00     0.011 A 
HETATM    8  C   UNL     1      43.766 -10.430   7.964  1.00  0.00     0.004 A 
HETATM    9  C   UNL     1      42.970  -9.353   8.361  1.00  0.00     0.043 A 
HETATM   10  C   UNL     1      44.997 -10.629   8.626  1.00  0.00     0.014 A 
HETATM   11  C   UNL     1      43.342  -8.466   9.381  1.00  0.00     0.030 A 
HETATM   12  N   UNL     1      41.843  -9.370   7.575  1.00  0.00    -0.364 N 
HETATM   13  C   UNL     1      44.566  -8.686  10.015  1.00  0.00     0.002 A 
HETATM   14  C   UNL     1      45.383  -9.751   9.647  1.00  0.00     0.001 A 
HETATM   15  H   UNL     1      41.088  -8.700   7.636  1.00  0.00     0.165 HD
HETATM   16  C   UNL     1      41.903 -10.406   6.688  1.00  0.00     0.102 A 
ENDBRANCH   6   7
ENDBRANCH   2   5
BRANCH   1  17
HETATM   17  C   UNL     1      43.220 -16.675   4.740  1.00  0.00     0.067 A 
HETATM   18  C   UNL     1      42.661 -16.591   3.456  1.00  0.00     0.084 A 
HETATM   19  C   UNL     1      42.912 -17.612   2.528  1.00  0.00     0.038 A 
HETATM   20  C   UNL     1      43.751 -18.681   2.858  1.00  0.00     0.003 A 
HETATM   21  C   UNL     1      44.340 -18.743   4.116  1.00  0.00     0.001 A 
HETATM   22  C   UNL     1      44.076 -17.745   5.053  1.00  0.00     0.020 A 
BRANCH  18  23
HETATM   23  O   UNL     1      41.847 -15.527   3.154  1.00  0.00    -0.350 OA
BRANCH  23  24
HETATM   24  C   UNL     1      40.448 -15.845   3.155  1.00  0.00     0.171 C 
HETATM   25  C   UNL     1      39.912 -15.648   1.750  1.00  0.00     0.034 C 
ENDBRANCH  23  24
ENDBRANCH  18  23
ENDBRANCH   1  17
TORSDOF 5
ENDMDL
MODEL 8
REMARK VINA RESULT:      -7.0      5.251      7.451
REMARK  5 active torsions:
REMARK  status: ('A' for Active; 'I' for Inactive)
REMARK    1  A    between atoms: C_2  and  O_3 
REMARK    2  A    between atoms: O_3  and  C_4 
REMARK    3  A    between atoms: C_5  and  C_6 
REMARK       I    between atoms: C_6  and  N_7 
REMARK    4  A    between atoms: N_7  and  N_8 
REMARK    5  A    between atoms: C_9  and  C_10 
ROOT
HETATM    1  C   UNL     1      43.224 -11.363   6.022  1.00  0.00     0.274 C 
HETATM    2  N   UNL     1      43.016 -12.707   6.287  1.00  0.00    -0.243 N 
HETATM    3  O   UNL     1      43.632 -10.906   4.957  1.00  0.00    -0.266 OA
HETATM    4  H   UNL     1      42.673 -12.992   7.200  1.00  0.00     0.192 HD
ENDROOT
BRANCH   2   5
HETATM    5  N   UNL     1      43.105 -13.611   5.267  1.00  0.00    -0.183 NA
HETATM    6  C   UNL     1      42.159 -14.488   5.197  1.00  0.00     0.152 C 
BRANCH   6   7
HETATM    7  C   UNL     1      42.156 -15.432   4.096  1.00  0.00     0.011 A 
HETATM    8  C   UNL     1      42.923 -16.635   3.966  1.00  0.00     0.004 A 
HETATM    9  C   UNL     1      42.553 -17.238   2.762  1.00  0.00     0.043 A 
HETATM   10  C   UNL     1      43.888 -17.282   4.769  1.00  0.00     0.014 A 
HETATM   11  C   UNL     1      43.094 -18.453   2.322  1.00  0.00     0.030 A 
HETATM   12  N   UNL     1      41.610 -16.428   2.175  1.00  0.00    -0.364 N 
HETATM   13  C   UNL     1      44.044 -19.073   3.137  1.00  0.00     0.002 A 
HETATM   14  C   UNL     1      44.438 -18.498   4.342  1.00  0.00     0.001 A 
HETATM   15  H   UNL     1      41.157 -16.619   1.291  1.00  0.00     0.165 HD
HETATM   16  C   UNL     1      41.361 -15.345   2.968  1.00  0.00     0.102 A 
ENDBRANCH   6   7
ENDBRANCH   2   5
BRANCH   1  17
HETATM   17  C   UNL     1      42.815 -10.421   7.103  1.00  0.00     0.067 A 
HETATM   18  C   UNL     1      43.484 -10.294   8.330  1.00  0.00     0.084 A 
HETATM   19  C   UNL     1      42.965  -9.436   9.311  1.00  0.00     0.038 A 
HETATM   20  C   UNL     1      41.820  -8.676   9.056  1.00  0.00     0.003 A 
HETATM   21  C   UNL     1      41.181  -8.769   7.825  1.00  0.00     0.001 A 
HETATM   22  C   UNL     1      41.676  -9.638   6.853  1.00  0.00     0.020 A 
BRANCH  18  23
HETATM   23  O   UNL     1      44.612 -11.046   8.553  1.00  0.00    -0.350 OA
BRANCH  23  24
HETATM   24  C   UNL     1      45.718 -10.296   9.075  1.00  0.00     0.171 C 
HETATM   25  C   UNL     1      46.314  -9.476   7.946  1.00  0.00     0.034 C 
ENDBRANCH  23  24
ENDBRANCH  18  23
ENDBRANCH   1  17
TORSDOF 5
ENDMDL
MODEL 9
REMARK VINA RESULT:      -7.0      2.045      8.506
REMARK  5 active torsions:
REMARK  status: ('A' for Active; 'I' for Inactive)
REMARK    1  A    between atoms: C_2  and  O_3 
REMARK    2  A    between atoms: O_3  and  C_4 
REMARK    3  A    between atoms: C_5  and  C_6 
REMARK       I    between atoms: C_6  and  N_7 
REMARK    4  A    between atoms: N_7  and  N_8 
REMARK    5  A    between atoms: C_9  and  C_10 
ROOT
HETATM    1  C   UNL     1      42.850 -15.205   2.329  1.00  0.00     0.274 C 
HETATM    2  N   UNL     1      41.678 -15.573   1.689  1.00  0.00    -0.243 N 
HETATM    3  O   UNL     1      43.635 -14.347   1.931  1.00  0.00    -0.266 OA
HETATM    4  H   UNL     1      41.089 -16.295   2.095  1.00  0.00     0.192 HD
ENDROOT
BRANCH   2   5
HETATM    5  N   UNL     1      41.241 -14.843   0.621  1.00  0.00    -0.183 NA
HETATM    6  C   UNL     1      40.019 -15.044   0.252  1.00  0.00     0.152 C 
BRANCH   6   7
HETATM    7  C   UNL     1      39.472 -14.250  -0.831  1.00  0.00     0.011 A 
HETATM    8  C   UNL     1      39.026 -12.890  -0.787  1.00  0.00     0.004 A 
HETATM    9  C   UNL     1      38.625 -12.540  -2.078  1.00  0.00     0.043 A 
HETATM   10  C   UNL     1      38.942 -11.911   0.227  1.00  0.00     0.014 A 
HETATM   11  C   UNL     1      38.148 -11.264  -2.407  1.00  0.00     0.030 A 
HETATM   12  N   UNL     1      38.804 -13.647  -2.873  1.00  0.00    -0.364 N 
HETATM   13  C   UNL     1      38.079 -10.315  -1.386  1.00  0.00     0.002 A 
HETATM   14  C   UNL     1      38.467 -10.631  -0.087  1.00  0.00     0.001 A 
HETATM   15  H   UNL     1      38.601 -13.685  -3.863  1.00  0.00     0.165 HD
HETATM   16  C   UNL     1      39.315 -14.678  -2.137  1.00  0.00     0.102 A 
ENDBRANCH   6   7
ENDBRANCH   2   5
BRANCH   1  17
HETATM   17  C   UNL     1      43.096 -15.851   3.650  1.00  0.00     0.067 A 
HETATM   18  C   UNL     1      43.382 -17.215   3.818  1.00  0.00     0.084 A 
HETATM   19  C   UNL     1      43.514 -17.736   5.113  1.00  0.00     0.038 A 
HETATM   20  C   UNL     1      43.410 -16.900   6.229  1.00  0.00     0.003 A 
HETATM   21  C   UNL     1      43.168 -15.541   6.062  1.00  0.00     0.001 A 
HETATM   22  C   UNL     1      43.012 -15.019   4.779  1.00  0.00     0.020 A 
BRANCH  18  23
HETATM   23  O   UNL     1      43.488 -18.013   2.705  1.00  0.00    -0.350 OA
BRANCH  23  24
HETATM   24  C   UNL     1      43.982 -19.331   2.979  1.00  0.00     0.171 C 
HETATM   25  C   UNL     1      43.350 -20.294   1.993  1.00  0.00     0.034 C 
ENDBRANCH  23  24
ENDBRANCH  18  23
ENDBRANCH   1  17
TORSDOF 5
ENDMDL
MODEL 10
REMARK VINA RESULT:      -6.8      2.388      8.392
REMARK  5 active torsions:
REMARK  status: ('A' for Active; 'I' for Inactive)
REMARK    1  A    between atoms: C_2  and  O_3 
REMARK    2  A    between atoms: O_3  and  C_4 
REMARK    3  A    between atoms: C_5  and  C_6 
REMARK       I    between atoms: C_6  and  N_7 
REMARK    4  A    between atoms: N_7  and  N_8 
REMARK    5  A    between atoms: C_9  and  C_10 
ROOT
HETATM    1  C   UNL     1      40.832 -15.798   1.929  1.00  0.00     0.274 C 
HETATM    2  N   UNL     1      41.298 -15.071   0.846  1.00  0.00    -0.243 N 
HETATM    3  O   UNL     1      39.649 -16.013   2.182  1.00  0.00    -0.266 OA
HETATM    4  H   UNL     1      42.298 -14.946   0.717  1.00  0.00     0.192 HD
ENDROOT
BRANCH   2   5
HETATM    5  N   UNL     1      40.421 -14.683  -0.126  1.00  0.00    -0.183 NA
HETATM    6  C   UNL     1      40.080 -13.437  -0.124  1.00  0.00     0.152 C 
BRANCH   6   7
HETATM    7  C   UNL     1      39.207 -12.945  -1.172  1.00  0.00     0.011 A 
HETATM    8  C   UNL     1      38.214 -11.918  -1.080  1.00  0.00     0.004 A 
HETATM    9  C   UNL     1      37.659 -11.757  -2.352  1.00  0.00     0.043 A 
HETATM   10  C   UNL     1      37.742 -11.090  -0.037  1.00  0.00     0.014 A 
HETATM   11  C   UNL     1      36.663 -10.814  -2.635  1.00  0.00     0.030 A 
HETATM   12  N   UNL     1      38.279 -12.661  -3.182  1.00  0.00    -0.364 N 
HETATM   13  C   UNL     1      36.218 -10.007  -1.585  1.00  0.00     0.002 A 
HETATM   14  C   UNL     1      36.746 -10.142  -0.305  1.00  0.00     0.001 A 
HETATM   15  H   UNL     1      38.081 -12.768  -4.168  1.00  0.00     0.165 HD
HETATM   16  C   UNL     1      39.212 -13.376  -2.486  1.00  0.00     0.102 A 
ENDBRANCH   6   7
ENDBRANCH   2   5
BRANCH   1  17
HETATM   17  C   UNL     1      41.879 -16.437   2.777  1.00  0.00     0.067 A 
HETATM   18  C   UNL     1      42.248 -15.978   4.051  1.00  0.00     0.084 A 
HETATM   19  C   UNL     1      43.305 -16.604   4.728  1.00  0.00     0.038 A 
HETATM   20  C   UNL     1      43.956 -17.705   4.166  1.00  0.00     0.003 A 
HETATM   21  C   UNL     1      43.564 -18.187   2.921  1.00  0.00     0.001 A 
HETATM   22  C   UNL     1      42.530 -17.556   2.230  1.00  0.00     0.020 A 
BRANCH  18  23
HETATM   23  O   UNL     1      41.587 -14.900   4.586  1.00  0.00    -0.350 OA
BRANCH  23  24
HETATM   24  C   UNL     1      41.504 -14.919   6.018  1.00  0.00     0.171 C 
HETATM   25  C   UNL     1      40.285 -15.730   6.414  1.00  0.00     0.034 C 
ENDBRANCH  23  24
ENDBRANCH  18  23
ENDBRANCH   1  17
TORSDOF 5
ENDMDL
