MODEL 1
REMARK VINA RESULT:      -8.8      0.000      0.000
REMARK  4 active torsions:
REMARK  status: ('A' for Active; 'I' for Inactive)
REMARK    1  A    between atoms: C_9  and  N_10 
REMARK    2  A    between atoms: N_10  and  C_12 
REMARK    3  A    between atoms: C_12  and  C_13 
REMARK    4  A    between atoms: C_14  and  C_15 
ROOT
HETATM    1  C   UNL     1      42.871 -12.960   3.270  1.00  0.00     0.016 A 
HETATM    2  C   UNL     1      42.075 -12.363   2.233  1.00  0.00     0.096 A 
HETATM    3  N   UNL     1      42.137 -11.029   2.288  1.00  0.00    -0.174 NA
HETATM    4  N   UNL     1      42.868 -10.757   3.369  1.00  0.00    -0.288 N 
HETATM    5  H   UNL     1      43.014  -9.781   3.617  1.00  0.00     0.188 HD
HETATM    6  C   UNL     1      43.335 -11.878   3.995  1.00  0.00     0.120 A 
ENDROOT
BRANCH   1   7
HETATM    7  C   UNL     1      43.074 -14.424   3.452  1.00  0.00     0.277 C 
BRANCH   7   8
HETATM    8  N   UNL     1      42.538 -15.135   4.681  1.00  0.00    -0.065 N 
HETATM    9  H   UNL     1      43.102 -14.784   5.464  1.00  0.00     0.280 HD
HETATM   10  C   UNL     1      41.105 -14.799   4.972  1.00  0.00     0.270 C 
BRANCH   8  11
HETATM   11  C   UNL     1      42.692 -16.621   4.564  1.00  0.00     0.205 C 
HETATM   12  C   UNL     1      43.767 -17.275   5.510  1.00  0.00     0.008 C 
HETATM   13  C   UNL     1      44.841 -16.399   6.164  1.00  0.00     0.020 C 
HETATM   14  C   UNL     1      43.145 -18.223   6.539  1.00  0.00     0.020 C 
HETATM   15  C   UNL     1      44.358 -17.994   4.271  1.00  0.00     0.137 C 
HETATM   16  C   UNL     1      43.528 -17.097   3.338  1.00  0.00     0.049 C 
HETATM   17  O   UNL     1      43.991 -19.361   4.008  1.00  0.00    -0.385 OA
HETATM   18  C   UNL     1      42.848 -18.119   2.415  1.00  0.00     0.035 C 
HETATM   19  C   UNL     1      43.593 -19.434   2.637  1.00  0.00     0.168 C 
ENDBRANCH   8  11
ENDBRANCH   7   8
ENDBRANCH   1   7
BRANCH   2  20
HETATM   20  C   UNL     1      41.286 -13.026   1.197  1.00  0.00    -0.002 A 
HETATM   21  C   UNL     1      40.879 -12.326   0.053  1.00  0.00     0.053 A 
HETATM   22  C   UNL     1      40.120 -12.969  -0.925  1.00  0.00     0.103 A 
HETATM   23  C   UNL     1      39.749 -14.305  -0.766  1.00  0.00     0.102 A 
HETATM   24  O   UNL     1      39.770 -12.216  -2.019  1.00  0.00    -0.346 OA
HETATM   25  O   UNL     1      38.986 -14.988  -1.676  1.00  0.00    -0.346 OA
HETATM   26  C   UNL     1      40.175 -15.015   0.353  1.00  0.00     0.040 A 
HETATM   27  C   UNL     1      38.375 -14.109  -2.629  1.00  0.00     0.202 C 
HETATM   28  C   UNL     1      39.361 -13.056  -3.109  1.00  0.00     0.202 C 
HETATM   29  C   UNL     1      40.944 -14.380   1.331  1.00  0.00     0.017 A 
ENDBRANCH   2  20
TORSDOF 4
ENDMDL
MODEL 2
REMARK VINA RESULT:      -8.6      3.676      6.542
REMARK  4 active torsions:
REMARK  status: ('A' for Active; 'I' for Inactive)
REMARK    1  A    between atoms: C_9  and  N_10 
REMARK    2  A    between atoms: N_10  and  C_12 
REMARK    3  A    between atoms: C_12  and  C_13 
REMARK    4  A    between atoms: C_14  and  C_15 
ROOT
HETATM    1  C   UNL     1      42.551 -12.528   3.434  1.00  0.00     0.016 A 
HETATM    2  C   UNL     1      42.767 -11.340   4.215  1.00  0.00     0.096 A 
HETATM    3  N   UNL     1      42.167 -10.284   3.659  1.00  0.00    -0.174 NA
HETATM    4  N   UNL     1      41.655 -10.735   2.514  1.00  0.00    -0.288 N 
HETATM    5  H   UNL     1      41.174 -10.073   1.909  1.00  0.00     0.188 HD
HETATM    6  C   UNL     1      41.854 -12.075   2.329  1.00  0.00     0.120 A 
ENDROOT
BRANCH   1   7
HETATM    7  C   UNL     1      43.026 -13.890   3.804  1.00  0.00     0.277 C 
BRANCH   7   8
HETATM    8  N   UNL     1      42.338 -14.680   4.901  1.00  0.00    -0.065 N 
HETATM    9  H   UNL     1      42.799 -14.391   5.772  1.00  0.00     0.280 HD
HETATM   10  C   UNL     1      40.881 -14.350   5.034  1.00  0.00     0.270 C 
BRANCH   8  11
HETATM   11  C   UNL     1      42.502 -16.156   4.699  1.00  0.00     0.205 C 
HETATM   12  C   UNL     1      43.570 -16.859   5.617  1.00  0.00     0.008 C 
HETATM   13  C   UNL     1      44.631 -16.017   6.335  1.00  0.00     0.020 C 
HETATM   14  C   UNL     1      42.942 -17.870   6.581  1.00  0.00     0.020 C 
HETATM   15  C   UNL     1      44.179 -17.500   4.346  1.00  0.00     0.137 C 
HETATM   16  C   UNL     1      43.355 -16.553   3.457  1.00  0.00     0.049 C 
HETATM   17  O   UNL     1      43.824 -18.850   3.997  1.00  0.00    -0.385 OA
HETATM   18  C   UNL     1      42.693 -17.523   2.467  1.00  0.00     0.035 C 
HETATM   19  C   UNL     1      43.443 -18.844   2.619  1.00  0.00     0.168 C 
ENDBRANCH   8  11
ENDBRANCH   7   8
ENDBRANCH   1   7
BRANCH   2  20
HETATM   20  C   UNL     1      43.505 -11.199   5.468  1.00  0.00    -0.002 A 
HETATM   21  C   UNL     1      42.884 -10.665   6.605  1.00  0.00     0.053 A 
HETATM   22  C   UNL     1      43.602 -10.529   7.794  1.00  0.00     0.103 A 
HETATM   23  C   UNL     1      44.943 -10.909   7.856  1.00  0.00     0.102 A 
HETATM   24  O   UNL     1      42.918 -10.006   8.863  1.00  0.00    -0.346 OA
HETATM   25  O   UNL     1      45.711 -10.780   8.982  1.00  0.00    -0.346 OA
HETATM   26  C   UNL     1      45.559 -11.468   6.739  1.00  0.00     0.040 A 
HETATM   27  C   UNL     1      45.081  -9.951   9.968  1.00  0.00     0.202 C 
HETATM   28  C   UNL     1      43.602 -10.283  10.094  1.00  0.00     0.202 C 
HETATM   29  C   UNL     1      44.843 -11.616   5.549  1.00  0.00     0.017 A 
ENDBRANCH   2  20
TORSDOF 4
ENDMDL
MODEL 3
REMARK VINA RESULT:      -8.4      3.967      5.721
REMARK  4 active torsions:
REMARK  status: ('A' for Active; 'I' for Inactive)
REMARK    1  A    between atoms: C_9  and  N_10 
REMARK    2  A    between atoms: N_10  and  C_12 
REMARK    3  A    between atoms: C_12  and  C_13 
REMARK    4  A    between atoms: C_14  and  C_15 
ROOT
HETATM    1  C   UNL     1      40.825 -14.090   3.558  1.00  0.00     0.016 A 
HETATM    2  C   UNL     1      39.932 -12.987   3.794  1.00  0.00     0.096 A 
HETATM    3  N   UNL     1      38.850 -13.069   3.014  1.00  0.00    -0.174 NA
HETATM    4  N   UNL     1      39.062 -14.128   2.232  1.00  0.00    -0.288 N 
HETATM    5  H   UNL     1      38.362 -14.354   1.530  1.00  0.00     0.188 HD
HETATM    6  C   UNL     1      40.230 -14.778   2.517  1.00  0.00     0.120 A 
ENDROOT
BRANCH   1   7
HETATM    7  C   UNL     1      42.089 -14.338   4.304  1.00  0.00     0.277 C 
BRANCH   7   8
HETATM    8  N   UNL     1      42.122 -15.300   5.476  1.00  0.00    -0.065 N 
HETATM    9  H   UNL     1      42.853 -14.941   6.101  1.00  0.00     0.280 HD
HETATM   10  C   UNL     1      40.838 -15.319   6.253  1.00  0.00     0.270 C 
BRANCH   8  11
HETATM   11  C   UNL     1      42.462 -16.691   5.034  1.00  0.00     0.205 C 
HETATM   12  C   UNL     1      43.699 -17.354   5.747  1.00  0.00     0.008 C 
HETATM   13  C   UNL     1      44.702 -16.477   6.505  1.00  0.00     0.020 C 
HETATM   14  C   UNL     1      43.308 -18.574   6.586  1.00  0.00     0.020 C 
HETATM   15  C   UNL     1      44.262 -17.708   4.348  1.00  0.00     0.137 C 
HETATM   16  C   UNL     1      43.235 -16.775   3.684  1.00  0.00     0.049 C 
HETATM   17  O   UNL     1      44.059 -19.032   3.821  1.00  0.00    -0.385 OA
HETATM   18  C   UNL     1      42.616 -17.680   2.608  1.00  0.00     0.035 C 
HETATM   19  C   UNL     1      43.548 -18.884   2.494  1.00  0.00     0.168 C 
ENDBRANCH   8  11
ENDBRANCH   7   8
ENDBRANCH   1   7
BRANCH   2  20
HETATM   20  C   UNL     1      40.079 -11.887   4.745  1.00  0.00    -0.002 A 
HETATM   21  C   UNL     1      39.308 -11.849   5.915  1.00  0.00     0.053 A 
HETATM   22  C   UNL     1      39.453 -10.790   6.812  1.00  0.00     0.103 A 
HETATM   23  C   UNL     1      40.352  -9.757   6.545  1.00  0.00     0.102 A 
HETATM   24  O   UNL     1      38.668 -10.832   7.938  1.00  0.00    -0.346 OA
HETATM   25  O   UNL     1      40.525  -8.678   7.370  1.00  0.00    -0.346 OA
HETATM   26  C   UNL     1      41.143  -9.803   5.400  1.00  0.00     0.040 A 
HETATM   27  C   UNL     1      39.487  -8.583   8.353  1.00  0.00     0.202 C 
HETATM   28  C   UNL     1      39.174  -9.947   8.948  1.00  0.00     0.202 C 
HETATM   29  C   UNL     1      41.010 -10.866   4.503  1.00  0.00     0.017 A 
ENDBRANCH   2  20
TORSDOF 4
ENDMDL
MODEL 4
REMARK VINA RESULT:      -8.4      4.030      7.031
REMARK  4 active torsions:
REMARK  status: ('A' for Active; 'I' for Inactive)
REMARK    1  A    between atoms: C_9  and  N_10 
REMARK    2  A    between atoms: N_10  and  C_12 
REMARK    3  A    between atoms: C_12  and  C_13 
REMARK    4  A    between atoms: C_14  and  C_15 
ROOT
HETATM    1  C   UNL     1      42.468 -12.021   3.319  1.00  0.00     0.016 A 
HETATM    2  C   UNL     1      42.692 -10.928   4.226  1.00  0.00     0.096 A 
HETATM    3  N   UNL     1      42.136  -9.802   3.768  1.00  0.00    -0.174 NA
HETATM    4  N   UNL     1      41.647 -10.116   2.568  1.00  0.00    -0.288 N 
HETATM    5  H   UNL     1      41.202  -9.381   2.023  1.00  0.00     0.188 HD
HETATM    6  C   UNL     1      41.816 -11.434   2.249  1.00  0.00     0.120 A 
ENDROOT
BRANCH   1   7
HETATM    7  C   UNL     1      42.895 -13.427   3.557  1.00  0.00     0.277 C 
BRANCH   7   8
HETATM    8  N   UNL     1      41.876 -14.548   3.615  1.00  0.00    -0.065 N 
HETATM    9  H   UNL     1      40.960 -14.084   3.604  1.00  0.00     0.280 HD
HETATM   10  C   UNL     1      41.933 -15.454   2.420  1.00  0.00     0.270 C 
BRANCH   8  11
HETATM   11  C   UNL     1      42.024 -15.360   4.867  1.00  0.00     0.205 C 
HETATM   12  C   UNL     1      41.137 -14.907   6.086  1.00  0.00     0.008 C 
HETATM   13  C   UNL     1      40.516 -13.506   6.098  1.00  0.00     0.020 C 
HETATM   14  C   UNL     1      40.099 -15.961   6.480  1.00  0.00     0.020 C 
HETATM   15  C   UNL     1      42.413 -14.923   6.965  1.00  0.00     0.137 C 
HETATM   16  C   UNL     1      43.294 -15.033   5.709  1.00  0.00     0.049 C 
HETATM   17  O   UNL     1      42.684 -16.070   7.792  1.00  0.00    -0.385 OA
HETATM   18  C   UNL     1      44.203 -16.223   6.047  1.00  0.00     0.035 C 
HETATM   19  C   UNL     1      44.037 -16.457   7.546  1.00  0.00     0.168 C 
ENDBRANCH   8  11
ENDBRANCH   7   8
ENDBRANCH   1   7
BRANCH   2  20
HETATM   20  C   UNL     1      43.395 -10.939   5.506  1.00  0.00    -0.002 A 
HETATM   21  C   UNL     1      42.810 -10.373   6.647  1.00  0.00     0.053 A 
HETATM   22  C   UNL     1      43.495 -10.385   7.862  1.00  0.00     0.103 A 
HETATM   23  C   UNL     1      44.770 -10.945   7.948  1.00  0.00     0.102 A 
HETATM   24  O   UNL     1      42.848  -9.818   8.933  1.00  0.00    -0.346 OA
HETATM   25  O   UNL     1      45.505 -10.968   9.103  1.00  0.00    -0.346 OA
HETATM   26  C   UNL     1      45.345 -11.537   6.827  1.00  0.00     0.040 A 
HETATM   27  C   UNL     1      44.957 -10.103  10.105  1.00  0.00     0.202 C 
HETATM   28  C   UNL     1      43.443 -10.236  10.170  1.00  0.00     0.202 C 
HETATM   29  C   UNL     1      44.660 -11.537   5.610  1.00  0.00     0.017 A 
ENDBRANCH   2  20
TORSDOF 4
ENDMDL
MODEL 5
REMARK VINA RESULT:      -8.3      3.262      5.662
REMARK  4 active torsions:
REMARK  status: ('A' for Active; 'I' for Inactive)
REMARK    1  A    between atoms: C_9  and  N_10 
REMARK    2  A    between atoms: N_10  and  C_12 
REMARK    3  A    between atoms: C_12  and  C_13 
REMARK    4  A    between atoms: C_14  and  C_15 
ROOT
HETATM    1  C   UNL     1      41.290 -14.375   2.974  1.00  0.00     0.016 A 
HETATM    2  C   UNL     1      41.896 -13.078   3.108  1.00  0.00     0.096 A 
HETATM    3  N   UNL     1      42.127 -12.529   1.911  1.00  0.00    -0.174 NA
HETATM    4  N   UNL     1      41.775 -13.462   1.026  1.00  0.00    -0.288 N 
HETATM    5  H   UNL     1      41.903 -13.257   0.037  1.00  0.00     0.188 HD
HETATM    6  C   UNL     1      41.264 -14.588   1.608  1.00  0.00     0.120 A 
ENDROOT
BRANCH   1   7
HETATM    7  C   UNL     1      40.844 -15.229   4.109  1.00  0.00     0.277 C 
BRANCH   7   8
HETATM    8  N   UNL     1      41.818 -15.653   5.191  1.00  0.00    -0.065 N 
HETATM    9  H   UNL     1      42.564 -14.947   5.176  1.00  0.00     0.280 HD
HETATM   10  C   UNL     1      41.213 -15.638   6.563  1.00  0.00     0.270 C 
BRANCH   8  11
HETATM   11  C   UNL     1      42.391 -17.010   4.910  1.00  0.00     0.205 C 
HETATM   12  C   UNL     1      43.661 -17.405   5.753  1.00  0.00     0.008 C 
HETATM   13  C   UNL     1      44.468 -16.318   6.472  1.00  0.00     0.020 C 
HETATM   14  C   UNL     1      43.399 -18.589   6.688  1.00  0.00     0.020 C 
HETATM   15  C   UNL     1      44.365 -17.795   4.430  1.00  0.00     0.137 C 
HETATM   16  C   UNL     1      43.260 -17.097   3.620  1.00  0.00     0.049 C 
HETATM   17  O   UNL     1      44.398 -19.177   4.029  1.00  0.00    -0.385 OA
HETATM   18  C   UNL     1      42.858 -18.181   2.609  1.00  0.00     0.035 C 
HETATM   19  C   UNL     1      43.964 -19.231   2.668  1.00  0.00     0.168 C 
ENDBRANCH   8  11
ENDBRANCH   7   8
ENDBRANCH   1   7
BRANCH   2  20
HETATM   20  C   UNL     1      42.235 -12.355   4.332  1.00  0.00    -0.002 A 
HETATM   21  C   UNL     1      43.489 -12.522   4.934  1.00  0.00     0.053 A 
HETATM   22  C   UNL     1      43.798 -11.831   6.106  1.00  0.00     0.103 A 
HETATM   23  C   UNL     1      42.858 -10.984   6.695  1.00  0.00     0.102 A 
HETATM   24  O   UNL     1      45.051 -12.043   6.627  1.00  0.00    -0.346 OA
HETATM   25  O   UNL     1      43.088 -10.297   7.857  1.00  0.00    -0.346 OA
HETATM   26  C   UNL     1      41.621 -10.791   6.087  1.00  0.00     0.040 A 
HETATM   27  C   UNL     1      44.255 -10.773   8.539  1.00  0.00     0.202 C 
HETATM   28  C   UNL     1      45.397 -11.011   7.563  1.00  0.00     0.202 C 
HETATM   29  C   UNL     1      41.309 -11.472   4.907  1.00  0.00     0.017 A 
ENDBRANCH   2  20
TORSDOF 4
ENDMDL
MODEL 6
REMARK VINA RESULT:      -8.1      6.193      8.901
REMARK  4 active torsions:
REMARK  status: ('A' for Active; 'I' for Inactive)
REMARK    1  A    between atoms: C_9  and  N_10 
REMARK    2  A    between atoms: N_10  and  C_12 
REMARK    3  A    between atoms: C_12  and  C_13 
REMARK    4  A    between atoms: C_14  and  C_15 
ROOT
HETATM    1  C   UNL     1      44.942 -11.140   7.712  1.00  0.00     0.016 A 
HETATM    2  C   UNL     1      44.844 -10.134   8.735  1.00  0.00     0.096 A 
HETATM    3  N   UNL     1      45.833  -9.242   8.629  1.00  0.00    -0.174 NA
HETATM    4  N   UNL     1      46.603  -9.690   7.637  1.00  0.00    -0.288 N 
HETATM    5  H   UNL     1      47.444  -9.166   7.408  1.00  0.00     0.188 HD
HETATM    6  C   UNL     1      46.115 -10.824   7.050  1.00  0.00     0.120 A 
ENDROOT
BRANCH   1   7
HETATM    7  C   UNL     1      43.964 -12.243   7.504  1.00  0.00     0.277 C 
BRANCH   7   8
HETATM    8  N   UNL     1      42.811 -12.084   6.533  1.00  0.00    -0.065 N 
HETATM    9  H   UNL     1      41.992 -11.874   7.116  1.00  0.00     0.280 HD
HETATM   10  C   UNL     1      42.995 -10.933   5.588  1.00  0.00     0.270 C 
BRANCH   8  11
HETATM   11  C   UNL     1      42.575 -13.342   5.751  1.00  0.00     0.205 C 
HETATM   12  C   UNL     1      41.075 -13.653   5.391  1.00  0.00     0.008 C 
HETATM   13  C   UNL     1      39.946 -12.949   6.152  1.00  0.00     0.020 C 
HETATM   14  C   UNL     1      40.813 -13.617   3.883  1.00  0.00     0.020 C 
HETATM   15  C   UNL     1      41.280 -15.080   5.958  1.00  0.00     0.137 C 
HETATM   16  C   UNL     1      42.611 -14.651   6.596  1.00  0.00     0.049 C 
HETATM   17  O   UNL     1      41.556 -16.165   5.053  1.00  0.00    -0.385 OA
HETATM   18  C   UNL     1      43.578 -15.740   6.108  1.00  0.00     0.035 C 
HETATM   19  C   UNL     1      42.695 -16.861   5.564  1.00  0.00     0.168 C 
ENDBRANCH   8  11
ENDBRANCH   7   8
ENDBRANCH   1   7
BRANCH   2  20
HETATM   20  C   UNL     1      43.832  -9.998   9.781  1.00  0.00    -0.002 A 
HETATM   21  C   UNL     1      42.632  -9.321   9.529  1.00  0.00     0.053 A 
HETATM   22  C   UNL     1      41.677  -9.193  10.538  1.00  0.00     0.103 A 
HETATM   23  C   UNL     1      41.915  -9.723  11.806  1.00  0.00     0.102 A 
HETATM   24  O   UNL     1      40.525  -8.523  10.207  1.00  0.00    -0.346 OA
HETATM   25  O   UNL     1      41.032  -9.611  12.847  1.00  0.00    -0.346 OA
HETATM   26  C   UNL     1      43.093 -10.423  12.056  1.00  0.00     0.040 A 
HETATM   27  C   UNL     1      40.004  -8.651  12.576  1.00  0.00     0.202 C 
HETATM   28  C   UNL     1      39.483  -8.798  11.155  1.00  0.00     0.202 C 
HETATM   29  C   UNL     1      44.048 -10.564  11.047  1.00  0.00     0.017 A 
ENDBRANCH   2  20
TORSDOF 4
ENDMDL
MODEL 7
REMARK VINA RESULT:      -8.1      3.349      6.789
REMARK  4 active torsions:
REMARK  status: ('A' for Active; 'I' for Inactive)
REMARK    1  A    between atoms: C_9  and  N_10 
REMARK    2  A    between atoms: N_10  and  C_12 
REMARK    3  A    between atoms: C_12  and  C_13 
REMARK    4  A    between atoms: C_14  and  C_15 
ROOT
HETATM    1  C   UNL     1      40.446 -13.256   3.838  1.00  0.00     0.016 A 
HETATM    2  C   UNL     1      40.538 -14.596   3.324  1.00  0.00     0.096 A 
HETATM    3  N   UNL     1      39.578 -14.832   2.424  1.00  0.00    -0.174 NA
HETATM    4  N   UNL     1      38.830 -13.728   2.413  1.00  0.00    -0.288 N 
HETATM    5  H   UNL     1      38.012 -13.709   1.809  1.00  0.00     0.188 HD
HETATM    6  C   UNL     1      39.306 -12.750   3.241  1.00  0.00     0.120 A 
ENDROOT
BRANCH   1   7
HETATM    7  C   UNL     1      41.399 -12.648   4.807  1.00  0.00     0.277 C 
BRANCH   7   8
HETATM    8  N   UNL     1      42.756 -12.147   4.349  1.00  0.00    -0.065 N 
HETATM    9  H   UNL     1      43.357 -12.979   4.322  1.00  0.00     0.280 HD
HETATM   10  C   UNL     1      42.730 -11.567   2.966  1.00  0.00     0.270 C 
BRANCH   8  11
HETATM   11  C   UNL     1      43.319 -11.139   5.306  1.00  0.00     0.205 C 
HETATM   12  C   UNL     1      44.252 -11.714   6.436  1.00  0.00     0.008 C 
HETATM   13  C   UNL     1      44.220 -13.211   6.764  1.00  0.00     0.020 C 
HETATM   14  C   UNL     1      45.696 -11.220   6.314  1.00  0.00     0.020 C 
HETATM   15  C   UNL     1      43.407 -10.932   7.472  1.00  0.00     0.137 C 
HETATM   16  C   UNL     1      42.328 -10.663   6.409  1.00  0.00     0.049 C 
HETATM   17  O   UNL     1      43.879  -9.659   7.950  1.00  0.00    -0.385 OA
HETATM   18  C   UNL     1      42.124  -9.145   6.523  1.00  0.00     0.035 C 
HETATM   19  C   UNL     1      42.795  -8.735   7.832  1.00  0.00     0.168 C 
ENDBRANCH   8  11
ENDBRANCH   7   8
ENDBRANCH   1   7
BRANCH   2  20
HETATM   20  C   UNL     1      41.516 -15.630   3.652  1.00  0.00    -0.002 A 
HETATM   21  C   UNL     1      41.719 -16.719   2.794  1.00  0.00     0.053 A 
HETATM   22  C   UNL     1      42.651 -17.703   3.122  1.00  0.00     0.103 A 
HETATM   23  C   UNL     1      43.377 -17.619   4.311  1.00  0.00     0.102 A 
HETATM   24  O   UNL     1      42.795 -18.731   2.224  1.00  0.00    -0.346 OA
HETATM   25  O   UNL     1      44.289 -18.562   4.705  1.00  0.00    -0.346 OA
HETATM   26  C   UNL     1      43.204 -16.525   5.155  1.00  0.00     0.040 A 
HETATM   27  C   UNL     1      44.189 -19.761   3.927  1.00  0.00     0.202 C 
HETATM   28  C   UNL     1      44.023 -19.440   2.450  1.00  0.00     0.202 C 
HETATM   29  C   UNL     1      42.278 -15.531   4.826  1.00  0.00     0.017 A 
ENDBRANCH   2  20
TORSDOF 4
ENDMDL
MODEL 8
REMARK VINA RESULT:      -8.0      2.903      6.605
REMARK  4 active torsions:
REMARK  status: ('A' for Active; 'I' for Inactive)
REMARK    1  A    between atoms: C_9  and  N_10 
REMARK    2  A    between atoms: N_10  and  C_12 
REMARK    3  A    between atoms: C_12  and  C_13 
REMARK    4  A    between atoms: C_14  and  C_15 
ROOT
HETATM    1  C   UNL     1      40.646 -13.567   1.164  1.00  0.00     0.016 A 
HETATM    2  C   UNL     1      40.565 -14.946   1.563  1.00  0.00     0.096 A 
HETATM    3  N   UNL     1      39.927 -15.676   0.643  1.00  0.00    -0.174 NA
HETATM    4  N   UNL     1      39.524 -14.802  -0.279  1.00  0.00    -0.288 N 
HETATM    5  H   UNL     1      38.982 -15.150  -1.067  1.00  0.00     0.188 HD
HETATM    6  C   UNL     1      39.930 -13.523  -0.018  1.00  0.00     0.120 A 
ENDROOT
BRANCH   1   7
HETATM    7  C   UNL     1      41.349 -12.499   1.927  1.00  0.00     0.277 C 
BRANCH   7   8
HETATM    8  N   UNL     1      40.604 -11.654   2.943  1.00  0.00    -0.065 N 
HETATM    9  H   UNL     1      40.685 -10.688   2.604  1.00  0.00     0.280 HD
HETATM   10  C   UNL     1      39.142 -11.982   3.017  1.00  0.00     0.270 C 
BRANCH   8  11
HETATM   11  C   UNL     1      41.215 -11.772   4.307  1.00  0.00     0.205 C 
HETATM   12  C   UNL     1      41.446 -10.417   5.074  1.00  0.00     0.008 C 
HETATM   13  C   UNL     1      41.438  -9.093   4.302  1.00  0.00     0.020 C 
HETATM   14  C   UNL     1      40.593 -10.307   6.341  1.00  0.00     0.020 C 
HETATM   15  C   UNL     1      42.905 -10.864   5.337  1.00  0.00     0.137 C 
HETATM   16  C   UNL     1      42.756 -12.002   4.313  1.00  0.00     0.049 C 
HETATM   17  O   UNL     1      43.244 -11.455   6.605  1.00  0.00    -0.385 OA
HETATM   18  C   UNL     1      43.252 -13.223   5.103  1.00  0.00     0.035 C 
HETATM   19  C   UNL     1      43.964 -12.659   6.330  1.00  0.00     0.168 C 
ENDBRANCH   8  11
ENDBRANCH   7   8
ENDBRANCH   1   7
BRANCH   2  20
HETATM   20  C   UNL     1      41.090 -15.574   2.773  1.00  0.00    -0.002 A 
HETATM   21  C   UNL     1      42.256 -16.350   2.726  1.00  0.00     0.053 A 
HETATM   22  C   UNL     1      42.744 -16.949   3.887  1.00  0.00     0.103 A 
HETATM   23  C   UNL     1      42.069 -16.795   5.099  1.00  0.00     0.102 A 
HETATM   24  O   UNL     1      43.896 -17.685   3.757  1.00  0.00    -0.346 OA
HETATM   25  O   UNL     1      42.479 -17.375   6.269  1.00  0.00    -0.346 OA
HETATM   26  C   UNL     1      40.926 -16.001   5.160  1.00  0.00     0.040 A 
HETATM   27  C   UNL     1      43.478 -18.378   6.048  1.00  0.00     0.202 C 
HETATM   28  C   UNL     1      44.510 -17.905   5.035  1.00  0.00     0.202 C 
HETATM   29  C   UNL     1      40.438 -15.390   4.002  1.00  0.00     0.017 A 
ENDBRANCH   2  20
TORSDOF 4
ENDMDL
MODEL 9
REMARK VINA RESULT:      -8.0      6.655      9.602
REMARK  4 active torsions:
REMARK  status: ('A' for Active; 'I' for Inactive)
REMARK    1  A    between atoms: C_9  and  N_10 
REMARK    2  A    between atoms: N_10  and  C_12 
REMARK    3  A    between atoms: C_12  and  C_13 
REMARK    4  A    between atoms: C_14  and  C_15 
ROOT
HETATM    1  C   UNL     1      44.539  -9.945   8.111  1.00  0.00     0.016 A 
HETATM    2  C   UNL     1      44.973 -10.953   7.181  1.00  0.00     0.096 A 
HETATM    3  N   UNL     1      46.282 -10.845   6.932  1.00  0.00    -0.174 NA
HETATM    4  N   UNL     1      46.676  -9.759   7.596  1.00  0.00    -0.288 N 
HETATM    5  H   UNL     1      47.649  -9.473   7.514  1.00  0.00     0.188 HD
HETATM    6  C   UNL     1      45.673  -9.181   8.321  1.00  0.00     0.120 A 
ENDROOT
BRANCH   1   7
HETATM    7  C   UNL     1      43.158  -9.822   8.652  1.00  0.00     0.277 C 
BRANCH   7   8
HETATM    8  N   UNL     1      42.906  -9.842  10.147  1.00  0.00    -0.065 N 
HETATM    9  H   UNL     1      41.938 -10.167  10.255  1.00  0.00     0.280 HD
HETATM   10  C   UNL     1      43.788 -10.812  10.876  1.00  0.00     0.270 C 
BRANCH   8  11
HETATM   11  C   UNL     1      43.058  -8.477  10.747  1.00  0.00     0.205 C 
HETATM   12  C   UNL     1      42.219  -8.204  12.051  1.00  0.00     0.008 C 
HETATM   13  C   UNL     1      41.040  -9.116  12.404  1.00  0.00     0.020 C 
HETATM   14  C   UNL     1      43.104  -7.967  13.279  1.00  0.00     0.020 C 
HETATM   15  C   UNL     1      41.699  -6.902  11.392  1.00  0.00     0.137 C 
HETATM   16  C   UNL     1      42.248  -7.356  10.029  1.00  0.00     0.049 C 
HETATM   17  O   UNL     1      42.322  -5.647  11.722  1.00  0.00    -0.385 OA
HETATM   18  C   UNL     1      43.053  -6.129   9.574  1.00  0.00     0.035 C 
HETATM   19  C   UNL     1      42.619  -4.987  10.489  1.00  0.00     0.168 C 
ENDBRANCH   8  11
ENDBRANCH   7   8
ENDBRANCH   1   7
BRANCH   2  20
HETATM   20  C   UNL     1      44.183 -12.008   6.552  1.00  0.00    -0.002 A 
HETATM   21  C   UNL     1      43.795 -13.140   7.282  1.00  0.00     0.053 A 
HETATM   22  C   UNL     1      43.046 -14.144   6.667  1.00  0.00     0.103 A 
HETATM   23  C   UNL     1      42.691 -14.037   5.322  1.00  0.00     0.102 A 
HETATM   24  O   UNL     1      42.699 -15.214   7.454  1.00  0.00    -0.346 OA
HETATM   25  O   UNL     1      41.979 -14.997   4.653  1.00  0.00    -0.346 OA
HETATM   26  C   UNL     1      43.047 -12.902   4.598  1.00  0.00     0.040 A 
HETATM   27  C   UNL     1      41.908 -16.223   5.391  1.00  0.00     0.202 C 
HETATM   28  C   UNL     1      41.624 -15.959   6.861  1.00  0.00     0.202 C 
HETATM   29  C   UNL     1      43.789 -11.889   5.210  1.00  0.00     0.017 A 
ENDBRANCH   2  20
TORSDOF 4
ENDMDL
MODEL 10
REMARK VINA RESULT:      -8.0      6.127      9.132
REMARK  4 active torsions:
REMARK  status: ('A' for Active; 'I' for Inactive)
REMARK    1  A    between atoms: C_9  and  N_10 
REMARK    2  A    between atoms: N_10  and  C_12 
REMARK    3  A    between atoms: C_12  and  C_13 
REMARK    4  A    between atoms: C_14  and  C_15 
ROOT
HETATM    1  C   UNL     1      44.807 -11.360   7.491  1.00  0.00     0.016 A 
HETATM    2  C   UNL     1      44.824 -10.356   8.520  1.00  0.00     0.096 A 
HETATM    3  N   UNL     1      45.882  -9.549   8.387  1.00  0.00    -0.174 NA
HETATM    4  N   UNL     1      46.582 -10.056   7.372  1.00  0.00    -0.288 N 
HETATM    5  H   UNL     1      47.458  -9.603   7.120  1.00  0.00     0.188 HD
HETATM    6  C   UNL     1      45.983 -11.140   6.796  1.00  0.00     0.120 A 
ENDROOT
BRANCH   1   7
HETATM    7  C   UNL     1      43.734 -12.375   7.308  1.00  0.00     0.277 C 
BRANCH   7   8
HETATM    8  N   UNL     1      43.814 -13.397   6.190  1.00  0.00    -0.065 N 
HETATM    9  H   UNL     1      44.645 -13.138   5.645  1.00  0.00     0.280 HD
HETATM   10  C   UNL     1      44.026 -14.796   6.691  1.00  0.00     0.270 C 
BRANCH   8  11
HETATM   11  C   UNL     1      42.595 -13.355   5.319  1.00  0.00     0.205 C 
HETATM   12  C   UNL     1      42.769 -12.630   3.932  1.00  0.00     0.008 C 
HETATM   13  C   UNL     1      43.959 -11.692   3.706  1.00  0.00     0.020 C 
HETATM   14  C   UNL     1      42.603 -13.586   2.747  1.00  0.00     0.020 C 
HETATM   15  C   UNL     1      41.500 -11.803   4.254  1.00  0.00     0.137 C 
HETATM   16  C   UNL     1      41.547 -12.272   5.717  1.00  0.00     0.049 C 
HETATM   17  O   UNL     1      40.234 -12.210   3.702  1.00  0.00    -0.385 OA
HETATM   18  C   UNL     1      40.114 -12.775   5.949  1.00  0.00     0.035 C 
HETATM   19  C   UNL     1      39.294 -12.237   4.779  1.00  0.00     0.168 C 
ENDBRANCH   8  11
ENDBRANCH   7   8
ENDBRANCH   1   7
BRANCH   2  20
HETATM   20  C   UNL     1      43.859 -10.141   9.595  1.00  0.00    -0.002 A 
HETATM   21  C   UNL     1      42.648  -9.480   9.346  1.00  0.00     0.053 A 
HETATM   22  C   UNL     1      41.737  -9.276  10.383  1.00  0.00     0.103 A 
HETATM   23  C   UNL     1      42.030  -9.713  11.675  1.00  0.00     0.102 A 
HETATM   24  O   UNL     1      40.572  -8.629  10.053  1.00  0.00    -0.346 OA
HETATM   25  O   UNL     1      41.193  -9.523  12.742  1.00  0.00    -0.346 OA
HETATM   26  C   UNL     1      43.217 -10.396  11.925  1.00  0.00     0.040 A 
HETATM   27  C   UNL     1      40.153  -8.582  12.446  1.00  0.00     0.202 C 
HETATM   28  C   UNL     1      39.572  -8.831  11.063  1.00  0.00     0.202 C 
HETATM   29  C   UNL     1      44.129 -10.613  10.889  1.00  0.00     0.017 A 
ENDBRANCH   2  20
TORSDOF 4
ENDMDL
