MODEL 1
REMARK VINA RESULT:      -7.3      0.000      0.000
REMARK  2 active torsions:
REMARK  status: ('A' for Active; 'I' for Inactive)
REMARK    1  A    between atoms: C_8  and  S_9 
REMARK    2  A    between atoms: S_9  and  C_10 
ROOT
HETATM    1  C   UNL     1      44.155 -20.635   4.872  1.00  0.00     0.002 A 
HETATM    2  C   UNL     1      43.945 -19.324   5.303  1.00  0.00     0.034 A 
HETATM    3  C   UNL     1      43.612 -18.314   4.408  1.00  0.00     0.087 A 
HETATM    4  C   UNL     1      43.479 -18.633   3.031  1.00  0.00     0.087 A 
HETATM    5  N   UNL     1      43.141 -17.697   2.125  1.00  0.00    -0.232 NA
HETATM    6  C   UNL     1      42.924 -16.449   2.590  1.00  0.00     0.164 A 
HETATM    7 CL   UNL     1      42.453 -15.336   1.375  1.00  0.00    -0.059 Cl
HETATM    8  C   UNL     1      43.066 -16.132   3.932  1.00  0.00     0.165 A 
HETATM    9  N   UNL     1      43.422 -17.054   4.861  1.00  0.00    -0.234 NA
HETATM   10  C   UNL     1      43.695 -19.940   2.615  1.00  0.00     0.034 A 
HETATM   11  C   UNL     1      44.033 -20.943   3.524  1.00  0.00     0.002 A 
ENDROOT
BRANCH   8  12
HETATM   12  S   UNL     1      42.777 -14.497   4.616  1.00  0.00     0.078 S 
HETATM   13  O   UNL     1      43.231 -14.568   6.051  1.00  0.00    -0.251 OA
BRANCH  12  14
HETATM   14  C   UNL     1      40.934 -14.447   4.695  1.00  0.00     0.112 C 
HETATM   15  C   UNL     1      40.476 -14.192   6.137  1.00  0.00     0.250 C 
HETATM   16  N   UNL     1      40.838 -12.795   6.558  1.00  0.00    -0.074 N 
HETATM   17  H   UNL     1      41.878 -12.713   6.500  1.00  0.00     0.277 HD
HETATM   18  H   UNL     1      40.612 -12.646   7.549  1.00  0.00     0.277 HD
HETATM   19  C   UNL     1      40.232 -11.728   5.718  1.00  0.00     0.232 C 
HETATM   20  C   UNL     1      40.659 -11.921   4.270  1.00  0.00     0.029 C 
HETATM   21  C   UNL     1      40.404 -13.343   3.763  1.00  0.00     0.021 C 
ENDBRANCH  12  14
ENDBRANCH   8  12
TORSDOF 2
ENDMDL
MODEL 2
REMARK VINA RESULT:      -7.3      2.522      3.325
REMARK  2 active torsions:
REMARK  status: ('A' for Active; 'I' for Inactive)
REMARK    1  A    between atoms: C_8  and  S_9 
REMARK    2  A    between atoms: S_9  and  C_10 
ROOT
HETATM    1  C   UNL     1      43.970 -20.970   3.387  1.00  0.00     0.002 A 
HETATM    2  C   UNL     1      43.650 -19.873   2.585  1.00  0.00     0.034 A 
HETATM    3  C   UNL     1      43.508 -18.600   3.125  1.00  0.00     0.087 A 
HETATM    4  C   UNL     1      43.702 -18.421   4.520  1.00  0.00     0.087 A 
HETATM    5  N   UNL     1      43.594 -17.207   5.091  1.00  0.00    -0.232 NA
HETATM    6  C   UNL     1      43.308 -16.172   4.273  1.00  0.00     0.164 A 
HETATM    7 CL   UNL     1      43.238 -14.660   5.078  1.00  0.00    -0.059 Cl
HETATM    8  C   UNL     1      43.106 -16.347   2.913  1.00  0.00     0.165 A 
HETATM    9  N   UNL     1      43.192 -17.563   2.318  1.00  0.00    -0.234 NA
HETATM   10  C   UNL     1      44.014 -19.521   5.308  1.00  0.00     0.034 A 
HETATM   11  C   UNL     1      44.149 -20.794   4.753  1.00  0.00     0.002 A 
ENDROOT
BRANCH   8  12
HETATM   12  S   UNL     1      42.738 -15.012   1.771  1.00  0.00     0.078 S 
HETATM   13  O   UNL     1      43.571 -13.842   2.225  1.00  0.00    -0.251 OA
BRANCH  12  14
HETATM   14  C   UNL     1      41.007 -14.582   2.246  1.00  0.00     0.112 C 
HETATM   15  C   UNL     1      40.820 -13.059   2.236  1.00  0.00     0.250 C 
HETATM   16  N   UNL     1      40.890 -12.536   0.828  1.00  0.00    -0.074 N 
HETATM   17  H   UNL     1      41.835 -12.777   0.454  1.00  0.00     0.277 HD
HETATM   18  H   UNL     1      40.852 -11.509   0.822  1.00  0.00     0.277 HD
HETATM   19  C   UNL     1      39.861 -13.102  -0.085  1.00  0.00     0.232 C 
HETATM   20  C   UNL     1      40.000 -14.617  -0.126  1.00  0.00     0.029 C 
HETATM   21  C   UNL     1      40.020 -15.248   1.270  1.00  0.00     0.021 C 
ENDBRANCH  12  14
ENDBRANCH   8  12
TORSDOF 2
ENDMDL
MODEL 3
REMARK VINA RESULT:      -7.2      2.427      2.879
REMARK  2 active torsions:
REMARK  status: ('A' for Active; 'I' for Inactive)
REMARK    1  A    between atoms: C_8  and  S_9 
REMARK    2  A    between atoms: S_9  and  C_10 
ROOT
HETATM    1  C   UNL     1      43.561 -20.505   2.375  1.00  0.00     0.002 A 
HETATM    2  C   UNL     1      43.053 -19.220   2.180  1.00  0.00     0.034 A 
HETATM    3  C   UNL     1      43.196 -18.232   3.147  1.00  0.00     0.087 A 
HETATM    4  C   UNL     1      43.880 -18.544   4.351  1.00  0.00     0.087 A 
HETATM    5  N   UNL     1      44.062 -17.619   5.313  1.00  0.00    -0.232 NA
HETATM    6  C   UNL     1      43.575 -16.385   5.071  1.00  0.00     0.164 A 
HETATM    7 CL   UNL     1      43.894 -15.262   6.327  1.00  0.00    -0.059 Cl
HETATM    8  C   UNL     1      42.896 -16.081   3.901  1.00  0.00     0.165 A 
HETATM    9  N   UNL     1      42.685 -17.000   2.926  1.00  0.00    -0.234 NA
HETATM   10  C   UNL     1      44.377 -19.828   4.535  1.00  0.00     0.034 A 
HETATM   11  C   UNL     1      44.222 -20.811   3.558  1.00  0.00     0.002 A 
ENDROOT
BRANCH   8  12
HETATM   12  S   UNL     1      42.238 -14.456   3.513  1.00  0.00     0.078 S 
HETATM   13  O   UNL     1      41.200 -14.172   4.567  1.00  0.00    -0.251 OA
BRANCH  12  14
HETATM   14  C   UNL     1      41.279 -14.802   1.974  1.00  0.00     0.112 C 
HETATM   15  C   UNL     1      39.798 -15.020   2.314  1.00  0.00     0.250 C 
HETATM   16  N   UNL     1      39.176 -13.733   2.780  1.00  0.00    -0.074 N 
HETATM   17  H   UNL     1      39.693 -13.431   3.636  1.00  0.00     0.277 HD
HETATM   18  H   UNL     1      38.210 -13.891   3.091  1.00  0.00     0.277 HD
HETATM   19  C   UNL     1      39.231 -12.632   1.781  1.00  0.00     0.232 C 
HETATM   20  C   UNL     1      40.681 -12.360   1.408  1.00  0.00     0.029 C 
HETATM   21  C   UNL     1      41.434 -13.627   0.991  1.00  0.00     0.021 C 
ENDBRANCH  12  14
ENDBRANCH   8  12
TORSDOF 2
ENDMDL
MODEL 4
REMARK VINA RESULT:      -6.7      2.320      2.650
REMARK  2 active torsions:
REMARK  status: ('A' for Active; 'I' for Inactive)
REMARK    1  A    between atoms: C_8  and  S_9 
REMARK    2  A    between atoms: S_9  and  C_10 
ROOT
HETATM    1  C   UNL     1      44.319 -19.365   3.760  1.00  0.00     0.002 A 
HETATM    2  C   UNL     1      44.164 -18.329   4.682  1.00  0.00     0.034 A 
HETATM    3  C   UNL     1      43.357 -17.231   4.405  1.00  0.00     0.087 A 
HETATM    4  C   UNL     1      42.676 -17.176   3.160  1.00  0.00     0.087 A 
HETATM    5  N   UNL     1      41.869 -16.145   2.849  1.00  0.00    -0.232 NA
HETATM    6  C   UNL     1      41.730 -15.178   3.780  1.00  0.00     0.164 A 
HETATM    7 CL   UNL     1      40.647 -13.931   3.318  1.00  0.00    -0.059 Cl
HETATM    8  C   UNL     1      42.403 -15.223   4.990  1.00  0.00     0.165 A 
HETATM    9  N   UNL     1      43.235 -16.243   5.319  1.00  0.00    -0.234 NA
HETATM   10  C   UNL     1      42.844 -18.211   2.250  1.00  0.00     0.034 A 
HETATM   11  C   UNL     1      43.660 -19.305   2.539  1.00  0.00     0.002 A 
ENDROOT
BRANCH   8  12
HETATM   12  S   UNL     1      42.249 -13.978   6.275  1.00  0.00     0.078 S 
HETATM   13  O   UNL     1      40.781 -13.650   6.353  1.00  0.00    -0.251 OA
BRANCH  12  14
HETATM   14  C   UNL     1      43.028 -12.513   5.467  1.00  0.00     0.112 C 
HETATM   15  C   UNL     1      42.086 -11.304   5.548  1.00  0.00     0.250 C 
HETATM   16  N   UNL     1      41.958 -10.838   6.972  1.00  0.00    -0.074 N 
HETATM   17  H   UNL     1      41.561 -11.631   7.524  1.00  0.00     0.277 HD
HETATM   18  H   UNL     1      41.263 -10.085   7.045  1.00  0.00     0.277 HD
HETATM   19  C   UNL     1      43.244 -10.424   7.595  1.00  0.00     0.232 C 
HETATM   20  C   UNL     1      44.223 -11.588   7.555  1.00  0.00     0.029 C 
HETATM   21  C   UNL     1      44.367 -12.192   6.154  1.00  0.00     0.021 C 
ENDBRANCH  12  14
ENDBRANCH   8  12
TORSDOF 2
ENDMDL
MODEL 5
REMARK VINA RESULT:      -6.6     14.114     15.197
REMARK  2 active torsions:
REMARK  status: ('A' for Active; 'I' for Inactive)
REMARK    1  A    between atoms: C_8  and  S_9 
REMARK    2  A    between atoms: S_9  and  C_10 
ROOT
HETATM    1  C   UNL     1      45.246 -28.250  -3.889  1.00  0.00     0.002 A 
HETATM    2  C   UNL     1      45.802 -27.999  -2.634  1.00  0.00     0.034 A 
HETATM    3  C   UNL     1      45.380 -28.691  -1.505  1.00  0.00     0.087 A 
HETATM    4  C   UNL     1      44.367 -29.677  -1.644  1.00  0.00     0.087 A 
HETATM    5  N   UNL     1      43.934 -30.389  -0.586  1.00  0.00    -0.232 NA
HETATM    6  C   UNL     1      44.517 -30.130   0.603  1.00  0.00     0.164 A 
HETATM    7 CL   UNL     1      43.938 -31.115   1.881  1.00  0.00    -0.059 Cl
HETATM    8  C   UNL     1      45.497 -29.159   0.743  1.00  0.00     0.165 A 
HETATM    9  N   UNL     1      45.937 -28.417  -0.304  1.00  0.00    -0.234 NA
HETATM   10  C   UNL     1      43.818 -29.913  -2.897  1.00  0.00     0.034 A 
HETATM   11  C   UNL     1      44.249 -29.207  -4.020  1.00  0.00     0.002 A 
ENDROOT
BRANCH   8  12
HETATM   12  S   UNL     1      46.321 -28.777   2.292  1.00  0.00     0.078 S 
HETATM   13  O   UNL     1      47.398 -27.782   1.947  1.00  0.00    -0.251 OA
BRANCH  12  14
HETATM   14  C   UNL     1      47.214 -30.354   2.636  1.00  0.00     0.112 C 
HETATM   15  C   UNL     1      48.250 -30.624   1.536  1.00  0.00     0.250 C 
HETATM   16  N   UNL     1      49.364 -29.618   1.612  1.00  0.00    -0.074 N 
HETATM   17  H   UNL     1      48.940 -28.674   1.471  1.00  0.00     0.277 HD
HETATM   18  H   UNL     1      50.015 -29.740   0.827  1.00  0.00     0.277 HD
HETATM   19  C   UNL     1      50.099 -29.619   2.905  1.00  0.00     0.232 C 
HETATM   20  C   UNL     1      49.125 -29.345   4.041  1.00  0.00     0.029 C 
HETATM   21  C   UNL     1      47.904 -30.271   4.010  1.00  0.00     0.021 C 
ENDBRANCH  12  14
ENDBRANCH   8  12
TORSDOF 2
ENDMDL
MODEL 6
REMARK VINA RESULT:      -6.6      2.544      3.378
REMARK  2 active torsions:
REMARK  status: ('A' for Active; 'I' for Inactive)
REMARK    1  A    between atoms: C_8  and  S_9 
REMARK    2  A    between atoms: S_9  and  C_10 
ROOT
HETATM    1  C   UNL     1      43.234 -18.728   2.291  1.00  0.00     0.002 A 
HETATM    2  C   UNL     1      42.565 -17.506   2.371  1.00  0.00     0.034 A 
HETATM    3  C   UNL     1      42.733 -16.661   3.461  1.00  0.00     0.087 A 
HETATM    4  C   UNL     1      43.609 -17.055   4.506  1.00  0.00     0.087 A 
HETATM    5  N   UNL     1      43.821 -16.266   5.577  1.00  0.00    -0.232 NA
HETATM    6  C   UNL     1      43.173 -15.083   5.600  1.00  0.00     0.164 A 
HETATM    7 CL   UNL     1      43.539 -14.126   6.974  1.00  0.00    -0.059 Cl
HETATM    8  C   UNL     1      42.307 -14.702   4.587  1.00  0.00     0.165 A 
HETATM    9  N   UNL     1      42.064 -15.487   3.507  1.00  0.00    -0.234 NA
HETATM   10  C   UNL     1      44.264 -18.276   4.418  1.00  0.00     0.034 A 
HETATM   11  C   UNL     1      44.083 -19.116   3.319  1.00  0.00     0.002 A 
ENDROOT
BRANCH   8  12
HETATM   12  S   UNL     1      41.427 -13.137   4.550  1.00  0.00     0.078 S 
HETATM   13  O   UNL     1      40.570 -13.178   3.312  1.00  0.00    -0.251 OA
BRANCH  12  14
HETATM   14  C   UNL     1      42.787 -11.955   4.155  1.00  0.00     0.112 C 
HETATM   15  C   UNL     1      42.475 -11.208   2.852  1.00  0.00     0.250 C 
HETATM   16  N   UNL     1      41.309 -10.279   3.051  1.00  0.00    -0.074 N 
HETATM   17  H   UNL     1      40.489 -10.864   3.326  1.00  0.00     0.277 HD
HETATM   18  H   UNL     1      41.040  -9.841   2.162  1.00  0.00     0.277 HD
HETATM   19  C   UNL     1      41.526  -9.245   4.098  1.00  0.00     0.232 C 
HETATM   20  C   UNL     1      41.832  -9.925   5.425  1.00  0.00     0.029 C 
HETATM   21  C   UNL     1      42.960 -10.956   5.314  1.00  0.00     0.021 C 
ENDBRANCH  12  14
ENDBRANCH   8  12
TORSDOF 2
ENDMDL
MODEL 7
REMARK VINA RESULT:      -6.5      3.297      4.133
REMARK  2 active torsions:
REMARK  status: ('A' for Active; 'I' for Inactive)
REMARK    1  A    between atoms: C_8  and  S_9 
REMARK    2  A    between atoms: S_9  and  C_10 
ROOT
HETATM    1  C   UNL     1      43.506 -18.838   2.698  1.00  0.00     0.002 A 
HETATM    2  C   UNL     1      42.665 -17.813   2.263  1.00  0.00     0.034 A 
HETATM    3  C   UNL     1      42.540 -16.628   2.979  1.00  0.00     0.087 A 
HETATM    4  C   UNL     1      43.292 -16.466   4.173  1.00  0.00     0.087 A 
HETATM    5  N   UNL     1      43.221 -15.332   4.895  1.00  0.00    -0.232 NA
HETATM    6  C   UNL     1      42.414 -14.358   4.424  1.00  0.00     0.164 A 
HETATM    7 CL   UNL     1      42.424 -12.936   5.381  1.00  0.00    -0.059 Cl
HETATM    8  C   UNL     1      41.670 -14.520   3.266  1.00  0.00     0.165 A 
HETATM    9  N   UNL     1      41.711 -15.659   2.531  1.00  0.00    -0.234 NA
HETATM   10  C   UNL     1      44.120 -17.495   4.598  1.00  0.00     0.034 A 
HETATM   11  C   UNL     1      44.233 -18.681   3.871  1.00  0.00     0.002 A 
ENDROOT
BRANCH   8  12
HETATM   12  S   UNL     1      40.591 -13.260   2.579  1.00  0.00     0.078 S 
HETATM   13  O   UNL     1      39.200 -13.833   2.642  1.00  0.00    -0.251 OA
BRANCH  12  14
HETATM   14  C   UNL     1      41.052 -13.310   0.793  1.00  0.00     0.112 C 
HETATM   15  C   UNL     1      39.929 -13.963  -0.023  1.00  0.00     0.250 C 
HETATM   16  N   UNL     1      38.717 -13.073  -0.045  1.00  0.00    -0.074 N 
HETATM   17  H   UNL     1      38.406 -12.949   0.945  1.00  0.00     0.277 HD
HETATM   18  H   UNL     1      37.933 -13.542  -0.515  1.00  0.00     0.277 HD
HETATM   19  C   UNL     1      38.956 -11.731  -0.638  1.00  0.00     0.232 C 
HETATM   20  C   UNL     1      40.058 -11.024   0.136  1.00  0.00     0.029 C 
HETATM   21  C   UNL     1      41.320 -11.881   0.285  1.00  0.00     0.021 C 
ENDBRANCH  12  14
ENDBRANCH   8  12
TORSDOF 2
ENDMDL
MODEL 8
REMARK VINA RESULT:      -6.5      2.119      6.784
REMARK  2 active torsions:
REMARK  status: ('A' for Active; 'I' for Inactive)
REMARK    1  A    between atoms: C_8  and  S_9 
REMARK    2  A    between atoms: S_9  and  C_10 
ROOT
HETATM    1  C   UNL     1      39.083 -10.356   4.943  1.00  0.00     0.002 A 
HETATM    2  C   UNL     1      39.587 -11.634   5.187  1.00  0.00     0.034 A 
HETATM    3  C   UNL     1      39.711 -12.569   4.166  1.00  0.00     0.087 A 
HETATM    4  C   UNL     1      39.320 -12.204   2.850  1.00  0.00     0.087 A 
HETATM    5  N   UNL     1      39.436 -13.066   1.822  1.00  0.00    -0.232 NA
HETATM    6  C   UNL     1      39.951 -14.281   2.100  1.00  0.00     0.164 A 
HETATM    7 CL   UNL     1      40.106 -15.292   0.724  1.00  0.00    -0.059 Cl
HETATM    8  C   UNL     1      40.320 -14.644   3.385  1.00  0.00     0.165 A 
HETATM    9  N   UNL     1      40.197 -13.800   4.440  1.00  0.00    -0.234 NA
HETATM   10  C   UNL     1      38.815 -10.931   2.621  1.00  0.00     0.034 A 
HETATM   11  C   UNL     1      38.692 -10.005   3.657  1.00  0.00     0.002 A 
ENDROOT
BRANCH   8  12
HETATM   12  S   UNL     1      41.025 -16.238   3.818  1.00  0.00     0.078 S 
HETATM   13  O   UNL     1      40.962 -16.319   5.321  1.00  0.00    -0.251 OA
BRANCH  12  14
HETATM   14  C   UNL     1      42.808 -15.975   3.425  1.00  0.00     0.112 C 
HETATM   15  C   UNL     1      43.681 -16.438   4.599  1.00  0.00     0.250 C 
HETATM   16  N   UNL     1      43.615 -17.934   4.739  1.00  0.00    -0.074 N 
HETATM   17  H   UNL     1      42.617 -18.184   4.922  1.00  0.00     0.277 HD
HETATM   18  H   UNL     1      44.127 -18.241   5.575  1.00  0.00     0.277 HD
HETATM   19  C   UNL     1      44.078 -18.679   3.539  1.00  0.00     0.232 C 
HETATM   20  C   UNL     1      43.242 -18.270   2.335  1.00  0.00     0.029 C 
HETATM   21  C   UNL     1      43.178 -16.751   2.147  1.00  0.00     0.021 C 
ENDBRANCH  12  14
ENDBRANCH   8  12
TORSDOF 2
ENDMDL
MODEL 9
REMARK VINA RESULT:      -6.4      1.537      1.759
REMARK  2 active torsions:
REMARK  status: ('A' for Active; 'I' for Inactive)
REMARK    1  A    between atoms: C_8  and  S_9 
REMARK    2  A    between atoms: S_9  and  C_10 
ROOT
HETATM    1  C   UNL     1      44.336 -19.158   4.590  1.00  0.00     0.002 A 
HETATM    2  C   UNL     1      44.049 -17.817   4.846  1.00  0.00     0.034 A 
HETATM    3  C   UNL     1      43.396 -17.026   3.907  1.00  0.00     0.087 A 
HETATM    4  C   UNL     1      43.013 -17.606   2.669  1.00  0.00     0.087 A 
HETATM    5  N   UNL     1      42.364 -16.889   1.732  1.00  0.00    -0.232 NA
HETATM    6  C   UNL     1      42.085 -15.604   2.033  1.00  0.00     0.164 A 
HETATM    7 CL   UNL     1      41.215 -14.785   0.803  1.00  0.00    -0.059 Cl
HETATM    8  C   UNL     1      42.469 -15.033   3.236  1.00  0.00     0.165 A 
HETATM    9  N   UNL     1      43.140 -15.728   4.187  1.00  0.00    -0.234 NA
HETATM   10  C   UNL     1      43.310 -18.940   2.424  1.00  0.00     0.034 A 
HETATM   11  C   UNL     1      43.969 -19.720   3.374  1.00  0.00     0.002 A 
ENDROOT
BRANCH   8  12
HETATM   12  S   UNL     1      42.116 -13.335   3.702  1.00  0.00     0.078 S 
HETATM   13  O   UNL     1      43.403 -12.579   3.500  1.00  0.00    -0.251 OA
BRANCH  12  14
HETATM   14  C   UNL     1      41.927 -13.483   5.531  1.00  0.00     0.112 C 
HETATM   15  C   UNL     1      42.757 -12.402   6.236  1.00  0.00     0.250 C 
HETATM   16  N   UNL     1      42.169 -11.043   5.977  1.00  0.00    -0.074 N 
HETATM   17  H   UNL     1      42.192 -10.887   4.944  1.00  0.00     0.277 HD
HETATM   18  H   UNL     1      42.768 -10.309   6.373  1.00  0.00     0.277 HD
HETATM   19  C   UNL     1      40.767 -10.885   6.448  1.00  0.00     0.232 C 
HETATM   20  C   UNL     1      39.887 -11.927   5.774  1.00  0.00     0.029 C 
HETATM   21  C   UNL     1      40.441 -13.349   5.912  1.00  0.00     0.021 C 
ENDBRANCH  12  14
ENDBRANCH   8  12
TORSDOF 2
ENDMDL
MODEL 10
REMARK VINA RESULT:      -6.3      3.865      6.838
REMARK  2 active torsions:
REMARK  status: ('A' for Active; 'I' for Inactive)
REMARK    1  A    between atoms: C_8  and  S_9 
REMARK    2  A    between atoms: S_9  and  C_10 
ROOT
HETATM    1  C   UNL     1      38.465 -14.134  -2.280  1.00  0.00     0.002 A 
HETATM    2  C   UNL     1      39.449 -14.668  -1.447  1.00  0.00     0.034 A 
HETATM    3  C   UNL     1      39.910 -13.974  -0.335  1.00  0.00     0.087 A 
HETATM    4  C   UNL     1      39.358 -12.698  -0.045  1.00  0.00     0.087 A 
HETATM    5  N   UNL     1      39.757 -11.991   1.028  1.00  0.00    -0.232 NA
HETATM    6  C   UNL     1      40.692 -12.557   1.819  1.00  0.00     0.164 A 
HETATM    7 CL   UNL     1      41.102 -11.608   3.186  1.00  0.00    -0.059 Cl
HETATM    8  C   UNL     1      41.242 -13.796   1.530  1.00  0.00     0.165 A 
HETATM    9  N   UNL     1      40.870 -14.520   0.445  1.00  0.00    -0.234 NA
HETATM   10  C   UNL     1      38.383 -12.175  -0.885  1.00  0.00     0.034 A 
HETATM   11  C   UNL     1      37.933 -12.882  -1.999  1.00  0.00     0.002 A 
ENDROOT
BRANCH   8  12
HETATM   12  S   UNL     1      42.477 -14.611   2.548  1.00  0.00     0.078 S 
HETATM   13  O   UNL     1      43.544 -15.084   1.596  1.00  0.00    -0.251 OA
BRANCH  12  14
HETATM   14  C   UNL     1      41.583 -16.139   3.067  1.00  0.00     0.112 C 
HETATM   15  C   UNL     1      42.196 -17.367   2.381  1.00  0.00     0.250 C 
HETATM   16  N   UNL     1      43.578 -17.625   2.915  1.00  0.00    -0.074 N 
HETATM   17  H   UNL     1      44.155 -16.780   2.704  1.00  0.00     0.277 HD
HETATM   18  H   UNL     1      44.027 -18.392   2.399  1.00  0.00     0.277 HD
HETATM   19  C   UNL     1      43.629 -17.879   4.379  1.00  0.00     0.232 C 
HETATM   20  C   UNL     1      43.041 -16.687   5.120  1.00  0.00     0.029 C 
HETATM   21  C   UNL     1      41.657 -16.289   4.597  1.00  0.00     0.021 C 
ENDBRANCH  12  14
ENDBRANCH   8  12
TORSDOF 2
ENDMDL
