MODEL 1
REMARK VINA RESULT:      -8.5      0.000      0.000
REMARK  8 active torsions:
REMARK  status: ('A' for Active; 'I' for Inactive)
REMARK    1  A    between atoms: C_2  and  O_3 
REMARK    2  A    between atoms: C_2  and  C_4 
REMARK    3  A    between atoms: C_4  and  N_5 
REMARK       I    between atoms: N_5  and  C_6 
REMARK    4  A    between atoms: C_6  and  C_7 
REMARK    5  A    between atoms: C_10  and  O_11 
REMARK    6  A    between atoms: O_11  and  C_12 
REMARK    7  A    between atoms: C_15  and  O_16 
REMARK    8  A    between atoms: O_16  and  C_17 
ROOT
HETATM    1  C   UNL     1      43.606 -11.329   7.234  1.00  0.00     0.049 A 
HETATM    2  C   UNL     1      42.754 -10.488   6.532  1.00  0.00     0.136 A 
HETATM    3  N   UNL     1      42.077 -10.850   5.414  1.00  0.00    -0.236 NA
HETATM    4  C   UNL     1      42.272 -12.112   4.968  1.00  0.00     0.169 A 
HETATM    5  C   UNL     1      43.146 -13.010   5.560  1.00  0.00     0.059 A 
HETATM    6  C   UNL     1      43.816 -12.612   6.716  1.00  0.00     0.023 A 
ENDROOT
BRANCH   4   7
HETATM    7  O   UNL     1      41.626 -12.534   3.818  1.00  0.00    -0.292 OA
BRANCH   7   8
HETATM    8  C   UNL     1      41.910 -13.793   3.341  1.00  0.00     0.078 A 
HETATM    9  C   UNL     1      43.037 -13.895   2.521  1.00  0.00     0.040 A 
HETATM   10  C   UNL     1      43.445 -15.141   2.039  1.00  0.00     0.040 A 
HETATM   11  C   UNL     1      42.741 -16.294   2.392  1.00  0.00     0.076 A 
HETATM   12  C   UNL     1      41.608 -16.194   3.203  1.00  0.00     0.040 A 
HETATM   13  C   UNL     1      41.207 -14.949   3.694  1.00  0.00     0.040 A 
BRANCH  11  14
HETATM   14  O   UNL     1      43.196 -17.473   1.842  1.00  0.00    -0.311 OA
BRANCH  14  15
HETATM   15  C   UNL     1      43.491 -18.513   2.692  1.00  0.00     0.076 A 
HETATM   16  C   UNL     1      43.313 -19.807   2.202  1.00  0.00     0.037 A 
HETATM   17  C   UNL     1      43.628 -20.902   3.008  1.00  0.00     0.003 A 
HETATM   18  C   UNL     1      44.133 -20.700   4.293  1.00  0.00     0.000 A 
HETATM   19  C   UNL     1      44.335 -19.405   4.770  1.00  0.00     0.003 A 
HETATM   20  C   UNL     1      44.025 -18.307   3.966  1.00  0.00     0.037 A 
ENDBRANCH  14  15
ENDBRANCH  11  14
ENDBRANCH   7   8
ENDBRANCH   4   7
BRANCH   1  21
HETATM   21  C   UNL     1      44.307 -10.932   8.483  1.00  0.00     0.253 C 
HETATM   22  N   UNL     1      43.541 -10.405   9.504  1.00  0.00    -0.354 N 
HETATM   23  H   UNL     1      42.537 -10.500   9.467  1.00  0.00     0.162 HD
HETATM   24  O   UNL     1      45.515 -11.111   8.576  1.00  0.00    -0.268 OA
BRANCH  22  25
HETATM   25  C   UNL     1      44.100 -10.176  10.829  1.00  0.00     0.154 C 
BRANCH  25  26
HETATM   26  C   UNL     1      43.088 -10.015  11.975  1.00  0.00     0.132 C 
HETATM   27  C   UNL     1      43.065  -8.603  12.545  1.00  0.00     0.041 C 
BRANCH  26  28
HETATM   28  O   UNL     1      41.785 -10.313  11.462  1.00  0.00    -0.394 OA
HETATM   29  H   UNL     1      41.796 -11.247  11.187  1.00  0.00     0.210 HD
ENDBRANCH  26  28
ENDBRANCH  25  26
ENDBRANCH  22  25
ENDBRANCH   1  21
TORSDOF 8
ENDMDL
MODEL 2
REMARK VINA RESULT:      -8.4      1.893      2.565
REMARK  8 active torsions:
REMARK  status: ('A' for Active; 'I' for Inactive)
REMARK    1  A    between atoms: C_2  and  O_3 
REMARK    2  A    between atoms: C_2  and  C_4 
REMARK    3  A    between atoms: C_4  and  N_5 
REMARK       I    between atoms: N_5  and  C_6 
REMARK    4  A    between atoms: C_6  and  C_7 
REMARK    5  A    between atoms: C_10  and  O_11 
REMARK    6  A    between atoms: O_11  and  C_12 
REMARK    7  A    between atoms: C_15  and  O_16 
REMARK    8  A    between atoms: O_16  and  C_17 
ROOT
HETATM    1  C   UNL     1      42.145 -10.904   5.725  1.00  0.00     0.049 A 
HETATM    2  C   UNL     1      42.645 -10.699   4.445  1.00  0.00     0.136 A 
HETATM    3  N   UNL     1      42.251 -11.399   3.353  1.00  0.00    -0.236 NA
HETATM    4  C   UNL     1      41.321 -12.361   3.551  1.00  0.00     0.169 A 
HETATM    5  C   UNL     1      40.803 -12.685   4.795  1.00  0.00     0.059 A 
HETATM    6  C   UNL     1      41.217 -11.936   5.896  1.00  0.00     0.023 A 
ENDROOT
BRANCH   4   7
HETATM    7  O   UNL     1      40.895 -13.126   2.478  1.00  0.00    -0.292 OA
BRANCH   7   8
HETATM    8  C   UNL     1      41.455 -14.371   2.307  1.00  0.00     0.078 A 
HETATM    9  C   UNL     1      42.777 -14.389   1.857  1.00  0.00     0.040 A 
HETATM   10  C   UNL     1      43.454 -15.602   1.713  1.00  0.00     0.040 A 
HETATM   11  C   UNL     1      42.821 -16.802   2.041  1.00  0.00     0.076 A 
HETATM   12  C   UNL     1      41.495 -16.788   2.483  1.00  0.00     0.040 A 
HETATM   13  C   UNL     1      40.822 -15.574   2.636  1.00  0.00     0.040 A 
BRANCH  11  14
HETATM   14  O   UNL     1      43.554 -17.951   1.835  1.00  0.00    -0.311 OA
BRANCH  14  15
HETATM   15  C   UNL     1      43.735 -18.803   2.898  1.00  0.00     0.076 A 
HETATM   16  C   UNL     1      43.878 -18.227   4.161  1.00  0.00     0.037 A 
HETATM   17  C   UNL     1      44.031 -19.043   5.282  1.00  0.00     0.003 A 
HETATM   18  C   UNL     1      44.025 -20.431   5.140  1.00  0.00     0.000 A 
HETATM   19  C   UNL     1      43.854 -21.005   3.880  1.00  0.00     0.003 A 
HETATM   20  C   UNL     1      43.698 -20.192   2.757  1.00  0.00     0.037 A 
ENDBRANCH  14  15
ENDBRANCH  11  14
ENDBRANCH   7   8
ENDBRANCH   4   7
BRANCH   1  21
HETATM   21  C   UNL     1      42.554 -10.098   6.904  1.00  0.00     0.253 C 
HETATM   22  N   UNL     1      43.386 -10.696   7.829  1.00  0.00    -0.354 N 
HETATM   23  H   UNL     1      43.858 -11.555   7.585  1.00  0.00     0.162 HD
HETATM   24  O   UNL     1      42.170  -8.938   7.000  1.00  0.00    -0.268 OA
BRANCH  22  25
HETATM   25  C   UNL     1      43.999  -9.929   8.904  1.00  0.00     0.154 C 
BRANCH  25  26
HETATM   26  C   UNL     1      45.489  -9.589   8.732  1.00  0.00     0.132 C 
HETATM   27  C   UNL     1      46.176 -10.464   7.691  1.00  0.00     0.041 C 
BRANCH  26  28
HETATM   28  O   UNL     1      45.587  -8.225   8.306  1.00  0.00    -0.394 OA
HETATM   29  H   UNL     1      46.533  -7.994   8.315  1.00  0.00     0.210 HD
ENDBRANCH  26  28
ENDBRANCH  25  26
ENDBRANCH  22  25
ENDBRANCH   1  21
TORSDOF 8
ENDMDL
MODEL 3
REMARK VINA RESULT:      -8.2      1.889      3.000
REMARK  8 active torsions:
REMARK  status: ('A' for Active; 'I' for Inactive)
REMARK    1  A    between atoms: C_2  and  O_3 
REMARK    2  A    between atoms: C_2  and  C_4 
REMARK    3  A    between atoms: C_4  and  N_5 
REMARK       I    between atoms: N_5  and  C_6 
REMARK    4  A    between atoms: C_6  and  C_7 
REMARK    5  A    between atoms: C_10  and  O_11 
REMARK    6  A    between atoms: O_11  and  C_12 
REMARK    7  A    between atoms: C_15  and  O_16 
REMARK    8  A    between atoms: O_16  and  C_17 
ROOT
HETATM    1  C   UNL     1      43.360  -9.935   9.400  1.00  0.00     0.049 A 
HETATM    2  C   UNL     1      42.471  -9.668   8.367  1.00  0.00     0.136 A 
HETATM    3  N   UNL     1      42.683 -10.011   7.072  1.00  0.00    -0.236 NA
HETATM    4  C   UNL     1      43.848 -10.640   6.794  1.00  0.00     0.169 A 
HETATM    5  C   UNL     1      44.827 -10.900   7.740  1.00  0.00     0.059 A 
HETATM    6  C   UNL     1      44.572 -10.549   9.065  1.00  0.00     0.023 A 
ENDROOT
BRANCH   4   7
HETATM    7  O   UNL     1      44.133 -10.995   5.486  1.00  0.00    -0.292 OA
BRANCH   7   8
HETATM    8  C   UNL     1      43.583 -12.158   4.997  1.00  0.00     0.078 A 
HETATM    9  C   UNL     1      43.034 -13.021   5.948  1.00  0.00     0.040 A 
HETATM   10  C   UNL     1      42.397 -14.197   5.547  1.00  0.00     0.040 A 
HETATM   11  C   UNL     1      42.283 -14.504   4.189  1.00  0.00     0.076 A 
HETATM   12  C   UNL     1      42.839 -13.648   3.235  1.00  0.00     0.040 A 
HETATM   13  C   UNL     1      43.468 -12.467   3.638  1.00  0.00     0.040 A 
BRANCH  11  14
HETATM   14  O   UNL     1      41.668 -15.700   3.888  1.00  0.00    -0.311 OA
BRANCH  14  15
HETATM   15  C   UNL     1      42.464 -16.787   3.614  1.00  0.00     0.076 A 
HETATM   16  C   UNL     1      43.309 -17.232   4.630  1.00  0.00     0.037 A 
HETATM   17  C   UNL     1      44.116 -18.351   4.421  1.00  0.00     0.003 A 
HETATM   18  C   UNL     1      44.065 -19.030   3.203  1.00  0.00     0.000 A 
HETATM   19  C   UNL     1      43.199 -18.598   2.197  1.00  0.00     0.003 A 
HETATM   20  C   UNL     1      42.388 -17.482   2.404  1.00  0.00     0.037 A 
ENDBRANCH  14  15
ENDBRANCH  11  14
ENDBRANCH   7   8
ENDBRANCH   4   7
BRANCH   1  21
HETATM   21  C   UNL     1      43.093  -9.594  10.821  1.00  0.00     0.253 C 
HETATM   22  N   UNL     1      42.009 -10.196  11.430  1.00  0.00    -0.354 N 
HETATM   23  H   UNL     1      41.571 -10.989  10.985  1.00  0.00     0.162 HD
HETATM   24  O   UNL     1      43.848  -8.826  11.406  1.00  0.00    -0.268 OA
BRANCH  22  25
HETATM   25  C   UNL     1      41.787 -10.082  12.865  1.00  0.00     0.154 C 
BRANCH  25  26
HETATM   26  C   UNL     1      40.323  -9.959  13.318  1.00  0.00     0.132 C 
HETATM   27  C   UNL     1      39.486  -9.106  12.374  1.00  0.00     0.041 C 
BRANCH  26  28
HETATM   28  O   UNL     1      39.757 -11.273  13.356  1.00  0.00    -0.394 OA
HETATM   29  H   UNL     1      40.191 -11.746  14.088  1.00  0.00     0.210 HD
ENDBRANCH  26  28
ENDBRANCH  25  26
ENDBRANCH  22  25
ENDBRANCH   1  21
TORSDOF 8
ENDMDL
MODEL 4
REMARK VINA RESULT:      -8.2      3.906      7.593
REMARK  8 active torsions:
REMARK  status: ('A' for Active; 'I' for Inactive)
REMARK    1  A    between atoms: C_2  and  O_3 
REMARK    2  A    between atoms: C_2  and  C_4 
REMARK    3  A    between atoms: C_4  and  N_5 
REMARK       I    between atoms: N_5  and  C_6 
REMARK    4  A    between atoms: C_6  and  C_7 
REMARK    5  A    between atoms: C_10  and  O_11 
REMARK    6  A    between atoms: O_11  and  C_12 
REMARK    7  A    between atoms: C_15  and  O_16 
REMARK    8  A    between atoms: O_16  and  C_17 
ROOT
HETATM    1  C   UNL     1      39.885 -12.335   1.731  1.00  0.00     0.049 A 
HETATM    2  C   UNL     1      41.241 -12.493   1.981  1.00  0.00     0.136 A 
HETATM    3  N   UNL     1      41.764 -12.753   3.206  1.00  0.00    -0.236 NA
HETATM    4  C   UNL     1      40.888 -12.846   4.233  1.00  0.00     0.169 A 
HETATM    5  C   UNL     1      39.523 -12.645   4.099  1.00  0.00     0.059 A 
HETATM    6  C   UNL     1      39.016 -12.394   2.825  1.00  0.00     0.023 A 
ENDROOT
BRANCH   4   7
HETATM    7  O   UNL     1      41.363 -13.087   5.511  1.00  0.00    -0.292 OA
BRANCH   7   8
HETATM    8  C   UNL     1      42.073 -14.246   5.729  1.00  0.00     0.078 A 
HETATM    9  C   UNL     1      41.373 -15.438   5.531  1.00  0.00     0.040 A 
HETATM   10  C   UNL     1      42.023 -16.666   5.665  1.00  0.00     0.040 A 
HETATM   11  C   UNL     1      43.384 -16.709   5.977  1.00  0.00     0.076 A 
HETATM   12  C   UNL     1      44.085 -15.519   6.185  1.00  0.00     0.040 A 
HETATM   13  C   UNL     1      43.436 -14.290   6.040  1.00  0.00     0.040 A 
BRANCH  11  14
HETATM   14  O   UNL     1      43.933 -17.965   6.123  1.00  0.00    -0.311 OA
BRANCH  14  15
HETATM   15  C   UNL     1      43.912 -18.811   5.040  1.00  0.00     0.076 A 
HETATM   16  C   UNL     1      43.932 -20.181   5.300  1.00  0.00     0.037 A 
HETATM   17  C   UNL     1      43.879 -21.089   4.242  1.00  0.00     0.003 A 
HETATM   18  C   UNL     1      43.790 -20.625   2.929  1.00  0.00     0.000 A 
HETATM   19  C   UNL     1      43.743 -19.254   2.673  1.00  0.00     0.003 A 
HETATM   20  C   UNL     1      43.792 -18.343   3.729  1.00  0.00     0.037 A 
ENDBRANCH  14  15
ENDBRANCH  11  14
ENDBRANCH   7   8
ENDBRANCH   4   7
BRANCH   1  21
HETATM   21  C   UNL     1      39.324 -12.095   0.376  1.00  0.00     0.253 C 
HETATM   22  N   UNL     1      39.050 -13.199  -0.407  1.00  0.00    -0.354 N 
HETATM   23  H   UNL     1      39.031 -14.114   0.020  1.00  0.00     0.162 HD
HETATM   24  O   UNL     1      39.096 -10.945   0.016  1.00  0.00    -0.268 OA
BRANCH  22  25
HETATM   25  C   UNL     1      38.317 -13.077  -1.659  1.00  0.00     0.154 C 
BRANCH  25  26
HETATM   26  C   UNL     1      39.165 -13.004  -2.939  1.00  0.00     0.132 C 
HETATM   27  C   UNL     1      40.638 -13.295  -2.686  1.00  0.00     0.041 C 
BRANCH  26  28
HETATM   28  O   UNL     1      38.666 -13.981  -3.859  1.00  0.00    -0.394 OA
HETATM   29  H   UNL     1      38.484 -13.515  -4.694  1.00  0.00     0.210 HD
ENDBRANCH  26  28
ENDBRANCH  25  26
ENDBRANCH  22  25
ENDBRANCH   1  21
TORSDOF 8
ENDMDL
MODEL 5
REMARK VINA RESULT:      -8.2      5.803      7.836
REMARK  8 active torsions:
REMARK  status: ('A' for Active; 'I' for Inactive)
REMARK    1  A    between atoms: C_2  and  O_3 
REMARK    2  A    between atoms: C_2  and  C_4 
REMARK    3  A    between atoms: C_4  and  N_5 
REMARK       I    between atoms: N_5  and  C_6 
REMARK    4  A    between atoms: C_6  and  C_7 
REMARK    5  A    between atoms: C_10  and  O_11 
REMARK    6  A    between atoms: O_11  and  C_12 
REMARK    7  A    between atoms: C_15  and  O_16 
REMARK    8  A    between atoms: O_16  and  C_17 
ROOT
HETATM    1  C   UNL     1      41.107 -10.846  -0.588  1.00  0.00     0.049 A 
HETATM    2  C   UNL     1      40.864 -11.969  -1.367  1.00  0.00     0.136 A 
HETATM    3  N   UNL     1      40.447 -13.162  -0.874  1.00  0.00    -0.236 NA
HETATM    4  C   UNL     1      40.278 -13.240   0.466  1.00  0.00     0.169 A 
HETATM    5  C   UNL     1      40.551 -12.197   1.337  1.00  0.00     0.059 A 
HETATM    6  C   UNL     1      40.963 -10.980   0.798  1.00  0.00     0.023 A 
ENDROOT
BRANCH   4   7
HETATM    7  O   UNL     1      39.876 -14.438   1.031  1.00  0.00    -0.292 OA
BRANCH   7   8
HETATM    8  C   UNL     1      40.791 -15.138   1.785  1.00  0.00     0.078 A 
HETATM    9  C   UNL     1      42.072 -15.250   1.240  1.00  0.00     0.040 A 
HETATM   10  C   UNL     1      43.088 -15.886   1.956  1.00  0.00     0.040 A 
HETATM   11  C   UNL     1      42.834 -16.395   3.232  1.00  0.00     0.076 A 
HETATM   12  C   UNL     1      41.551 -16.293   3.776  1.00  0.00     0.040 A 
HETATM   13  C   UNL     1      40.538 -15.647   3.062  1.00  0.00     0.040 A 
BRANCH  11  14
HETATM   14  O   UNL     1      43.886 -17.035   3.850  1.00  0.00    -0.311 OA
BRANCH  14  15
HETATM   15  C   UNL     1      43.858 -18.408   3.920  1.00  0.00     0.076 A 
HETATM   16  C   UNL     1      43.670 -19.104   2.725  1.00  0.00     0.037 A 
HETATM   17  C   UNL     1      43.666 -20.499   2.729  1.00  0.00     0.003 A 
HETATM   18  C   UNL     1      43.863 -21.194   3.923  1.00  0.00     0.000 A 
HETATM   19  C   UNL     1      44.077 -20.495   5.112  1.00  0.00     0.003 A 
HETATM   20  C   UNL     1      44.086 -19.100   5.111  1.00  0.00     0.037 A 
ENDBRANCH  14  15
ENDBRANCH  11  14
ENDBRANCH   7   8
ENDBRANCH   4   7
BRANCH   1  21
HETATM   21  C   UNL     1      41.520  -9.533  -1.147  1.00  0.00     0.253 C 
HETATM   22  N   UNL     1      40.681  -8.939  -2.068  1.00  0.00    -0.354 N 
HETATM   23  H   UNL     1      39.738  -9.286  -2.173  1.00  0.00     0.162 HD
HETATM   24  O   UNL     1      42.560  -9.015  -0.756  1.00  0.00    -0.268 OA
BRANCH  22  25
HETATM   25  C   UNL     1      40.896  -7.570  -2.517  1.00  0.00     0.154 C 
BRANCH  25  26
HETATM   26  C   UNL     1      41.485  -7.403  -3.927  1.00  0.00     0.132 C 
HETATM   27  C   UNL     1      42.967  -7.051  -3.908  1.00  0.00     0.041 C 
BRANCH  26  28
HETATM   28  O   UNL     1      41.328  -8.643  -4.625  1.00  0.00    -0.394 OA
HETATM   29  H   UNL     1      41.913  -8.605  -5.403  1.00  0.00     0.210 HD
ENDBRANCH  26  28
ENDBRANCH  25  26
ENDBRANCH  22  25
ENDBRANCH   1  21
TORSDOF 8
ENDMDL
MODEL 6
REMARK VINA RESULT:      -8.1      1.916      3.563
REMARK  8 active torsions:
REMARK  status: ('A' for Active; 'I' for Inactive)
REMARK    1  A    between atoms: C_2  and  O_3 
REMARK    2  A    between atoms: C_2  and  C_4 
REMARK    3  A    between atoms: C_4  and  N_5 
REMARK       I    between atoms: N_5  and  C_6 
REMARK    4  A    between atoms: C_6  and  C_7 
REMARK    5  A    between atoms: C_10  and  O_11 
REMARK    6  A    between atoms: O_11  and  C_12 
REMARK    7  A    between atoms: C_15  and  O_16 
REMARK    8  A    between atoms: O_16  and  C_17 
ROOT
HETATM    1  C   UNL     1      43.446  -9.242   9.963  1.00  0.00     0.049 A 
HETATM    2  C   UNL     1      42.661  -9.317   8.819  1.00  0.00     0.136 A 
HETATM    3  N   UNL     1      43.043  -9.934   7.674  1.00  0.00    -0.236 NA
HETATM    4  C   UNL     1      44.276 -10.492   7.666  1.00  0.00     0.169 A 
HETATM    5  C   UNL     1      45.158 -10.421   8.732  1.00  0.00     0.059 A 
HETATM    6  C   UNL     1      44.730  -9.793   9.901  1.00  0.00     0.023 A 
ENDROOT
BRANCH   4   7
HETATM    7  O   UNL     1      44.731 -11.117   6.518  1.00  0.00    -0.292 OA
BRANCH   7   8
HETATM    8  C   UNL     1      44.049 -12.226   6.070  1.00  0.00     0.078 A 
HETATM    9  C   UNL     1      43.882 -13.256   6.999  1.00  0.00     0.040 A 
HETATM   10  C   UNL     1      43.149 -14.396   6.661  1.00  0.00     0.040 A 
HETATM   11  C   UNL     1      42.560 -14.502   5.400  1.00  0.00     0.076 A 
HETATM   12  C   UNL     1      42.733 -13.478   4.465  1.00  0.00     0.040 A 
HETATM   13  C   UNL     1      43.458 -12.333   4.808  1.00  0.00     0.040 A 
BRANCH  11  14
HETATM   14  O   UNL     1      41.885 -15.676   5.143  1.00  0.00    -0.311 OA
BRANCH  14  15
HETATM   15  C   UNL     1      42.534 -16.654   4.429  1.00  0.00     0.076 A 
HETATM   16  C   UNL     1      42.178 -16.809   3.089  1.00  0.00     0.037 A 
HETATM   17  C   UNL     1      42.827 -17.763   2.305  1.00  0.00     0.003 A 
HETATM   18  C   UNL     1      43.839 -18.549   2.858  1.00  0.00     0.000 A 
HETATM   19  C   UNL     1      44.212 -18.373   4.191  1.00  0.00     0.003 A 
HETATM   20  C   UNL     1      43.568 -17.417   4.977  1.00  0.00     0.037 A 
ENDBRANCH  14  15
ENDBRANCH  11  14
ENDBRANCH   7   8
ENDBRANCH   4   7
BRANCH   1  21
HETATM   21  C   UNL     1      42.996  -8.601  11.226  1.00  0.00     0.253 C 
HETATM   22  N   UNL     1      41.652  -8.311  11.351  1.00  0.00    -0.354 N 
HETATM   23  H   UNL     1      40.996  -8.722  10.703  1.00  0.00     0.162 HD
HETATM   24  O   UNL     1      43.813  -8.383  12.112  1.00  0.00    -0.268 OA
BRANCH  22  25
HETATM   25  C   UNL     1      41.087  -7.872  12.619  1.00  0.00     0.154 C 
BRANCH  25  26
HETATM   26  C   UNL     1      40.761  -8.978  13.637  1.00  0.00     0.132 C 
HETATM   27  C   UNL     1      40.251 -10.252  12.977  1.00  0.00     0.041 C 
BRANCH  26  28
HETATM   28  O   UNL     1      41.962  -9.292  14.351  1.00  0.00    -0.394 OA
HETATM   29  H   UNL     1      42.281 -10.144  14.005  1.00  0.00     0.210 HD
ENDBRANCH  26  28
ENDBRANCH  25  26
ENDBRANCH  22  25
ENDBRANCH   1  21
TORSDOF 8
ENDMDL
MODEL 7
REMARK VINA RESULT:      -8.0      2.317      3.038
REMARK  8 active torsions:
REMARK  status: ('A' for Active; 'I' for Inactive)
REMARK    1  A    between atoms: C_2  and  O_3 
REMARK    2  A    between atoms: C_2  and  C_4 
REMARK    3  A    between atoms: C_4  and  N_5 
REMARK       I    between atoms: N_5  and  C_6 
REMARK    4  A    between atoms: C_6  and  C_7 
REMARK    5  A    between atoms: C_10  and  O_11 
REMARK    6  A    between atoms: O_11  and  C_12 
REMARK    7  A    between atoms: C_15  and  O_16 
REMARK    8  A    between atoms: O_16  and  C_17 
ROOT
HETATM    1  C   UNL     1      39.683 -11.542   6.020  1.00  0.00     0.049 A 
HETATM    2  C   UNL     1      40.142 -12.847   5.894  1.00  0.00     0.136 A 
HETATM    3  N   UNL     1      40.277 -13.496   4.711  1.00  0.00    -0.236 NA
HETATM    4  C   UNL     1      39.922 -12.812   3.599  1.00  0.00     0.169 A 
HETATM    5  C   UNL     1      39.397 -11.529   3.620  1.00  0.00     0.059 A 
HETATM    6  C   UNL     1      39.286 -10.884   4.851  1.00  0.00     0.023 A 
ENDROOT
BRANCH   4   7
HETATM    7  O   UNL     1      40.016 -13.429   2.363  1.00  0.00    -0.292 OA
BRANCH   7   8
HETATM    8  C   UNL     1      40.875 -14.497   2.237  1.00  0.00     0.078 A 
HETATM    9  C   UNL     1      42.219 -14.179   2.030  1.00  0.00     0.040 A 
HETATM   10  C   UNL     1      43.178 -15.191   1.953  1.00  0.00     0.040 A 
HETATM   11  C   UNL     1      42.800 -16.527   2.104  1.00  0.00     0.076 A 
HETATM   12  C   UNL     1      41.455 -16.850   2.301  1.00  0.00     0.040 A 
HETATM   13  C   UNL     1      40.498 -15.836   2.388  1.00  0.00     0.040 A 
BRANCH  11  14
HETATM   14  O   UNL     1      43.808 -17.459   1.979  1.00  0.00    -0.311 OA
BRANCH  14  15
HETATM   15  C   UNL     1      43.869 -18.475   2.903  1.00  0.00     0.076 A 
HETATM   16  C   UNL     1      44.041 -18.112   4.239  1.00  0.00     0.037 A 
HETATM   17  C   UNL     1      44.077 -19.097   5.226  1.00  0.00     0.003 A 
HETATM   18  C   UNL     1      43.927 -20.440   4.877  1.00  0.00     0.000 A 
HETATM   19  C   UNL     1      43.729 -20.798   3.542  1.00  0.00     0.003 A 
HETATM   20  C   UNL     1      43.688 -19.815   2.553  1.00  0.00     0.037 A 
ENDBRANCH  14  15
ENDBRANCH  11  14
ENDBRANCH   7   8
ENDBRANCH   4   7
BRANCH   1  21
HETATM   21  C   UNL     1      39.583 -10.828   7.319  1.00  0.00     0.253 C 
HETATM   22  N   UNL     1      40.657 -10.050   7.704  1.00  0.00    -0.354 N 
HETATM   23  H   UNL     1      41.365  -9.815   7.024  1.00  0.00     0.162 HD
HETATM   24  O   UNL     1      38.556 -10.927   7.981  1.00  0.00    -0.268 OA
BRANCH  22  25
HETATM   25  C   UNL     1      40.573  -9.160   8.853  1.00  0.00     0.154 C 
BRANCH  25  26
HETATM   26  C   UNL     1      41.741  -9.226   9.851  1.00  0.00     0.132 C 
HETATM   27  C   UNL     1      42.090  -7.866  10.440  1.00  0.00     0.041 C 
BRANCH  26  28
HETATM   28  O   UNL     1      41.361 -10.095  10.924  1.00  0.00    -0.394 OA
HETATM   29  H   UNL     1      40.430  -9.896  11.131  1.00  0.00     0.210 HD
ENDBRANCH  26  28
ENDBRANCH  25  26
ENDBRANCH  22  25
ENDBRANCH   1  21
TORSDOF 8
ENDMDL
MODEL 8
REMARK VINA RESULT:      -8.0      2.163      2.851
REMARK  8 active torsions:
REMARK  status: ('A' for Active; 'I' for Inactive)
REMARK    1  A    between atoms: C_2  and  O_3 
REMARK    2  A    between atoms: C_2  and  C_4 
REMARK    3  A    between atoms: C_4  and  N_5 
REMARK       I    between atoms: N_5  and  C_6 
REMARK    4  A    between atoms: C_6  and  C_7 
REMARK    5  A    between atoms: C_10  and  O_11 
REMARK    6  A    between atoms: O_11  and  C_12 
REMARK    7  A    between atoms: C_15  and  O_16 
REMARK    8  A    between atoms: O_16  and  C_17 
ROOT
HETATM    1  C   UNL     1      39.740 -11.134   5.949  1.00  0.00     0.049 A 
HETATM    2  C   UNL     1      39.333 -10.685   4.700  1.00  0.00     0.136 A 
HETATM    3  N   UNL     1      39.300 -11.458   3.586  1.00  0.00    -0.236 NA
HETATM    4  C   UNL     1      39.706 -12.741   3.726  1.00  0.00     0.169 A 
HETATM    5  C   UNL     1      40.187 -13.271   4.913  1.00  0.00     0.059 A 
HETATM    6  C   UNL     1      40.194 -12.454   6.042  1.00  0.00     0.023 A 
ENDROOT
BRANCH   4   7
HETATM    7  O   UNL     1      39.716 -13.575   2.620  1.00  0.00    -0.292 OA
BRANCH   7   8
HETATM    8  C   UNL     1      40.764 -14.457   2.484  1.00  0.00     0.078 A 
HETATM    9  C   UNL     1      40.439 -15.811   2.594  1.00  0.00     0.040 A 
HETATM   10  C   UNL     1      41.421 -16.787   2.408  1.00  0.00     0.040 A 
HETATM   11  C   UNL     1      42.728 -16.415   2.089  1.00  0.00     0.076 A 
HETATM   12  C   UNL     1      43.058 -15.061   1.988  1.00  0.00     0.040 A 
HETATM   13  C   UNL     1      42.073 -14.085   2.164  1.00  0.00     0.040 A 
BRANCH  11  14
HETATM   14  O   UNL     1      43.637 -17.443   1.957  1.00  0.00    -0.311 OA
BRANCH  14  15
HETATM   15  C   UNL     1      43.730 -18.359   2.977  1.00  0.00     0.076 A 
HETATM   16  C   UNL     1      43.718 -19.710   2.625  1.00  0.00     0.037 A 
HETATM   17  C   UNL     1      43.842 -20.685   3.614  1.00  0.00     0.003 A 
HETATM   18  C   UNL     1      43.994 -20.309   4.949  1.00  0.00     0.000 A 
HETATM   19  C   UNL     1      44.032 -18.958   5.296  1.00  0.00     0.003 A 
HETATM   20  C   UNL     1      43.911 -17.979   4.309  1.00  0.00     0.037 A 
ENDBRANCH  14  15
ENDBRANCH  11  14
ENDBRANCH   7   8
ENDBRANCH   4   7
BRANCH   1  21
HETATM   21  C   UNL     1      39.729 -10.286   7.169  1.00  0.00     0.253 C 
HETATM   22  N   UNL     1      40.913 -10.154   7.866  1.00  0.00    -0.354 N 
HETATM   23  H   UNL     1      41.777 -10.443   7.430  1.00  0.00     0.162 HD
HETATM   24  O   UNL     1      38.693  -9.717   7.495  1.00  0.00    -0.268 OA
BRANCH  22  25
HETATM   25  C   UNL     1      41.051  -9.192   8.950  1.00  0.00     0.154 C 
BRANCH  25  26
HETATM   26  C   UNL     1      42.364  -9.249   9.748  1.00  0.00     0.132 C 
HETATM   27  C   UNL     1      42.580  -8.016  10.615  1.00  0.00     0.041 C 
BRANCH  26  28
HETATM   28  O   UNL     1      42.315 -10.395  10.604  1.00  0.00    -0.394 OA
HETATM   29  H   UNL     1      42.300 -11.179  10.026  1.00  0.00     0.210 HD
ENDBRANCH  26  28
ENDBRANCH  25  26
ENDBRANCH  22  25
ENDBRANCH   1  21
TORSDOF 8
ENDMDL
MODEL 9
REMARK VINA RESULT:      -7.4      1.669      2.502
REMARK  8 active torsions:
REMARK  status: ('A' for Active; 'I' for Inactive)
REMARK    1  A    between atoms: C_2  and  O_3 
REMARK    2  A    between atoms: C_2  and  C_4 
REMARK    3  A    between atoms: C_4  and  N_5 
REMARK       I    between atoms: N_5  and  C_6 
REMARK    4  A    between atoms: C_6  and  C_7 
REMARK    5  A    between atoms: C_10  and  O_11 
REMARK    6  A    between atoms: O_11  and  C_12 
REMARK    7  A    between atoms: C_15  and  O_16 
REMARK    8  A    between atoms: O_16  and  C_17 
ROOT
HETATM    1  C   UNL     1      42.998  -9.811   8.450  1.00  0.00     0.049 A 
HETATM    2  C   UNL     1      43.876 -10.623   7.744  1.00  0.00     0.136 A 
HETATM    3  N   UNL     1      43.749 -10.920   6.427  1.00  0.00    -0.236 NA
HETATM    4  C   UNL     1      42.682 -10.390   5.786  1.00  0.00     0.169 A 
HETATM    5  C   UNL     1      41.716  -9.617   6.411  1.00  0.00     0.059 A 
HETATM    6  C   UNL     1      41.884  -9.317   7.762  1.00  0.00     0.023 A 
ENDROOT
BRANCH   4   7
HETATM    7  O   UNL     1      42.484 -10.674   4.446  1.00  0.00    -0.292 OA
BRANCH   7   8
HETATM    8  C   UNL     1      42.379 -11.996   4.073  1.00  0.00     0.078 A 
HETATM    9  C   UNL     1      41.242 -12.668   4.526  1.00  0.00     0.040 A 
HETATM   10  C   UNL     1      41.012 -13.993   4.150  1.00  0.00     0.040 A 
HETATM   11  C   UNL     1      41.907 -14.646   3.299  1.00  0.00     0.076 A 
HETATM   12  C   UNL     1      43.050 -13.979   2.852  1.00  0.00     0.040 A 
HETATM   13  C   UNL     1      43.274 -12.650   3.221  1.00  0.00     0.040 A 
BRANCH  11  14
HETATM   14  O   UNL     1      41.617 -15.961   3.008  1.00  0.00    -0.311 OA
BRANCH  14  15
HETATM   15  C   UNL     1      42.510 -16.926   3.411  1.00  0.00     0.076 A 
HETATM   16  C   UNL     1      43.003 -17.787   2.431  1.00  0.00     0.037 A 
HETATM   17  C   UNL     1      43.938 -18.765   2.774  1.00  0.00     0.003 A 
HETATM   18  C   UNL     1      44.387 -18.868   4.091  1.00  0.00     0.000 A 
HETATM   19  C   UNL     1      43.912 -17.988   5.064  1.00  0.00     0.003 A 
HETATM   20  C   UNL     1      42.980 -17.007   4.724  1.00  0.00     0.037 A 
ENDBRANCH  14  15
ENDBRANCH  11  14
ENDBRANCH   7   8
ENDBRANCH   4   7
BRANCH   1  21
HETATM   21  C   UNL     1      43.176  -9.459   9.882  1.00  0.00     0.253 C 
HETATM   22  N   UNL     1      42.053  -9.081  10.591  1.00  0.00    -0.354 N 
HETATM   23  H   UNL     1      41.140  -9.257  10.199  1.00  0.00     0.162 HD
HETATM   24  O   UNL     1      44.290  -9.543  10.386  1.00  0.00    -0.268 OA
BRANCH  22  25
HETATM   25  C   UNL     1      42.092  -8.914  12.037  1.00  0.00     0.154 C 
BRANCH  25  26
HETATM   26  C   UNL     1      40.833  -9.349  12.805  1.00  0.00     0.132 C 
HETATM   27  C   UNL     1      39.567  -8.683  12.285  1.00  0.00     0.041 C 
BRANCH  26  28
HETATM   28  O   UNL     1      40.688 -10.766  12.655  1.00  0.00    -0.394 OA
HETATM   29  H   UNL     1      41.108 -11.177  13.432  1.00  0.00     0.210 HD
ENDBRANCH  26  28
ENDBRANCH  25  26
ENDBRANCH  22  25
ENDBRANCH   1  21
TORSDOF 8
ENDMDL
MODEL 10
REMARK VINA RESULT:      -7.4     16.262     18.371
REMARK  8 active torsions:
REMARK  status: ('A' for Active; 'I' for Inactive)
REMARK    1  A    between atoms: C_2  and  O_3 
REMARK    2  A    between atoms: C_2  and  C_4 
REMARK    3  A    between atoms: C_4  and  N_5 
REMARK       I    between atoms: N_5  and  C_6 
REMARK    4  A    between atoms: C_6  and  C_7 
REMARK    5  A    between atoms: C_10  and  O_11 
REMARK    6  A    between atoms: O_11  and  C_12 
REMARK    7  A    between atoms: C_15  and  O_16 
REMARK    8  A    between atoms: O_16  and  C_17 
ROOT
HETATM    1  C   UNL     1      49.523 -30.896   3.799  1.00  0.00     0.049 A 
HETATM    2  C   UNL     1      48.447 -31.329   3.036  1.00  0.00     0.136 A 
HETATM    3  N   UNL     1      47.544 -30.502   2.454  1.00  0.00    -0.236 NA
HETATM    4  C   UNL     1      47.718 -29.175   2.655  1.00  0.00     0.169 A 
HETATM    5  C   UNL     1      48.723 -28.643   3.448  1.00  0.00     0.059 A 
HETATM    6  C   UNL     1      49.644 -29.519   4.020  1.00  0.00     0.023 A 
ENDROOT
BRANCH   4   7
HETATM    7  O   UNL     1      46.816 -28.280   2.105  1.00  0.00    -0.292 OA
BRANCH   7   8
HETATM    8  C   UNL     1      46.641 -28.295   0.739  1.00  0.00     0.078 A 
HETATM    9  C   UNL     1      45.351 -28.590   0.293  1.00  0.00     0.040 A 
HETATM   10  C   UNL     1      45.057 -28.567  -1.072  1.00  0.00     0.040 A 
HETATM   11  C   UNL     1      46.047 -28.227  -1.997  1.00  0.00     0.076 A 
HETATM   12  C   UNL     1      47.341 -27.941  -1.554  1.00  0.00     0.040 A 
HETATM   13  C   UNL     1      47.631 -27.955  -0.187  1.00  0.00     0.040 A 
BRANCH  11  14
HETATM   14  O   UNL     1      45.675 -28.264  -3.323  1.00  0.00    -0.311 OA
BRANCH  14  15
HETATM   15  C   UNL     1      45.393 -29.487  -3.884  1.00  0.00     0.076 A 
HETATM   16  C   UNL     1      44.284 -29.562  -4.727  1.00  0.00     0.037 A 
HETATM   17  C   UNL     1      43.968 -30.770  -5.350  1.00  0.00     0.003 A 
HETATM   18  C   UNL     1      44.769 -31.893  -5.142  1.00  0.00     0.000 A 
HETATM   19  C   UNL     1      45.893 -31.808  -4.319  1.00  0.00     0.003 A 
HETATM   20  C   UNL     1      46.214 -30.601  -3.697  1.00  0.00     0.037 A 
ENDBRANCH  14  15
ENDBRANCH  11  14
ENDBRANCH   7   8
ENDBRANCH   4   7
BRANCH   1  21
HETATM   21  C   UNL     1      50.530 -31.813   4.394  1.00  0.00     0.253 C 
HETATM   22  N   UNL     1      50.870 -31.616   5.718  1.00  0.00    -0.354 N 
HETATM   23  H   UNL     1      50.292 -31.019   6.292  1.00  0.00     0.162 HD
HETATM   24  O   UNL     1      50.994 -32.718   3.711  1.00  0.00    -0.268 OA
BRANCH  22  25
HETATM   25  C   UNL     1      51.688 -32.579   6.441  1.00  0.00     0.154 C 
BRANCH  25  26
HETATM   26  C   UNL     1      53.006 -32.047   7.028  1.00  0.00     0.132 C 
HETATM   27  C   UNL     1      54.234 -32.682   6.388  1.00  0.00     0.041 C 
BRANCH  26  28
HETATM   28  O   UNL     1      53.059 -30.636   6.794  1.00  0.00    -0.394 OA
HETATM   29  H   UNL     1      52.422 -30.443   6.084  1.00  0.00     0.210 HD
ENDBRANCH  26  28
ENDBRANCH  25  26
ENDBRANCH  22  25
ENDBRANCH   1  21
TORSDOF 8
ENDMDL
