MODEL 1
REMARK VINA RESULT:      -8.9      0.000      0.000
REMARK  7 active torsions:
REMARK  status: ('A' for Active; 'I' for Inactive)
REMARK    1  A    between atoms: C_2  and  C_3 
REMARK    2  A    between atoms: C_3  and  C_4 
REMARK       I    between atoms: C_4  and  N_5 
REMARK    3  A    between atoms: N_5  and  C_6 
REMARK    4  A    between atoms: C_6  and  C_7 
REMARK    5  A    between atoms: C_9  and  N_10 
REMARK    6  A    between atoms: N_10  and  C_11 
REMARK    7  A    between atoms: C_27  and  N_28 
ROOT
HETATM    1  C   UNL     1      43.330 -14.594   7.242  1.00  0.00     0.203 C 
ENDROOT
BRANCH   1   2
HETATM    2  N   UNL     1      42.847 -13.262   6.917  1.00  0.00    -0.354 N 
HETATM    3  C   UNL     1      43.713 -12.206   6.778  1.00  0.00     0.222 C 
HETATM    4  O   UNL     1      44.931 -12.337   6.867  1.00  0.00    -0.273 OA
HETATM    5  H   UNL     1      41.852 -13.105   7.042  1.00  0.00     0.162 HD
BRANCH   3   6
HETATM    6  C   UNL     1      43.043 -10.880   6.448  1.00  0.00     0.141 C 
BRANCH   6   7
HETATM    7  C   UNL     1      42.447 -10.805   5.063  1.00  0.00    -0.049 A 
HETATM    8  C   UNL     1      43.145 -11.276   3.948  1.00  0.00     0.010 A 
HETATM    9  C   UNL     1      42.557 -11.267   2.676  1.00  0.00     0.030 A 
HETATM   10  C   UNL     1      41.249 -10.801   2.479  1.00  0.00     0.039 A 
HETATM   11  C   UNL     1      40.561 -10.320   3.599  1.00  0.00     0.030 A 
HETATM   12  C   UNL     1      41.149 -10.323   4.872  1.00  0.00     0.010 A 
BRANCH  10  13
HETATM   13  N   UNL     1      40.654 -10.839   1.192  1.00  0.00    -0.298 N 
HETATM   14  C   UNL     1      39.325 -11.181   0.880  1.00  0.00     0.323 C 
HETATM   15  O   UNL     1      38.410 -11.534   1.605  1.00  0.00    -0.247 OA
HETATM   16  N   UNL     1      39.170 -11.071  -0.499  1.00  0.00    -0.341 N 
HETATM   17  C   UNL     1      40.435 -10.896  -1.143  1.00  0.00     0.144 C 
HETATM   18  H   UNL     1      38.330 -11.441  -0.925  1.00  0.00     0.164 HD
HETATM   19  C   UNL     1      41.353 -10.448  -0.017  1.00  0.00     0.153 C 
ENDBRANCH  10  13
ENDBRANCH   6   7
ENDBRANCH   3   6
ENDBRANCH   1   2
BRANCH   1  20
HETATM   20  C   UNL     1      43.386 -15.503   6.032  1.00  0.00     0.146 A 
HETATM   21  N   UNL     1      43.174 -14.942   4.825  1.00  0.00    -0.219 NA
HETATM   22  C   UNL     1      43.191 -15.750   3.751  1.00  0.00     0.118 A 
HETATM   23  C   UNL     1      43.456 -17.126   3.862  1.00  0.00     0.035 A 
HETATM   24  C   UNL     1      43.661 -17.602   5.164  1.00  0.00     0.072 A 
HETATM   25  C   UNL     1      43.537 -18.026   2.769  1.00  0.00     0.041 A 
HETATM   26  N   UNL     1      43.615 -16.810   6.237  1.00  0.00    -0.231 NA
HETATM   27  C   UNL     1      43.928 -18.954   5.348  1.00  0.00     0.034 A 
HETATM   28  C   UNL     1      44.001 -19.845   4.273  1.00  0.00     0.026 A 
HETATM   29  C   UNL     1      43.806 -19.375   2.983  1.00  0.00     0.035 A 
HETATM   30 CL   UNL     1      43.900 -20.455   1.650  1.00  0.00    -0.084 Cl
BRANCH  22  31
HETATM   31  N   UNL     1      42.941 -15.199   2.474  1.00  0.00    -0.272 NA
HETATM   32  H   UNL     1      43.220 -15.892   1.783  1.00  0.00     0.129 HD
BRANCH  31  33
HETATM   33  C   UNL     1      41.585 -14.708   2.230  1.00  0.00     0.061 C 
HETATM   34  C   UNL     1      41.399 -14.300   0.763  1.00  0.00     0.020 C 
HETATM   35  C   UNL     1      39.966 -14.688   0.440  1.00  0.00     0.002 C 
HETATM   36  C   UNL     1      39.813 -16.021   1.148  1.00  0.00     0.002 C 
HETATM   37  C   UNL     1      40.561 -15.837   2.464  1.00  0.00     0.020 C 
ENDBRANCH  31  33
ENDBRANCH  22  31
ENDBRANCH   1  20
TORSDOF 7
ENDMDL
MODEL 2
REMARK VINA RESULT:      -8.7      4.416      7.107
REMARK  7 active torsions:
REMARK  status: ('A' for Active; 'I' for Inactive)
REMARK    1  A    between atoms: C_2  and  C_3 
REMARK    2  A    between atoms: C_3  and  C_4 
REMARK       I    between atoms: C_4  and  N_5 
REMARK    3  A    between atoms: N_5  and  C_6 
REMARK    4  A    between atoms: C_6  and  C_7 
REMARK    5  A    between atoms: C_9  and  N_10 
REMARK    6  A    between atoms: N_10  and  C_11 
REMARK    7  A    between atoms: C_27  and  N_28 
ROOT
HETATM    1  C   UNL     1      42.183 -12.240   5.891  1.00  0.00     0.203 C 
ENDROOT
BRANCH   1   2
HETATM    2  N   UNL     1      43.173 -12.034   6.935  1.00  0.00    -0.354 N 
HETATM    3  C   UNL     1      43.475 -10.775   7.391  1.00  0.00     0.222 C 
HETATM    4  O   UNL     1      42.894  -9.771   6.985  1.00  0.00    -0.273 OA
HETATM    5  H   UNL     1      43.789 -12.817   7.126  1.00  0.00     0.162 HD
BRANCH   3   6
HETATM    6  C   UNL     1      44.539 -10.735   8.476  1.00  0.00     0.141 C 
BRANCH   6   7
HETATM    7  C   UNL     1      44.085 -10.124   9.781  1.00  0.00    -0.049 A 
HETATM    8  C   UNL     1      43.872  -8.748   9.899  1.00  0.00     0.010 A 
HETATM    9  C   UNL     1      43.383  -8.197  11.091  1.00  0.00     0.030 A 
HETATM   10  C   UNL     1      43.078  -9.003  12.198  1.00  0.00     0.039 A 
HETATM   11  C   UNL     1      43.307 -10.378  12.075  1.00  0.00     0.030 A 
HETATM   12  C   UNL     1      43.800 -10.932  10.885  1.00  0.00     0.010 A 
BRANCH  10  13
HETATM   13  N   UNL     1      42.544  -8.433  13.382  1.00  0.00    -0.298 N 
HETATM   14  C   UNL     1      41.375  -8.825  14.061  1.00  0.00     0.323 C 
HETATM   15  O   UNL     1      40.562  -9.695  13.795  1.00  0.00    -0.247 OA
HETATM   16  N   UNL     1      41.237  -8.006  15.178  1.00  0.00    -0.341 N 
HETATM   17  C   UNL     1      42.161  -6.915  15.129  1.00  0.00     0.144 C 
HETATM   18  H   UNL     1      40.367  -8.027  15.692  1.00  0.00     0.164 HD
HETATM   19  C   UNL     1      43.200  -7.369  14.116  1.00  0.00     0.153 C 
ENDBRANCH  10  13
ENDBRANCH   6   7
ENDBRANCH   3   6
ENDBRANCH   1   2
BRANCH   1  20
HETATM   20  C   UNL     1      42.465 -13.471   5.056  1.00  0.00     0.146 A 
HETATM   21  N   UNL     1      42.237 -13.388   3.730  1.00  0.00    -0.219 NA
HETATM   22  C   UNL     1      42.455 -14.487   2.990  1.00  0.00     0.118 A 
HETATM   23  C   UNL     1      42.941 -15.679   3.556  1.00  0.00     0.035 A 
HETATM   24  C   UNL     1      43.142 -15.654   4.943  1.00  0.00     0.072 A 
HETATM   25  C   UNL     1      43.238 -16.859   2.828  1.00  0.00     0.041 A 
HETATM   26  N   UNL     1      42.898 -14.575   5.688  1.00  0.00    -0.231 NA
HETATM   27  C   UNL     1      43.620 -16.799   5.569  1.00  0.00     0.034 A 
HETATM   28  C   UNL     1      43.907 -17.966   4.856  1.00  0.00     0.026 A 
HETATM   29  C   UNL     1      43.716 -17.991   3.482  1.00  0.00     0.035 A 
HETATM   30 CL   UNL     1      44.072 -19.415   2.589  1.00  0.00    -0.084 Cl
BRANCH  22  31
HETATM   31  N   UNL     1      42.196 -14.442   1.601  1.00  0.00    -0.272 NA
HETATM   32  H   UNL     1      42.379 -15.370   1.226  1.00  0.00     0.129 HD
BRANCH  31  33
HETATM   33  C   UNL     1      40.879 -13.948   1.201  1.00  0.00     0.061 C 
HETATM   34  C   UNL     1      40.997 -12.875   0.111  1.00  0.00     0.020 C 
HETATM   35  C   UNL     1      39.791 -13.107  -0.784  1.00  0.00     0.002 C 
HETATM   36  C   UNL     1      39.716 -14.621  -0.856  1.00  0.00     0.002 C 
HETATM   37  C   UNL     1      40.059 -15.084   0.556  1.00  0.00     0.020 C 
ENDBRANCH  31  33
ENDBRANCH  22  31
ENDBRANCH   1  20
TORSDOF 7
ENDMDL
MODEL 3
REMARK VINA RESULT:      -8.7      3.341      5.411
REMARK  7 active torsions:
REMARK  status: ('A' for Active; 'I' for Inactive)
REMARK    1  A    between atoms: C_2  and  C_3 
REMARK    2  A    between atoms: C_3  and  C_4 
REMARK       I    between atoms: C_4  and  N_5 
REMARK    3  A    between atoms: N_5  and  C_6 
REMARK    4  A    between atoms: C_6  and  C_7 
REMARK    5  A    between atoms: C_9  and  N_10 
REMARK    6  A    between atoms: N_10  and  C_11 
REMARK    7  A    between atoms: C_27  and  N_28 
ROOT
HETATM    1  C   UNL     1      43.319 -14.452   7.219  1.00  0.00     0.203 C 
ENDROOT
BRANCH   1   2
HETATM    2  N   UNL     1      42.928 -13.097   6.864  1.00  0.00    -0.354 N 
HETATM    3  C   UNL     1      43.866 -12.110   6.691  1.00  0.00     0.222 C 
HETATM    4  O   UNL     1      45.072 -12.325   6.774  1.00  0.00    -0.273 OA
HETATM    5  H   UNL     1      41.949 -12.867   6.993  1.00  0.00     0.162 HD
BRANCH   3   6
HETATM    6  C   UNL     1      43.289 -10.749   6.332  1.00  0.00     0.141 C 
BRANCH   6   7
HETATM    7  C   UNL     1      42.486 -10.097   7.432  1.00  0.00    -0.049 A 
HETATM    8  C   UNL     1      41.121  -9.843   7.278  1.00  0.00     0.010 A 
HETATM    9  C   UNL     1      40.367  -9.303   8.328  1.00  0.00     0.030 A 
HETATM   10  C   UNL     1      40.949  -9.011   9.571  1.00  0.00     0.039 A 
HETATM   11  C   UNL     1      42.319  -9.257   9.712  1.00  0.00     0.030 A 
HETATM   12  C   UNL     1      43.078  -9.793   8.662  1.00  0.00     0.010 A 
BRANCH  10  13
HETATM   13  N   UNL     1      40.162  -8.504  10.637  1.00  0.00    -0.298 N 
HETATM   14  C   UNL     1      39.511  -9.247  11.639  1.00  0.00     0.323 C 
HETATM   15  O   UNL     1      39.447 -10.452  11.813  1.00  0.00    -0.247 OA
HETATM   16  N   UNL     1      38.869  -8.346  12.485  1.00  0.00    -0.341 N 
HETATM   17  C   UNL     1      38.878  -7.028  11.930  1.00  0.00     0.144 C 
HETATM   18  H   UNL     1      38.209  -8.703  13.164  1.00  0.00     0.164 HD
HETATM   19  C   UNL     1      39.976  -7.088  10.880  1.00  0.00     0.153 C 
ENDBRANCH  10  13
ENDBRANCH   6   7
ENDBRANCH   3   6
ENDBRANCH   1   2
BRANCH   1  20
HETATM   20  C   UNL     1      43.373 -15.374   6.020  1.00  0.00     0.146 A 
HETATM   21  N   UNL     1      43.144 -14.831   4.808  1.00  0.00    -0.219 NA
HETATM   22  C   UNL     1      43.160 -15.651   3.744  1.00  0.00     0.118 A 
HETATM   23  C   UNL     1      43.442 -17.023   3.869  1.00  0.00     0.035 A 
HETATM   24  C   UNL     1      43.664 -17.481   5.175  1.00  0.00     0.072 A 
HETATM   25  C   UNL     1      43.522 -17.936   2.786  1.00  0.00     0.041 A 
HETATM   26  N   UNL     1      43.619 -16.677   6.239  1.00  0.00    -0.231 NA
HETATM   27  C   UNL     1      43.947 -18.827   5.372  1.00  0.00     0.034 A 
HETATM   28  C   UNL     1      44.020 -19.731   4.308  1.00  0.00     0.026 A 
HETATM   29  C   UNL     1      43.808 -19.278   3.013  1.00  0.00     0.035 A 
HETATM   30 CL   UNL     1      43.901 -20.374   1.692  1.00  0.00    -0.084 Cl
BRANCH  22  31
HETATM   31  N   UNL     1      42.893 -15.118   2.463  1.00  0.00    -0.272 NA
HETATM   32  H   UNL     1      43.130 -15.834   1.779  1.00  0.00     0.129 HD
BRANCH  31  33
HETATM   33  C   UNL     1      41.547 -14.590   2.246  1.00  0.00     0.061 C 
HETATM   34  C   UNL     1      41.420 -13.949   0.857  1.00  0.00     0.020 C 
HETATM   35  C   UNL     1      40.003 -14.274   0.417  1.00  0.00     0.002 C 
HETATM   36  C   UNL     1      39.824 -15.704   0.893  1.00  0.00     0.002 C 
HETATM   37  C   UNL     1      40.517 -15.738   2.252  1.00  0.00     0.020 C 
ENDBRANCH  31  33
ENDBRANCH  22  31
ENDBRANCH   1  20
TORSDOF 7
ENDMDL
MODEL 4
REMARK VINA RESULT:      -8.6      2.741      7.008
REMARK  7 active torsions:
REMARK  status: ('A' for Active; 'I' for Inactive)
REMARK    1  A    between atoms: C_2  and  C_3 
REMARK    2  A    between atoms: C_3  and  C_4 
REMARK       I    between atoms: C_4  and  N_5 
REMARK    3  A    between atoms: N_5  and  C_6 
REMARK    4  A    between atoms: C_6  and  C_7 
REMARK    5  A    between atoms: C_9  and  N_10 
REMARK    6  A    between atoms: N_10  and  C_11 
REMARK    7  A    between atoms: C_27  and  N_28 
ROOT
HETATM    1  C   UNL     1      43.393 -11.272   4.016  1.00  0.00     0.203 C 
ENDROOT
BRANCH   1   2
HETATM    2  N   UNL     1      43.683 -12.377   4.914  1.00  0.00    -0.354 N 
HETATM    3  C   UNL     1      42.911 -12.611   6.026  1.00  0.00     0.222 C 
HETATM    4  O   UNL     1      41.916 -11.941   6.289  1.00  0.00    -0.273 OA
HETATM    5  H   UNL     1      44.601 -12.799   4.821  1.00  0.00     0.162 HD
BRANCH   3   6
HETATM    6  C   UNL     1      43.357 -13.799   6.864  1.00  0.00     0.141 C 
BRANCH   6   7
HETATM    7  C   UNL     1      43.386 -15.115   6.123  1.00  0.00    -0.049 A 
HETATM    8  C   UNL     1      42.300 -15.535   5.351  1.00  0.00     0.010 A 
HETATM    9  C   UNL     1      42.362 -16.723   4.610  1.00  0.00     0.030 A 
HETATM   10  C   UNL     1      43.514 -17.523   4.605  1.00  0.00     0.039 A 
HETATM   11  C   UNL     1      44.593 -17.101   5.392  1.00  0.00     0.030 A 
HETATM   12  C   UNL     1      44.532 -15.915   6.138  1.00  0.00     0.010 A 
BRANCH  10  13
HETATM   13  N   UNL     1      43.575 -18.700   3.817  1.00  0.00    -0.298 N 
HETATM   14  C   UNL     1      43.959 -19.986   4.238  1.00  0.00     0.323 C 
HETATM   15  O   UNL     1      44.338 -20.378   5.329  1.00  0.00    -0.247 OA
HETATM   16  N   UNL     1      43.859 -20.840   3.143  1.00  0.00    -0.341 N 
HETATM   17  C   UNL     1      43.646 -20.101   1.937  1.00  0.00     0.144 C 
HETATM   18  H   UNL     1      44.256 -21.768   3.212  1.00  0.00     0.164 HD
HETATM   19  C   UNL     1      43.166 -18.744   2.426  1.00  0.00     0.153 C 
ENDBRANCH  10  13
ENDBRANCH   6   7
ENDBRANCH   3   6
ENDBRANCH   1   2
BRANCH   1  20
HETATM   20  C   UNL     1      42.550 -11.692   2.831  1.00  0.00     0.146 A 
HETATM   21  N   UNL     1      42.158 -10.727   1.975  1.00  0.00    -0.219 NA
HETATM   22  C   UNL     1      41.384 -11.089   0.939  1.00  0.00     0.118 A 
HETATM   23  C   UNL     1      41.017 -12.429   0.720  1.00  0.00     0.035 A 
HETATM   24  C   UNL     1      41.478 -13.348   1.672  1.00  0.00     0.072 A 
HETATM   25  C   UNL     1      40.243 -12.888  -0.377  1.00  0.00     0.041 A 
HETATM   26  N   UNL     1      42.222 -12.990   2.720  1.00  0.00    -0.231 NA
HETATM   27  C   UNL     1      41.151 -14.691   1.518  1.00  0.00     0.034 A 
HETATM   28  C   UNL     1      40.383 -15.146   0.443  1.00  0.00     0.026 A 
HETATM   29  C   UNL     1      39.932 -14.239  -0.505  1.00  0.00     0.035 A 
HETATM   30 CL   UNL     1      38.993 -14.782  -1.838  1.00  0.00    -0.084 Cl
BRANCH  22  31
HETATM   31  N   UNL     1      40.931 -10.098   0.040  1.00  0.00    -0.272 NA
HETATM   32  H   UNL     1      40.784  -9.244   0.575  1.00  0.00     0.129 HD
BRANCH  31  33
HETATM   33  C   UNL     1      41.762  -9.859  -1.139  1.00  0.00     0.061 C 
HETATM   34  C   UNL     1      40.913  -9.812  -2.416  1.00  0.00     0.020 C 
HETATM   35  C   UNL     1      41.587  -8.761  -3.282  1.00  0.00     0.002 C 
HETATM   36  C   UNL     1      41.963  -7.689  -2.275  1.00  0.00     0.002 C 
HETATM   37  C   UNL     1      42.427  -8.470  -1.050  1.00  0.00     0.020 C 
ENDBRANCH  31  33
ENDBRANCH  22  31
ENDBRANCH   1  20
TORSDOF 7
ENDMDL
MODEL 5
REMARK VINA RESULT:      -8.6      4.842      8.097
REMARK  7 active torsions:
REMARK  status: ('A' for Active; 'I' for Inactive)
REMARK    1  A    between atoms: C_2  and  C_3 
REMARK    2  A    between atoms: C_3  and  C_4 
REMARK       I    between atoms: C_4  and  N_5 
REMARK    3  A    between atoms: N_5  and  C_6 
REMARK    4  A    between atoms: C_6  and  C_7 
REMARK    5  A    between atoms: C_9  and  N_10 
REMARK    6  A    between atoms: N_10  and  C_11 
REMARK    7  A    between atoms: C_27  and  N_28 
ROOT
HETATM    1  C   UNL     1      43.963 -12.586   7.131  1.00  0.00     0.203 C 
ENDROOT
BRANCH   1   2
HETATM    2  N   UNL     1      43.843 -11.183   7.492  1.00  0.00    -0.354 N 
HETATM    3  C   UNL     1      44.889 -10.507   8.071  1.00  0.00     0.222 C 
HETATM    4  O   UNL     1      45.984 -11.028   8.263  1.00  0.00    -0.273 OA
HETATM    5  H   UNL     1      42.901 -10.810   7.525  1.00  0.00     0.162 HD
BRANCH   3   6
HETATM    6  C   UNL     1      44.595  -9.050   8.395  1.00  0.00     0.141 C 
BRANCH   6   7
HETATM    7  C   UNL     1      43.957  -8.823   9.745  1.00  0.00    -0.049 A 
HETATM    8  C   UNL     1      44.066  -9.771  10.765  1.00  0.00     0.010 A 
HETATM    9  C   UNL     1      43.532  -9.523  12.037  1.00  0.00     0.030 A 
HETATM   10  C   UNL     1      42.884  -8.315  12.334  1.00  0.00     0.039 A 
HETATM   11  C   UNL     1      42.768  -7.376  11.303  1.00  0.00     0.030 A 
HETATM   12  C   UNL     1      43.297  -7.623  10.028  1.00  0.00     0.010 A 
BRANCH  10  13
HETATM   13  N   UNL     1      42.387  -8.062  13.638  1.00  0.00    -0.298 N 
HETATM   14  C   UNL     1      41.309  -8.704  14.276  1.00  0.00     0.323 C 
HETATM   15  O   UNL     1      40.559  -9.577  13.871  1.00  0.00    -0.247 OA
HETATM   16  N   UNL     1      41.178  -8.154  15.548  1.00  0.00    -0.341 N 
HETATM   17  C   UNL     1      41.996  -6.988  15.687  1.00  0.00     0.144 C 
HETATM   18  H   UNL     1      40.352  -8.371  16.089  1.00  0.00     0.164 HD
HETATM   19  C   UNL     1      42.996  -7.113  14.549  1.00  0.00     0.153 C 
ENDBRANCH  10  13
ENDBRANCH   6   7
ENDBRANCH   3   6
ENDBRANCH   1   2
BRANCH   1  20
HETATM   20  C   UNL     1      43.335 -12.896   5.789  1.00  0.00     0.146 A 
HETATM   21  N   UNL     1      43.052 -14.186   5.519  1.00  0.00    -0.219 NA
HETATM   22  C   UNL     1      42.524 -14.471   4.317  1.00  0.00     0.118 A 
HETATM   23  C   UNL     1      42.236 -13.466   3.377  1.00  0.00     0.035 A 
HETATM   24  C   UNL     1      42.572 -12.161   3.761  1.00  0.00     0.072 A 
HETATM   25  C   UNL     1      41.637 -13.690   2.110  1.00  0.00     0.041 A 
HETATM   26  N   UNL     1      43.125 -11.876   4.941  1.00  0.00    -0.231 NA
HETATM   27  C   UNL     1      42.316 -11.118   2.878  1.00  0.00     0.034 A 
HETATM   28  C   UNL     1      41.732 -11.335   1.627  1.00  0.00     0.026 A 
HETATM   29  C   UNL     1      41.391 -12.626   1.248  1.00  0.00     0.035 A 
HETATM   30 CL   UNL     1      40.665 -12.910  -0.283  1.00  0.00    -0.084 Cl
BRANCH  22  31
HETATM   31  N   UNL     1      42.244 -15.818   3.992  1.00  0.00    -0.272 NA
HETATM   32  H   UNL     1      41.474 -15.817   3.327  1.00  0.00     0.129 HD
BRANCH  31  33
HETATM   33  C   UNL     1      43.370 -16.619   3.513  1.00  0.00     0.061 C 
HETATM   34  C   UNL     1      43.598 -17.845   4.407  1.00  0.00     0.020 C 
HETATM   35  C   UNL     1      44.039 -18.937   3.448  1.00  0.00     0.002 C 
HETATM   36  C   UNL     1      43.139 -18.712   2.247  1.00  0.00     0.002 C 
HETATM   37  C   UNL     1      43.057 -17.195   2.117  1.00  0.00     0.020 C 
ENDBRANCH  31  33
ENDBRANCH  22  31
ENDBRANCH   1  20
TORSDOF 7
ENDMDL
MODEL 6
REMARK VINA RESULT:      -8.5      4.425      7.040
REMARK  7 active torsions:
REMARK  status: ('A' for Active; 'I' for Inactive)
REMARK    1  A    between atoms: C_2  and  C_3 
REMARK    2  A    between atoms: C_3  and  C_4 
REMARK       I    between atoms: C_4  and  N_5 
REMARK    3  A    between atoms: N_5  and  C_6 
REMARK    4  A    between atoms: C_6  and  C_7 
REMARK    5  A    between atoms: C_9  and  N_10 
REMARK    6  A    between atoms: N_10  and  C_11 
REMARK    7  A    between atoms: C_27  and  N_28 
ROOT
HETATM    1  C   UNL     1      42.810 -11.606   6.553  1.00  0.00     0.203 C 
ENDROOT
BRANCH   1   2
HETATM    2  N   UNL     1      43.510 -11.352   7.802  1.00  0.00    -0.354 N 
HETATM    3  C   UNL     1      44.797 -10.873   7.811  1.00  0.00     0.222 C 
HETATM    4  O   UNL     1      45.400 -10.587   6.780  1.00  0.00    -0.273 OA
HETATM    5  H   UNL     1      43.105 -11.769   8.633  1.00  0.00     0.162 HD
BRANCH   3   6
HETATM    6  C   UNL     1      45.385 -10.673   9.199  1.00  0.00     0.141 C 
BRANCH   6   7
HETATM    7  C   UNL     1      44.489  -9.927  10.160  1.00  0.00    -0.049 A 
HETATM    8  C   UNL     1      44.116  -8.602   9.919  1.00  0.00     0.010 A 
HETATM    9  C   UNL     1      43.228  -7.939  10.777  1.00  0.00     0.030 A 
HETATM   10  C   UNL     1      42.676  -8.581  11.895  1.00  0.00     0.039 A 
HETATM   11  C   UNL     1      43.065  -9.903  12.135  1.00  0.00     0.030 A 
HETATM   12  C   UNL     1      43.957 -10.569  11.281  1.00  0.00     0.010 A 
BRANCH  10  13
HETATM   13  N   UNL     1      41.746  -7.908  12.729  1.00  0.00    -0.298 N 
HETATM   14  C   UNL     1      42.019  -7.233  13.934  1.00  0.00     0.323 C 
HETATM   15  O   UNL     1      43.070  -7.087  14.536  1.00  0.00    -0.247 OA
HETATM   16  N   UNL     1      40.820  -6.710  14.409  1.00  0.00    -0.341 N 
HETATM   17  C   UNL     1      39.709  -7.228  13.672  1.00  0.00     0.144 C 
HETATM   18  H   UNL     1      40.790  -6.338  15.349  1.00  0.00     0.164 HD
HETATM   19  C   UNL     1      40.342  -7.767  12.399  1.00  0.00     0.153 C 
ENDBRANCH  10  13
ENDBRANCH   6   7
ENDBRANCH   3   6
ENDBRANCH   1   2
BRANCH   1  20
HETATM   20  C   UNL     1      42.944 -13.043   6.093  1.00  0.00     0.146 A 
HETATM   21  N   UNL     1      42.775 -13.292   4.780  1.00  0.00    -0.219 NA
HETATM   22  C   UNL     1      42.860 -14.569   4.372  1.00  0.00     0.118 A 
HETATM   23  C   UNL     1      43.153 -15.615   5.265  1.00  0.00     0.035 A 
HETATM   24  C   UNL     1      43.309 -15.242   6.606  1.00  0.00     0.072 A 
HETATM   25  C   UNL     1      43.305 -16.977   4.896  1.00  0.00     0.041 A 
HETATM   26  N   UNL     1      43.195 -13.980   7.022  1.00  0.00    -0.231 NA
HETATM   27  C   UNL     1      43.599 -16.227   7.544  1.00  0.00     0.034 A 
HETATM   28  C   UNL     1      43.743 -17.570   7.186  1.00  0.00     0.026 A 
HETATM   29  C   UNL     1      43.596 -17.941   5.856  1.00  0.00     0.035 A 
HETATM   30 CL   UNL     1      43.778 -19.586   5.397  1.00  0.00    -0.084 Cl
BRANCH  22  31
HETATM   31  N   UNL     1      42.657 -14.869   3.006  1.00  0.00    -0.272 NA
HETATM   32  H   UNL     1      42.832 -15.864   2.882  1.00  0.00     0.129 HD
BRANCH  31  33
HETATM   33  C   UNL     1      41.369 -14.473   2.437  1.00  0.00     0.061 C 
HETATM   34  C   UNL     1      41.468 -14.288   0.917  1.00  0.00     0.020 C 
HETATM   35  C   UNL     1      40.129 -14.775   0.388  1.00  0.00     0.002 C 
HETATM   36  C   UNL     1      39.856 -15.997   1.245  1.00  0.00     0.002 C 
HETATM   37  C   UNL     1      40.332 -15.596   2.637  1.00  0.00     0.020 C 
ENDBRANCH  31  33
ENDBRANCH  22  31
ENDBRANCH   1  20
TORSDOF 7
ENDMDL
MODEL 7
REMARK VINA RESULT:      -8.5      3.671      6.307
REMARK  7 active torsions:
REMARK  status: ('A' for Active; 'I' for Inactive)
REMARK    1  A    between atoms: C_2  and  C_3 
REMARK    2  A    between atoms: C_3  and  C_4 
REMARK       I    between atoms: C_4  and  N_5 
REMARK    3  A    between atoms: N_5  and  C_6 
REMARK    4  A    between atoms: C_6  and  C_7 
REMARK    5  A    between atoms: C_9  and  N_10 
REMARK    6  A    between atoms: N_10  and  C_11 
REMARK    7  A    between atoms: C_27  and  N_28 
ROOT
HETATM    1  C   UNL     1      41.769 -12.979   5.579  1.00  0.00     0.203 C 
ENDROOT
BRANCH   1   2
HETATM    2  N   UNL     1      42.863 -12.596   6.455  1.00  0.00    -0.354 N 
HETATM    3  C   UNL     1      43.810 -11.686   6.054  1.00  0.00     0.222 C 
HETATM    4  O   UNL     1      43.755 -11.114   4.968  1.00  0.00    -0.273 OA
HETATM    5  H   UNL     1      43.029 -13.200   7.253  1.00  0.00     0.162 HD
BRANCH   3   6
HETATM    6  C   UNL     1      44.891 -11.404   7.086  1.00  0.00     0.141 C 
BRANCH   6   7
HETATM    7  C   UNL     1      44.461 -10.501   8.217  1.00  0.00    -0.049 A 
HETATM    8  C   UNL     1      43.187  -9.928   8.241  1.00  0.00     0.010 A 
HETATM    9  C   UNL     1      42.770  -9.148   9.328  1.00  0.00     0.030 A 
HETATM   10  C   UNL     1      43.607  -8.927  10.432  1.00  0.00     0.039 A 
HETATM   11  C   UNL     1      44.886  -9.494  10.394  1.00  0.00     0.030 A 
HETATM   12  C   UNL     1      45.308 -10.271   9.305  1.00  0.00     0.010 A 
BRANCH  10  13
HETATM   13  N   UNL     1      43.154  -8.171  11.543  1.00  0.00    -0.298 N 
HETATM   14  C   UNL     1      42.703  -6.837  11.536  1.00  0.00     0.323 C 
HETATM   15  O   UNL     1      42.619  -6.037  10.619  1.00  0.00    -0.247 OA
HETATM   16  N   UNL     1      42.344  -6.503  12.839  1.00  0.00    -0.341 N 
HETATM   17  C   UNL     1      42.772  -7.510  13.761  1.00  0.00     0.144 C 
HETATM   18  H   UNL     1      42.158  -5.534  13.059  1.00  0.00     0.164 HD
HETATM   19  C   UNL     1      43.027  -8.721  12.878  1.00  0.00     0.153 C 
ENDBRANCH  10  13
ENDBRANCH   6   7
ENDBRANCH   3   6
ENDBRANCH   1   2
BRANCH   1  20
HETATM   20  C   UNL     1      42.118 -14.156   4.693  1.00  0.00     0.146 A 
HETATM   21  N   UNL     1      41.859 -14.040   3.376  1.00  0.00    -0.219 NA
HETATM   22  C   UNL     1      42.138 -15.093   2.590  1.00  0.00     0.118 A 
HETATM   23  C   UNL     1      42.715 -16.269   3.103  1.00  0.00     0.035 A 
HETATM   24  C   UNL     1      42.940 -16.281   4.486  1.00  0.00     0.072 A 
HETATM   25  C   UNL     1      43.078 -17.399   2.325  1.00  0.00     0.041 A 
HETATM   26  N   UNL     1      42.637 -15.250   5.276  1.00  0.00    -0.231 NA
HETATM   27  C   UNL     1      43.507 -17.413   5.060  1.00  0.00     0.034 A 
HETATM   28  C   UNL     1      43.860 -18.531   4.299  1.00  0.00     0.026 A 
HETATM   29  C   UNL     1      43.645 -18.518   2.928  1.00  0.00     0.035 A 
HETATM   30 CL   UNL     1      44.080 -19.880   1.975  1.00  0.00    -0.084 Cl
BRANCH  22  31
HETATM   31  N   UNL     1      41.850 -15.015   1.209  1.00  0.00    -0.272 NA
HETATM   32  H   UNL     1      41.782 -15.968   0.857  1.00  0.00     0.129 HD
BRANCH  31  33
HETATM   33  C   UNL     1      40.684 -14.216   0.832  1.00  0.00     0.061 C 
HETATM   34  C   UNL     1      41.106 -12.914   0.138  1.00  0.00     0.020 C 
HETATM   35  C   UNL     1      40.034 -12.681  -0.914  1.00  0.00     0.002 C 
HETATM   36  C   UNL     1      39.781 -14.078  -1.449  1.00  0.00     0.002 C 
HETATM   37  C   UNL     1      39.838 -14.971  -0.214  1.00  0.00     0.020 C 
ENDBRANCH  31  33
ENDBRANCH  22  31
ENDBRANCH   1  20
TORSDOF 7
ENDMDL
MODEL 8
REMARK VINA RESULT:      -8.4      2.160      5.598
REMARK  7 active torsions:
REMARK  status: ('A' for Active; 'I' for Inactive)
REMARK    1  A    between atoms: C_2  and  C_3 
REMARK    2  A    between atoms: C_3  and  C_4 
REMARK       I    between atoms: C_4  and  N_5 
REMARK    3  A    between atoms: N_5  and  C_6 
REMARK    4  A    between atoms: C_6  and  C_7 
REMARK    5  A    between atoms: C_9  and  N_10 
REMARK    6  A    between atoms: N_10  and  C_11 
REMARK    7  A    between atoms: C_27  and  N_28 
ROOT
HETATM    1  C   UNL     1      41.948 -14.201   1.448  1.00  0.00     0.203 C 
ENDROOT
BRANCH   1   2
HETATM    2  N   UNL     1      42.228 -12.863   1.943  1.00  0.00    -0.354 N 
HETATM    3  C   UNL     1      41.266 -12.128   2.591  1.00  0.00     0.222 C 
HETATM    4  O   UNL     1      40.147 -12.575   2.831  1.00  0.00    -0.273 OA
HETATM    5  H   UNL     1      43.063 -12.418   1.578  1.00  0.00     0.162 HD
BRANCH   3   6
HETATM    6  C   UNL     1      41.719 -10.746   3.034  1.00  0.00     0.141 C 
BRANCH   6   7
HETATM    7  C   UNL     1      42.143 -10.658   4.481  1.00  0.00    -0.049 A 
HETATM    8  C   UNL     1      43.422 -11.049   4.886  1.00  0.00     0.010 A 
HETATM    9  C   UNL     1      43.832 -10.899   6.218  1.00  0.00     0.030 A 
HETATM   10  C   UNL     1      42.983 -10.340   7.184  1.00  0.00     0.039 A 
HETATM   11  C   UNL     1      41.700  -9.961   6.773  1.00  0.00     0.030 A 
HETATM   12  C   UNL     1      41.285 -10.116   5.442  1.00  0.00     0.010 A 
BRANCH  10  13
HETATM   13  N   UNL     1      43.429 -10.155   8.518  1.00  0.00    -0.298 N 
HETATM   14  C   UNL     1      44.681 -10.511   9.053  1.00  0.00     0.323 C 
HETATM   15  O   UNL     1      45.635 -11.061   8.528  1.00  0.00    -0.247 OA
HETATM   16  N   UNL     1      44.694 -10.135  10.393  1.00  0.00    -0.341 N 
HETATM   17  C   UNL     1      43.386  -9.753  10.829  1.00  0.00     0.144 C 
HETATM   18  H   UNL     1      45.446 -10.464  10.983  1.00  0.00     0.164 HD
HETATM   19  C   UNL     1      42.639  -9.484   9.532  1.00  0.00     0.153 C 
ENDBRANCH  10  13
ENDBRANCH   6   7
ENDBRANCH   3   6
ENDBRANCH   1   2
BRANCH   1  20
HETATM   20  C   UNL     1      42.475 -15.282   2.368  1.00  0.00     0.146 A 
HETATM   21  N   UNL     1      42.784 -14.927   3.630  1.00  0.00    -0.219 NA
HETATM   22  C   UNL     1      43.282 -15.876   4.441  1.00  0.00     0.118 A 
HETATM   23  C   UNL     1      43.445 -17.206   4.014  1.00  0.00     0.035 A 
HETATM   24  C   UNL     1      43.092 -17.463   2.682  1.00  0.00     0.072 A 
HETATM   25  C   UNL     1      43.918 -18.266   4.828  1.00  0.00     0.041 A 
HETATM   26  N   UNL     1      42.626 -16.518   1.863  1.00  0.00    -0.231 NA
HETATM   27  C   UNL     1      43.229 -18.757   2.192  1.00  0.00     0.034 A 
HETATM   28  C   UNL     1      43.702 -19.803   2.990  1.00  0.00     0.026 A 
HETATM   29  C   UNL     1      44.044 -19.552   4.311  1.00  0.00     0.035 A 
HETATM   30 CL   UNL     1      44.619 -20.828   5.308  1.00  0.00    -0.084 Cl
BRANCH  22  31
HETATM   31  N   UNL     1      43.645 -15.530   5.762  1.00  0.00    -0.272 NA
HETATM   32  H   UNL     1      44.391 -14.839   5.702  1.00  0.00     0.129 HD
BRANCH  31  33
HETATM   33  C   UNL     1      42.564 -15.082   6.638  1.00  0.00     0.061 C 
HETATM   34  C   UNL     1      41.715 -13.997   5.961  1.00  0.00     0.020 C 
HETATM   35  C   UNL     1      40.299 -14.268   6.442  1.00  0.00     0.002 C 
HETATM   36  C   UNL     1      40.220 -15.783   6.412  1.00  0.00     0.002 C 
HETATM   37  C   UNL     1      41.586 -16.242   6.912  1.00  0.00     0.020 C 
ENDBRANCH  31  33
ENDBRANCH  22  31
ENDBRANCH   1  20
TORSDOF 7
ENDMDL
MODEL 9
REMARK VINA RESULT:      -8.2      4.658      7.562
REMARK  7 active torsions:
REMARK  status: ('A' for Active; 'I' for Inactive)
REMARK    1  A    between atoms: C_2  and  C_3 
REMARK    2  A    between atoms: C_3  and  C_4 
REMARK       I    between atoms: C_4  and  N_5 
REMARK    3  A    between atoms: N_5  and  C_6 
REMARK    4  A    between atoms: C_6  and  C_7 
REMARK    5  A    between atoms: C_9  and  N_10 
REMARK    6  A    between atoms: N_10  and  C_11 
REMARK    7  A    between atoms: C_27  and  N_28 
ROOT
HETATM    1  C   UNL     1      45.659 -11.086   6.707  1.00  0.00     0.203 C 
ENDROOT
BRANCH   1   2
HETATM    2  N   UNL     1      45.495 -10.925   8.142  1.00  0.00    -0.354 N 
HETATM    3  C   UNL     1      45.716  -9.714   8.752  1.00  0.00     0.222 C 
HETATM    4  O   UNL     1      46.009  -8.703   8.120  1.00  0.00    -0.273 OA
HETATM    5  H   UNL     1      45.456 -11.781   8.686  1.00  0.00     0.162 HD
BRANCH   3   6
HETATM    6  C   UNL     1      45.512  -9.721  10.259  1.00  0.00     0.141 C 
BRANCH   6   7
HETATM    7  C   UNL     1      44.138  -9.283  10.709  1.00  0.00    -0.049 A 
HETATM    8  C   UNL     1      43.635  -8.023  10.374  1.00  0.00     0.010 A 
HETATM    9  C   UNL     1      42.333  -7.650  10.735  1.00  0.00     0.030 A 
HETATM   10  C   UNL     1      41.487  -8.528  11.428  1.00  0.00     0.039 A 
HETATM   11  C   UNL     1      42.004  -9.784  11.770  1.00  0.00     0.030 A 
HETATM   12  C   UNL     1      43.308 -10.158  11.415  1.00  0.00     0.010 A 
BRANCH  10  13
HETATM   13  N   UNL     1      40.158  -8.151  11.748  1.00  0.00    -0.298 N 
HETATM   14  C   UNL     1      39.071  -8.032  10.861  1.00  0.00     0.323 C 
HETATM   15  O   UNL     1      39.017  -8.196   9.654  1.00  0.00    -0.247 OA
HETATM   16  N   UNL     1      37.956  -7.653  11.603  1.00  0.00    -0.341 N 
HETATM   17  C   UNL     1      38.330  -7.280  12.933  1.00  0.00     0.144 C 
HETATM   18  H   UNL     1      37.124  -7.354  11.112  1.00  0.00     0.164 HD
HETATM   19  C   UNL     1      39.711  -7.892  13.103  1.00  0.00     0.153 C 
ENDBRANCH  10  13
ENDBRANCH   6   7
ENDBRANCH   3   6
ENDBRANCH   1   2
BRANCH   1  20
HETATM   20  C   UNL     1      44.405 -11.604   6.034  1.00  0.00     0.146 A 
HETATM   21  N   UNL     1      44.102 -12.906   6.206  1.00  0.00    -0.219 NA
HETATM   22  C   UNL     1      43.008 -13.379   5.585  1.00  0.00     0.118 A 
HETATM   23  C   UNL     1      42.178 -12.549   4.810  1.00  0.00     0.035 A 
HETATM   24  C   UNL     1      42.589 -11.214   4.698  1.00  0.00     0.072 A 
HETATM   25  C   UNL     1      40.986 -12.970   4.167  1.00  0.00     0.041 A 
HETATM   26  N   UNL     1      43.691 -10.746   5.288  1.00  0.00    -0.231 NA
HETATM   27  C   UNL     1      41.815 -10.338   3.946  1.00  0.00     0.034 A 
HETATM   28  C   UNL     1      40.644 -10.750   3.305  1.00  0.00     0.026 A 
HETATM   29  C   UNL     1      40.231 -12.070   3.421  1.00  0.00     0.035 A 
HETATM   30 CL   UNL     1      38.789 -12.592   2.646  1.00  0.00    -0.084 Cl
BRANCH  22  31
HETATM   31  N   UNL     1      42.679 -14.747   5.720  1.00  0.00    -0.272 NA
HETATM   32  H   UNL     1      41.732 -14.869   5.368  1.00  0.00     0.129 HD
BRANCH  31  33
HETATM   33  C   UNL     1      43.607 -15.701   5.114  1.00  0.00     0.061 C 
HETATM   34  C   UNL     1      43.455 -17.095   5.739  1.00  0.00     0.020 C 
HETATM   35  C   UNL     1      43.687 -18.056   4.585  1.00  0.00     0.002 C 
HETATM   36  C   UNL     1      42.966 -17.377   3.435  1.00  0.00     0.002 C 
HETATM   37  C   UNL     1      43.272 -15.894   3.621  1.00  0.00     0.020 C 
ENDBRANCH  31  33
ENDBRANCH  22  31
ENDBRANCH   1  20
TORSDOF 7
ENDMDL
MODEL 10
REMARK VINA RESULT:      -8.1      4.048      7.506
REMARK  7 active torsions:
REMARK  status: ('A' for Active; 'I' for Inactive)
REMARK    1  A    between atoms: C_2  and  C_3 
REMARK    2  A    between atoms: C_3  and  C_4 
REMARK       I    between atoms: C_4  and  N_5 
REMARK    3  A    between atoms: N_5  and  C_6 
REMARK    4  A    between atoms: C_6  and  C_7 
REMARK    5  A    between atoms: C_9  and  N_10 
REMARK    6  A    between atoms: N_10  and  C_11 
REMARK    7  A    between atoms: C_27  and  N_28 
ROOT
HETATM    1  C   UNL     1      40.244 -13.108   6.145  1.00  0.00     0.203 C 
ENDROOT
BRANCH   1   2
HETATM    2  N   UNL     1      41.032 -11.906   6.358  1.00  0.00    -0.354 N 
HETATM    3  C   UNL     1      42.403 -11.957   6.424  1.00  0.00     0.222 C 
HETATM    4  O   UNL     1      43.031 -12.999   6.256  1.00  0.00    -0.273 OA
HETATM    5  H   UNL     1      40.526 -11.094   6.695  1.00  0.00     0.162 HD
BRANCH   3   6
HETATM    6  C   UNL     1      43.073 -10.613   6.661  1.00  0.00     0.141 C 
BRANCH   6   7
HETATM    7  C   UNL     1      42.997 -10.115   8.085  1.00  0.00    -0.049 A 
HETATM    8  C   UNL     1      42.019  -9.200   8.481  1.00  0.00     0.010 A 
HETATM    9  C   UNL     1      41.911  -8.797   9.819  1.00  0.00     0.030 A 
HETATM   10  C   UNL     1      42.767  -9.305  10.806  1.00  0.00     0.039 A 
HETATM   11  C   UNL     1      43.752 -10.212  10.399  1.00  0.00     0.030 A 
HETATM   12  C   UNL     1      43.866 -10.614   9.060  1.00  0.00     0.010 A 
BRANCH  10  13
HETATM   13  N   UNL     1      42.616  -8.919  12.163  1.00  0.00    -0.298 N 
HETATM   14  C   UNL     1      41.713  -9.450  13.102  1.00  0.00     0.323 C 
HETATM   15  O   UNL     1      40.863 -10.316  12.977  1.00  0.00    -0.247 OA
HETATM   16  N   UNL     1      41.918  -8.789  14.310  1.00  0.00    -0.341 N 
HETATM   17  C   UNL     1      42.776  -7.658  14.134  1.00  0.00     0.144 C 
HETATM   18  H   UNL     1      41.246  -8.917  15.055  1.00  0.00     0.164 HD
HETATM   19  C   UNL     1      43.459  -7.928  12.803  1.00  0.00     0.153 C 
ENDBRANCH  10  13
ENDBRANCH   6   7
ENDBRANCH   3   6
ENDBRANCH   1   2
BRANCH   1  20
HETATM   20  C   UNL     1      40.266 -13.571   4.704  1.00  0.00     0.146 A 
HETATM   21  N   UNL     1      40.725 -14.814   4.458  1.00  0.00    -0.219 NA
HETATM   22  C   UNL     1      40.777 -15.217   3.177  1.00  0.00     0.118 A 
HETATM   23  C   UNL     1      40.336 -14.398   2.123  1.00  0.00     0.035 A 
HETATM   24  C   UNL     1      39.879 -13.126   2.493  1.00  0.00     0.072 A 
HETATM   25  C   UNL     1      40.318 -14.777   0.756  1.00  0.00     0.041 A 
HETATM   26  N   UNL     1      39.854 -12.708   3.760  1.00  0.00    -0.231 NA
HETATM   27  C   UNL     1      39.429 -12.263   1.500  1.00  0.00     0.034 A 
HETATM   28  C   UNL     1      39.416 -12.630   0.152  1.00  0.00     0.026 A 
HETATM   29  C   UNL     1      39.860 -13.892  -0.216  1.00  0.00     0.035 A 
HETATM   30 CL   UNL     1      39.844 -14.363  -1.868  1.00  0.00    -0.084 Cl
BRANCH  22  31
HETATM   31  N   UNL     1      41.283 -16.504   2.883  1.00  0.00    -0.272 NA
HETATM   32  H   UNL     1      40.996 -16.734   1.934  1.00  0.00     0.129 HD
BRANCH  31  33
HETATM   33  C   UNL     1      42.720 -16.698   3.075  1.00  0.00     0.061 C 
HETATM   34  C   UNL     1      43.021 -17.269   4.467  1.00  0.00     0.020 C 
HETATM   35  C   UNL     1      44.199 -18.203   4.247  1.00  0.00     0.002 C 
HETATM   36  C   UNL     1      43.853 -18.873   2.930  1.00  0.00     0.002 C 
HETATM   37  C   UNL     1      43.251 -17.755   2.086  1.00  0.00     0.020 C 
ENDBRANCH  31  33
ENDBRANCH  22  31
ENDBRANCH   1  20
TORSDOF 7
ENDMDL
