MODEL 1
REMARK VINA RESULT:      -9.4      0.000      0.000
REMARK  9 active torsions:
REMARK  status: ('A' for Active; 'I' for Inactive)
REMARK    1  A    between atoms: O_2  and  C_3 
REMARK    2  A    between atoms: C_4  and  O_5 
REMARK    3  A    between atoms: C_6  and  C_7 
REMARK    4  A    between atoms: N_8  and  N_9 
REMARK       I    between atoms: N_9  and  C_10 
REMARK    5  A    between atoms: C_10  and  C_11 
REMARK    6  A    between atoms: C_11  and  N_12 
REMARK       I    between atoms: N_12  and  C_13 
REMARK    7  A    between atoms: C_13  and  C_14 
REMARK    8  A    between atoms: C_15  and  C_16 
REMARK    9  A    between atoms: C_15  and  C_22 
ROOT
HETATM    1  N   UNL     1      41.656 -13.915   1.826  1.00  0.00    -0.352 N 
HETATM    2  C   UNL     1      42.787 -14.694   1.842  1.00  0.00     0.223 C 
HETATM    3  O   UNL     1      43.919 -14.226   1.864  1.00  0.00    -0.273 OA
HETATM    4  H   UNL     1      40.747 -14.340   1.955  1.00  0.00     0.162 HD
ENDROOT
BRANCH   1   5
HETATM    5  C   UNL     1      41.736 -12.470   1.752  1.00  0.00     0.227 C 
BRANCH   5   6
HETATM    6  C   UNL     1      41.905 -11.811   3.122  1.00  0.00     0.255 C 
HETATM    7  N   UNL     1      43.238 -11.601   3.444  1.00  0.00    -0.246 N 
HETATM    8  H   UNL     1      43.966 -12.031   2.867  1.00  0.00     0.192 HD
HETATM    9  O   UNL     1      40.934 -11.513   3.816  1.00  0.00    -0.270 OA
BRANCH   7  10
HETATM   10  N   UNL     1      43.577 -10.893   4.557  1.00  0.00    -0.184 NA
HETATM   11  C   UNL     1      44.042 -11.608   5.534  1.00  0.00     0.153 C 
BRANCH  11  12
HETATM   12  C   UNL     1      44.494 -10.989   6.797  1.00  0.00     0.019 A 
HETATM   13  C   UNL     1      43.561 -10.563   7.745  1.00  0.00     0.110 A 
HETATM   14  C   UNL     1      43.977  -9.994   8.959  1.00  0.00     0.102 A 
HETATM   15  C   UNL     1      45.342  -9.852   9.215  1.00  0.00     0.040 A 
HETATM   16  C   UNL     1      46.279 -10.275   8.267  1.00  0.00     0.004 A 
HETATM   17  C   UNL     1      45.858 -10.843   7.062  1.00  0.00     0.016 A 
BRANCH  13  18
HETATM   18  O   UNL     1      42.216 -10.702   7.510  1.00  0.00    -0.357 OA
HETATM   19  H   UNL     1      42.143 -11.431   6.862  1.00  0.00     0.218 HD
ENDBRANCH  13  18
BRANCH  14  20
HETATM   20  O   UNL     1      42.956  -9.629   9.802  1.00  0.00    -0.353 OA
HETATM   21  C   UNL     1      43.005 -10.148  11.126  1.00  0.00     0.210 C 
ENDBRANCH  14  20
ENDBRANCH  11  12
ENDBRANCH   7  10
ENDBRANCH   5   6
ENDBRANCH   1   5
BRANCH   2  22
HETATM   22  C   UNL     1      42.515 -16.151   1.860  1.00  0.00     0.097 A 
HETATM   23  C   UNL     1      42.401 -16.947   3.168  1.00  0.00     0.027 A 
HETATM   24  C   UNL     1      41.181 -16.688   2.282  1.00  0.00     0.035 A 
BRANCH  23  25
HETATM   25  C   UNL     1      43.050 -18.338   3.153  1.00  0.00    -0.044 A 
HETATM   26  C   UNL     1      43.715 -18.834   4.290  1.00  0.00     0.008 A 
HETATM   27  C   UNL     1      44.297 -20.105   4.302  1.00  0.00     0.001 A 
HETATM   28  C   UNL     1      44.228 -20.911   3.170  1.00  0.00     0.000 A 
HETATM   29  C   UNL     1      43.574 -20.449   2.031  1.00  0.00     0.001 A 
HETATM   30  C   UNL     1      42.987 -19.179   2.028  1.00  0.00     0.008 A 
ENDBRANCH  23  25
BRANCH  23  31
HETATM   31  C   UNL     1      42.385 -16.272   4.545  1.00  0.00    -0.044 A 
HETATM   32  C   UNL     1      41.210 -16.257   5.321  1.00  0.00     0.008 A 
HETATM   33  C   UNL     1      41.178 -15.679   6.593  1.00  0.00     0.001 A 
HETATM   34  C   UNL     1      42.327 -15.102   7.123  1.00  0.00     0.000 A 
HETATM   35  C   UNL     1      43.506 -15.111   6.383  1.00  0.00     0.001 A 
HETATM   36  C   UNL     1      43.534 -15.696   5.114  1.00  0.00     0.008 A 
ENDBRANCH  23  31
ENDBRANCH   2  22
TORSDOF 9
ENDMDL
MODEL 2
REMARK VINA RESULT:      -8.8      2.562      9.311
REMARK  9 active torsions:
REMARK  status: ('A' for Active; 'I' for Inactive)
REMARK    1  A    between atoms: O_2  and  C_3 
REMARK    2  A    between atoms: C_4  and  O_5 
REMARK    3  A    between atoms: C_6  and  C_7 
REMARK    4  A    between atoms: N_8  and  N_9 
REMARK       I    between atoms: N_9  and  C_10 
REMARK    5  A    between atoms: C_10  and  C_11 
REMARK    6  A    between atoms: C_11  and  N_12 
REMARK       I    between atoms: N_12  and  C_13 
REMARK    7  A    between atoms: C_13  and  C_14 
REMARK    8  A    between atoms: C_15  and  C_16 
REMARK    9  A    between atoms: C_15  and  C_22 
ROOT
HETATM    1  N   UNL     1      40.742 -10.124   7.440  1.00  0.00    -0.352 N 
HETATM    2  C   UNL     1      41.372  -8.906   7.372  1.00  0.00     0.223 C 
HETATM    3  O   UNL     1      41.659  -8.360   6.313  1.00  0.00    -0.273 OA
HETATM    4  H   UNL     1      40.395 -10.466   8.326  1.00  0.00     0.162 HD
ENDROOT
BRANCH   1   5
HETATM    5  C   UNL     1      40.446 -10.887   6.244  1.00  0.00     0.227 C 
BRANCH   5   6
HETATM    6  C   UNL     1      41.582 -11.827   5.840  1.00  0.00     0.255 C 
HETATM    7  N   UNL     1      41.320 -13.147   6.179  1.00  0.00    -0.246 N 
HETATM    8  H   UNL     1      40.525 -13.357   6.790  1.00  0.00     0.192 HD
HETATM    9  O   UNL     1      42.590 -11.411   5.272  1.00  0.00    -0.270 OA
BRANCH   7  10
HETATM   10  N   UNL     1      42.149 -14.145   5.767  1.00  0.00    -0.184 NA
HETATM   11  C   UNL     1      41.614 -14.986   4.937  1.00  0.00     0.153 C 
BRANCH  11  12
HETATM   12  C   UNL     1      42.390 -16.105   4.363  1.00  0.00     0.019 A 
HETATM   13  C   UNL     1      42.891 -17.111   5.190  1.00  0.00     0.110 A 
HETATM   14  C   UNL     1      43.611 -18.191   4.656  1.00  0.00     0.102 A 
HETATM   15  C   UNL     1      43.828 -18.253   3.279  1.00  0.00     0.040 A 
HETATM   16  C   UNL     1      43.329 -17.246   2.446  1.00  0.00     0.004 A 
HETATM   17  C   UNL     1      42.612 -16.175   2.984  1.00  0.00     0.016 A 
BRANCH  13  18
HETATM   18  O   UNL     1      42.680 -17.067   6.546  1.00  0.00    -0.357 OA
HETATM   19  H   UNL     1      42.156 -16.256   6.698  1.00  0.00     0.218 HD
ENDBRANCH  13  18
BRANCH  14  20
HETATM   20  O   UNL     1      44.037 -19.112   5.581  1.00  0.00    -0.353 OA
HETATM   21  C   UNL     1      44.256 -20.437   5.109  1.00  0.00     0.210 C 
ENDBRANCH  14  20
ENDBRANCH  11  12
ENDBRANCH   7  10
ENDBRANCH   5   6
ENDBRANCH   1   5
BRANCH   2  22
HETATM   22  C   UNL     1      41.647  -8.295   8.694  1.00  0.00     0.097 A 
HETATM   23  C   UNL     1      42.965  -8.527   9.448  1.00  0.00     0.027 A 
HETATM   24  C   UNL     1      42.620  -7.165   8.842  1.00  0.00     0.035 A 
BRANCH  23  25
HETATM   25  C   UNL     1      42.832  -8.723  10.964  1.00  0.00    -0.044 A 
HETATM   26  C   UNL     1      42.991  -7.639  11.847  1.00  0.00     0.008 A 
HETATM   27  C   UNL     1      42.856  -7.793  13.229  1.00  0.00     0.001 A 
HETATM   28  C   UNL     1      42.561  -9.044  13.762  1.00  0.00     0.000 A 
HETATM   29  C   UNL     1      42.395 -10.135  12.914  1.00  0.00     0.001 A 
HETATM   30  C   UNL     1      42.524  -9.973  11.531  1.00  0.00     0.008 A 
ENDBRANCH  23  25
BRANCH  23  31
HETATM   31  C   UNL     1      44.155  -9.259   8.818  1.00  0.00    -0.044 A 
HETATM   32  C   UNL     1      44.042 -10.608   8.429  1.00  0.00     0.008 A 
HETATM   33  C   UNL     1      45.100 -11.289   7.821  1.00  0.00     0.001 A 
HETATM   34  C   UNL     1      46.303 -10.632   7.584  1.00  0.00     0.000 A 
HETATM   35  C   UNL     1      46.442  -9.296   7.949  1.00  0.00     0.001 A 
HETATM   36  C   UNL     1      45.378  -8.618   8.550  1.00  0.00     0.008 A 
ENDBRANCH  23  31
ENDBRANCH   2  22
TORSDOF 9
ENDMDL
MODEL 3
REMARK VINA RESULT:      -8.5      2.348      9.137
REMARK  9 active torsions:
REMARK  status: ('A' for Active; 'I' for Inactive)
REMARK    1  A    between atoms: O_2  and  C_3 
REMARK    2  A    between atoms: C_4  and  O_5 
REMARK    3  A    between atoms: C_6  and  C_7 
REMARK    4  A    between atoms: N_8  and  N_9 
REMARK       I    between atoms: N_9  and  C_10 
REMARK    5  A    between atoms: C_10  and  C_11 
REMARK    6  A    between atoms: C_11  and  N_12 
REMARK       I    between atoms: N_12  and  C_13 
REMARK    7  A    between atoms: C_13  and  C_14 
REMARK    8  A    between atoms: C_15  and  C_16 
REMARK    9  A    between atoms: C_15  and  C_22 
ROOT
HETATM    1  N   UNL     1      40.948  -8.698   7.154  1.00  0.00    -0.352 N 
HETATM    2  C   UNL     1      41.771  -7.621   7.371  1.00  0.00     0.223 C 
HETATM    3  O   UNL     1      42.203  -6.918   6.464  1.00  0.00    -0.273 OA
HETATM    4  H   UNL     1      40.499  -9.158   7.935  1.00  0.00     0.162 HD
ENDROOT
BRANCH   1   5
HETATM    5  C   UNL     1      40.601  -9.125   5.813  1.00  0.00     0.227 C 
BRANCH   5   6
HETATM    6  C   UNL     1      41.585 -10.144   5.238  1.00  0.00     0.255 C 
HETATM    7  N   UNL     1      41.535 -11.359   5.906  1.00  0.00    -0.246 N 
HETATM    8  H   UNL     1      41.011 -11.426   6.784  1.00  0.00     0.192 HD
HETATM    9  O   UNL     1      42.311  -9.870   4.284  1.00  0.00    -0.270 OA
BRANCH   7  10
HETATM   10  N   UNL     1      42.232 -12.433   5.442  1.00  0.00    -0.184 NA
HETATM   11  C   UNL     1      42.198 -13.476   6.214  1.00  0.00     0.153 C 
BRANCH  11  12
HETATM   12  C   UNL     1      42.869 -14.737   5.837  1.00  0.00     0.019 A 
HETATM   13  C   UNL     1      42.471 -15.432   4.695  1.00  0.00     0.110 A 
HETATM   14  C   UNL     1      43.115 -16.620   4.312  1.00  0.00     0.102 A 
HETATM   15  C   UNL     1      44.164 -17.109   5.092  1.00  0.00     0.040 A 
HETATM   16  C   UNL     1      44.565 -16.416   6.239  1.00  0.00     0.004 A 
HETATM   17  C   UNL     1      43.922 -15.234   6.611  1.00  0.00     0.016 A 
BRANCH  13  18
HETATM   18  O   UNL     1      41.444 -14.961   3.915  1.00  0.00    -0.357 OA
HETATM   19  H   UNL     1      41.549 -13.988   3.913  1.00  0.00     0.218 HD
ENDBRANCH  13  18
BRANCH  14  20
HETATM   20  O   UNL     1      42.628 -17.194   3.164  1.00  0.00    -0.353 OA
HETATM   21  C   UNL     1      43.353 -18.305   2.649  1.00  0.00     0.210 C 
ENDBRANCH  14  20
ENDBRANCH  11  12
ENDBRANCH   7  10
ENDBRANCH   5   6
ENDBRANCH   1   5
BRANCH   2  22
HETATM   22  C   UNL     1      42.064  -7.364   8.800  1.00  0.00     0.097 A 
HETATM   23  C   UNL     1      43.175  -8.108   9.556  1.00  0.00     0.027 A 
HETATM   24  C   UNL     1      43.296  -6.621   9.220  1.00  0.00     0.035 A 
BRANCH  23  25
HETATM   25  C   UNL     1      42.832  -8.521  10.994  1.00  0.00    -0.044 A 
HETATM   26  C   UNL     1      42.076  -9.681  11.249  1.00  0.00     0.008 A 
HETATM   27  C   UNL     1      41.769 -10.084  12.551  1.00  0.00     0.001 A 
HETATM   28  C   UNL     1      42.211  -9.331  13.634  1.00  0.00     0.000 A 
HETATM   29  C   UNL     1      42.964  -8.180  13.414  1.00  0.00     0.001 A 
HETATM   30  C   UNL     1      43.274  -7.786  12.108  1.00  0.00     0.008 A 
ENDBRANCH  23  25
BRANCH  23  31
HETATM   31  C   UNL     1      44.170  -9.037   8.852  1.00  0.00    -0.044 A 
HETATM   32  C   UNL     1      45.480  -8.603   8.572  1.00  0.00     0.008 A 
HETATM   33  C   UNL     1      46.418  -9.441   7.963  1.00  0.00     0.001 A 
HETATM   34  C   UNL     1      46.066 -10.742   7.620  1.00  0.00     0.000 A 
HETATM   35  C   UNL     1      44.782 -11.203   7.892  1.00  0.00     0.001 A 
HETATM   36  C   UNL     1      43.850 -10.362   8.508  1.00  0.00     0.008 A 
ENDBRANCH  23  31
ENDBRANCH   2  22
TORSDOF 9
ENDMDL
MODEL 4
REMARK VINA RESULT:      -8.5      3.301     10.496
REMARK  9 active torsions:
REMARK  status: ('A' for Active; 'I' for Inactive)
REMARK    1  A    between atoms: O_2  and  C_3 
REMARK    2  A    between atoms: C_4  and  O_5 
REMARK    3  A    between atoms: C_6  and  C_7 
REMARK    4  A    between atoms: N_8  and  N_9 
REMARK       I    between atoms: N_9  and  C_10 
REMARK    5  A    between atoms: C_10  and  C_11 
REMARK    6  A    between atoms: C_11  and  N_12 
REMARK       I    between atoms: N_12  and  C_13 
REMARK    7  A    between atoms: C_13  and  C_14 
REMARK    8  A    between atoms: C_15  and  C_16 
REMARK    9  A    between atoms: C_15  and  C_22 
ROOT
HETATM    1  N   UNL     1      43.379 -10.341   9.090  1.00  0.00    -0.352 N 
HETATM    2  C   UNL     1      43.836  -9.294   9.852  1.00  0.00     0.223 C 
HETATM    3  O   UNL     1      44.395  -8.315   9.374  1.00  0.00    -0.273 OA
HETATM    4  H   UNL     1      42.797 -11.055   9.507  1.00  0.00     0.162 HD
ENDROOT
BRANCH   1   5
HETATM    5  C   UNL     1      43.607 -10.388   7.659  1.00  0.00     0.227 C 
BRANCH   5   6
HETATM    6  C   UNL     1      44.248 -11.698   7.199  1.00  0.00     0.255 C 
HETATM    7  N   UNL     1      43.310 -12.702   7.004  1.00  0.00    -0.246 N 
HETATM    8  H   UNL     1      42.350 -12.559   7.329  1.00  0.00     0.192 HD
HETATM    9  O   UNL     1      45.461 -11.794   7.028  1.00  0.00    -0.270 OA
BRANCH   7  10
HETATM   10  N   UNL     1      43.677 -13.892   6.454  1.00  0.00    -0.184 NA
HETATM   11  C   UNL     1      42.847 -14.362   5.575  1.00  0.00     0.153 C 
BRANCH  11  12
HETATM   12  C   UNL     1      43.116 -15.624   4.855  1.00  0.00     0.019 A 
HETATM   13  C   UNL     1      43.344 -16.804   5.565  1.00  0.00     0.110 A 
HETATM   14  C   UNL     1      43.578 -18.014   4.894  1.00  0.00     0.102 A 
HETATM   15  C   UNL     1      43.586 -18.032   3.498  1.00  0.00     0.040 A 
HETATM   16  C   UNL     1      43.360 -16.851   2.783  1.00  0.00     0.004 A 
HETATM   17  C   UNL     1      43.125 -15.650   3.457  1.00  0.00     0.016 A 
BRANCH  13  18
HETATM   18  O   UNL     1      43.333 -16.804   6.938  1.00  0.00    -0.357 OA
HETATM   19  H   UNL     1      44.270 -16.896   7.201  1.00  0.00     0.218 HD
ENDBRANCH  13  18
BRANCH  14  20
HETATM   20  O   UNL     1      43.777 -19.098   5.714  1.00  0.00    -0.353 OA
HETATM   21  C   UNL     1      44.278 -20.280   5.100  1.00  0.00     0.210 C 
ENDBRANCH  14  20
ENDBRANCH  11  12
ENDBRANCH   7  10
ENDBRANCH   5   6
ENDBRANCH   1   5
BRANCH   2  22
HETATM   22  C   UNL     1      43.564  -9.441  11.302  1.00  0.00     0.097 A 
HETATM   23  C   UNL     1      42.208  -9.080  11.923  1.00  0.00     0.027 A 
HETATM   24  C   UNL     1      42.677 -10.532  11.820  1.00  0.00     0.035 A 
BRANCH  23  25
HETATM   25  C   UNL     1      42.272  -8.371  13.283  1.00  0.00    -0.044 A 
HETATM   26  C   UNL     1      41.412  -8.745  14.332  1.00  0.00     0.008 A 
HETATM   27  C   UNL     1      41.468  -8.123  15.582  1.00  0.00     0.001 A 
HETATM   28  C   UNL     1      42.389  -7.107  15.812  1.00  0.00     0.000 A 
HETATM   29  C   UNL     1      43.256  -6.718  14.795  1.00  0.00     0.001 A 
HETATM   30  C   UNL     1      43.201  -7.348  13.548  1.00  0.00     0.008 A 
ENDBRANCH  23  25
BRANCH  23  31
HETATM   31  C   UNL     1      40.986  -8.708  11.075  1.00  0.00    -0.044 A 
HETATM   32  C   UNL     1      40.749  -7.369  10.709  1.00  0.00     0.008 A 
HETATM   33  C   UNL     1      39.663  -7.007   9.908  1.00  0.00     0.001 A 
HETATM   34  C   UNL     1      38.784  -7.983   9.448  1.00  0.00     0.000 A 
HETATM   35  C   UNL     1      38.998  -9.316   9.785  1.00  0.00     0.001 A 
HETATM   36  C   UNL     1      40.090  -9.673  10.581  1.00  0.00     0.008 A 
ENDBRANCH  23  31
ENDBRANCH   2  22
TORSDOF 9
ENDMDL
MODEL 5
REMARK VINA RESULT:      -8.4      4.109      6.798
REMARK  9 active torsions:
REMARK  status: ('A' for Active; 'I' for Inactive)
REMARK    1  A    between atoms: O_2  and  C_3 
REMARK    2  A    between atoms: C_4  and  O_5 
REMARK    3  A    between atoms: C_6  and  C_7 
REMARK    4  A    between atoms: N_8  and  N_9 
REMARK       I    between atoms: N_9  and  C_10 
REMARK    5  A    between atoms: C_10  and  C_11 
REMARK    6  A    between atoms: C_11  and  N_12 
REMARK       I    between atoms: N_12  and  C_13 
REMARK    7  A    between atoms: C_13  and  C_14 
REMARK    8  A    between atoms: C_15  and  C_16 
REMARK    9  A    between atoms: C_15  and  C_22 
ROOT
HETATM    1  N   UNL     1      40.176 -14.870   0.851  1.00  0.00    -0.352 N 
HETATM    2  C   UNL     1      39.840 -14.805   2.180  1.00  0.00     0.223 C 
HETATM    3  O   UNL     1      39.088 -13.952   2.638  1.00  0.00    -0.273 OA
HETATM    4  H   UNL     1      40.679 -15.672   0.495  1.00  0.00     0.162 HD
ENDROOT
BRANCH   1   5
HETATM    5  C   UNL     1      39.720 -13.869  -0.093  1.00  0.00     0.227 C 
BRANCH   5   6
HETATM    6  C   UNL     1      40.692 -12.698  -0.237  1.00  0.00     0.255 C 
HETATM    7  N   UNL     1      40.973 -12.407  -1.564  1.00  0.00    -0.246 N 
HETATM    8  H   UNL     1      40.673 -13.061  -2.294  1.00  0.00     0.192 HD
HETATM    9  O   UNL     1      41.139 -12.108   0.745  1.00  0.00    -0.270 OA
BRANCH   7  10
HETATM   10  N   UNL     1      41.701 -11.305  -1.892  1.00  0.00    -0.184 NA
HETATM   11  C   UNL     1      40.996 -10.266  -2.218  1.00  0.00     0.153 C 
BRANCH  11  12
HETATM   12  C   UNL     1      41.632  -8.977  -2.562  1.00  0.00     0.019 A 
HETATM   13  C   UNL     1      42.361  -8.275  -1.601  1.00  0.00     0.110 A 
HETATM   14  C   UNL     1      42.990  -7.061  -1.920  1.00  0.00     0.102 A 
HETATM   15  C   UNL     1      42.877  -6.552  -3.215  1.00  0.00     0.040 A 
HETATM   16  C   UNL     1      42.144  -7.251  -4.179  1.00  0.00     0.004 A 
HETATM   17  C   UNL     1      41.524  -8.460  -3.856  1.00  0.00     0.016 A 
BRANCH  13  18
HETATM   18  O   UNL     1      42.487  -8.765  -0.325  1.00  0.00    -0.357 OA
HETATM   19  H   UNL     1      42.161  -8.051   0.257  1.00  0.00     0.218 HD
ENDBRANCH  13  18
BRANCH  14  20
HETATM   20  O   UNL     1      43.681  -6.482  -0.884  1.00  0.00    -0.353 OA
HETATM   21  C   UNL     1      44.313  -5.236  -1.156  1.00  0.00     0.210 C 
ENDBRANCH  14  20
ENDBRANCH  11  12
ENDBRANCH   7  10
ENDBRANCH   5   6
ENDBRANCH   1   5
BRANCH   2  22
HETATM   22  C   UNL     1      40.442 -15.877   3.008  1.00  0.00     0.097 A 
HETATM   23  C   UNL     1      41.718 -15.658   3.834  1.00  0.00     0.027 A 
HETATM   24  C   UNL     1      40.356 -15.846   4.504  1.00  0.00     0.035 A 
BRANCH  23  25
HETATM   25  C   UNL     1      42.714 -16.825   3.831  1.00  0.00    -0.044 A 
HETATM   26  C   UNL     1      43.404 -17.186   5.004  1.00  0.00     0.008 A 
HETATM   27  C   UNL     1      44.301 -18.256   5.026  1.00  0.00     0.001 A 
HETATM   28  C   UNL     1      44.533 -18.993   3.868  1.00  0.00     0.000 A 
HETATM   29  C   UNL     1      43.862 -18.662   2.694  1.00  0.00     0.001 A 
HETATM   30  C   UNL     1      42.960 -17.594   2.679  1.00  0.00     0.008 A 
ENDBRANCH  23  25
BRANCH  23  31
HETATM   31  C   UNL     1      42.362 -14.277   4.002  1.00  0.00    -0.044 A 
HETATM   32  C   UNL     1      43.164 -13.732   2.980  1.00  0.00     0.008 A 
HETATM   33  C   UNL     1      43.735 -12.462   3.092  1.00  0.00     0.001 A 
HETATM   34  C   UNL     1      43.515 -11.701   4.236  1.00  0.00     0.000 A 
HETATM   35  C   UNL     1      42.720 -12.209   5.259  1.00  0.00     0.001 A 
HETATM   36  C   UNL     1      42.145 -13.477   5.137  1.00  0.00     0.008 A 
ENDBRANCH  23  31
ENDBRANCH   2  22
TORSDOF 9
ENDMDL
MODEL 6
REMARK VINA RESULT:      -8.3      2.919      4.293
REMARK  9 active torsions:
REMARK  status: ('A' for Active; 'I' for Inactive)
REMARK    1  A    between atoms: O_2  and  C_3 
REMARK    2  A    between atoms: C_4  and  O_5 
REMARK    3  A    between atoms: C_6  and  C_7 
REMARK    4  A    between atoms: N_8  and  N_9 
REMARK       I    between atoms: N_9  and  C_10 
REMARK    5  A    between atoms: C_10  and  C_11 
REMARK    6  A    between atoms: C_11  and  N_12 
REMARK       I    between atoms: N_12  and  C_13 
REMARK    7  A    between atoms: C_13  and  C_14 
REMARK    8  A    between atoms: C_15  and  C_16 
REMARK    9  A    between atoms: C_15  and  C_22 
ROOT
HETATM    1  N   UNL     1      39.762 -13.442   4.271  1.00  0.00    -0.352 N 
HETATM    2  C   UNL     1      39.959 -13.947   5.532  1.00  0.00     0.223 C 
HETATM    3  O   UNL     1      39.500 -13.423   6.540  1.00  0.00    -0.273 OA
HETATM    4  H   UNL     1      40.033 -13.983   3.460  1.00  0.00     0.162 HD
ENDROOT
BRANCH   1   5
HETATM    5  C   UNL     1      39.055 -12.194   4.060  1.00  0.00     0.227 C 
BRANCH   5   6
HETATM    6  C   UNL     1      39.595 -11.049   4.917  1.00  0.00     0.255 C 
HETATM    7  N   UNL     1      38.662 -10.596   5.838  1.00  0.00    -0.246 N 
HETATM    8  H   UNL     1      37.692 -10.913   5.765  1.00  0.00     0.192 HD
HETATM    9  O   UNL     1      40.739 -10.622   4.772  1.00  0.00    -0.270 OA
BRANCH   7  10
HETATM   10  N   UNL     1      39.013  -9.682   6.785  1.00  0.00    -0.184 NA
HETATM   11  C   UNL     1      39.201 -10.175   7.971  1.00  0.00     0.153 C 
BRANCH  11  12
HETATM   12  C   UNL     1      39.625  -9.325   9.102  1.00  0.00     0.019 A 
HETATM   13  C   UNL     1      39.417  -9.747  10.416  1.00  0.00     0.110 A 
HETATM   14  C   UNL     1      39.835  -8.961  11.501  1.00  0.00     0.102 A 
HETATM   15  C   UNL     1      40.464  -7.738  11.256  1.00  0.00     0.040 A 
HETATM   16  C   UNL     1      40.672  -7.311   9.941  1.00  0.00     0.004 A 
HETATM   17  C   UNL     1      40.256  -8.100   8.867  1.00  0.00     0.016 A 
BRANCH  13  18
HETATM   18  O   UNL     1      38.805 -10.950  10.673  1.00  0.00    -0.357 OA
HETATM   19  H   UNL     1      39.339 -11.362  11.381  1.00  0.00     0.218 HD
ENDBRANCH  13  18
BRANCH  14  20
HETATM   20  O   UNL     1      39.576  -9.500  12.737  1.00  0.00    -0.353 OA
HETATM   21  C   UNL     1      40.609  -9.393  13.709  1.00  0.00     0.210 C 
ENDBRANCH  14  20
ENDBRANCH  11  12
ENDBRANCH   7  10
ENDBRANCH   5   6
ENDBRANCH   1   5
BRANCH   2  22
HETATM   22  C   UNL     1      40.752 -15.199   5.563  1.00  0.00     0.097 A 
HETATM   23  C   UNL     1      42.284 -15.203   5.466  1.00  0.00     0.027 A 
HETATM   24  C   UNL     1      41.565 -15.575   6.764  1.00  0.00     0.035 A 
BRANCH  23  25
HETATM   25  C   UNL     1      42.888 -16.319   4.602  1.00  0.00    -0.044 A 
HETATM   26  C   UNL     1      43.765 -17.267   5.161  1.00  0.00     0.008 A 
HETATM   27  C   UNL     1      44.311 -18.300   4.396  1.00  0.00     0.001 A 
HETATM   28  C   UNL     1      43.992 -18.408   3.046  1.00  0.00     0.000 A 
HETATM   29  C   UNL     1      43.124 -17.487   2.466  1.00  0.00     0.001 A 
HETATM   30  C   UNL     1      42.575 -16.459   3.239  1.00  0.00     0.008 A 
ENDBRANCH  23  25
BRANCH  23  31
HETATM   31  C   UNL     1      43.115 -13.915   5.505  1.00  0.00    -0.044 A 
HETATM   32  C   UNL     1      43.220 -13.096   4.365  1.00  0.00     0.008 A 
HETATM   33  C   UNL     1      43.942 -11.900   4.383  1.00  0.00     0.001 A 
HETATM   34  C   UNL     1      44.577 -11.491   5.550  1.00  0.00     0.000 A 
HETATM   35  C   UNL     1      44.484 -12.274   6.697  1.00  0.00     0.001 A 
HETATM   36  C   UNL     1      43.755 -13.466   6.674  1.00  0.00     0.008 A 
ENDBRANCH  23  31
ENDBRANCH   2  22
TORSDOF 9
ENDMDL
MODEL 7
REMARK VINA RESULT:      -8.3      2.891      4.741
REMARK  9 active torsions:
REMARK  status: ('A' for Active; 'I' for Inactive)
REMARK    1  A    between atoms: O_2  and  C_3 
REMARK    2  A    between atoms: C_4  and  O_5 
REMARK    3  A    between atoms: C_6  and  C_7 
REMARK    4  A    between atoms: N_8  and  N_9 
REMARK       I    between atoms: N_9  and  C_10 
REMARK    5  A    between atoms: C_10  and  C_11 
REMARK    6  A    between atoms: C_11  and  N_12 
REMARK       I    between atoms: N_12  and  C_13 
REMARK    7  A    between atoms: C_13  and  C_14 
REMARK    8  A    between atoms: C_15  and  C_16 
REMARK    9  A    between atoms: C_15  and  C_22 
ROOT
HETATM    1  N   UNL     1      40.955 -12.276   5.775  1.00  0.00    -0.352 N 
HETATM    2  C   UNL     1      40.769 -13.597   6.098  1.00  0.00     0.223 C 
HETATM    3  O   UNL     1      39.683 -14.057   6.431  1.00  0.00    -0.273 OA
HETATM    4  H   UNL     1      41.829 -11.972   5.367  1.00  0.00     0.162 HD
ENDROOT
BRANCH   1   5
HETATM    5  C   UNL     1      39.877 -11.313   5.887  1.00  0.00     0.227 C 
BRANCH   5   6
HETATM    6  C   UNL     1      39.756 -10.713   7.288  1.00  0.00     0.255 C 
HETATM    7  N   UNL     1      40.891 -10.005   7.657  1.00  0.00    -0.246 N 
HETATM    8  H   UNL     1      41.736 -10.079   7.081  1.00  0.00     0.192 HD
HETATM    9  O   UNL     1      38.742 -10.863   7.967  1.00  0.00    -0.270 OA
BRANCH   7  10
HETATM   10  N   UNL     1      40.910  -9.278   8.808  1.00  0.00    -0.184 NA
HETATM   11  C   UNL     1      41.789  -9.666   9.680  1.00  0.00     0.153 C 
BRANCH  11  12
HETATM   12  C   UNL     1      41.966  -8.958  10.965  1.00  0.00     0.019 A 
HETATM   13  C   UNL     1      40.854  -8.576  11.716  1.00  0.00     0.110 A 
HETATM   14  C   UNL     1      41.007  -7.924  12.950  1.00  0.00     0.102 A 
HETATM   15  C   UNL     1      42.292  -7.653  13.424  1.00  0.00     0.040 A 
HETATM   16  C   UNL     1      43.409  -8.032  12.673  1.00  0.00     0.004 A 
HETATM   17  C   UNL     1      43.249  -8.683  11.448  1.00  0.00     0.016 A 
BRANCH  13  18
HETATM   18  O   UNL     1      39.584  -8.842  11.266  1.00  0.00    -0.357 OA
HETATM   19  H   UNL     1      39.114  -7.985  11.308  1.00  0.00     0.218 HD
ENDBRANCH  13  18
BRANCH  14  20
HETATM   20  O   UNL     1      39.831  -7.615  13.588  1.00  0.00    -0.353 OA
HETATM   21  C   UNL     1      39.547  -6.232  13.767  1.00  0.00     0.210 C 
ENDBRANCH  14  20
ENDBRANCH  11  12
ENDBRANCH   7  10
ENDBRANCH   5   6
ENDBRANCH   1   5
BRANCH   2  22
HETATM   22  C   UNL     1      41.993 -14.424   5.979  1.00  0.00     0.097 A 
HETATM   23  C   UNL     1      42.347 -15.186   4.694  1.00  0.00     0.027 A 
HETATM   24  C   UNL     1      43.159 -13.973   5.152  1.00  0.00     0.035 A 
BRANCH  23  25
HETATM   25  C   UNL     1      42.928 -16.592   4.898  1.00  0.00    -0.044 A 
HETATM   26  C   UNL     1      43.574 -17.264   3.844  1.00  0.00     0.008 A 
HETATM   27  C   UNL     1      44.125 -18.537   4.016  1.00  0.00     0.001 A 
HETATM   28  C   UNL     1      44.039 -19.170   5.251  1.00  0.00     0.000 A 
HETATM   29  C   UNL     1      43.409 -18.528   6.314  1.00  0.00     0.001 A 
HETATM   30  C   UNL     1      42.866 -17.252   6.139  1.00  0.00     0.008 A 
ENDBRANCH  23  25
BRANCH  23  31
HETATM   31  C   UNL     1      41.560 -15.011   3.390  1.00  0.00    -0.044 A 
HETATM   32  C   UNL     1      41.980 -14.082   2.419  1.00  0.00     0.008 A 
HETATM   33  C   UNL     1      41.302 -13.927   1.207  1.00  0.00     0.001 A 
HETATM   34  C   UNL     1      40.181 -14.705   0.936  1.00  0.00     0.000 A 
HETATM   35  C   UNL     1      39.747 -15.638   1.871  1.00  0.00     0.001 A 
HETATM   36  C   UNL     1      40.434 -15.794   3.079  1.00  0.00     0.008 A 
ENDBRANCH  23  31
ENDBRANCH   2  22
TORSDOF 9
ENDMDL
MODEL 8
REMARK VINA RESULT:      -8.2      2.607      4.977
REMARK  9 active torsions:
REMARK  status: ('A' for Active; 'I' for Inactive)
REMARK    1  A    between atoms: O_2  and  C_3 
REMARK    2  A    between atoms: C_4  and  O_5 
REMARK    3  A    between atoms: C_6  and  C_7 
REMARK    4  A    between atoms: N_8  and  N_9 
REMARK       I    between atoms: N_9  and  C_10 
REMARK    5  A    between atoms: C_10  and  C_11 
REMARK    6  A    between atoms: C_11  and  N_12 
REMARK       I    between atoms: N_12  and  C_13 
REMARK    7  A    between atoms: C_13  and  C_14 
REMARK    8  A    between atoms: C_15  and  C_16 
REMARK    9  A    between atoms: C_15  and  C_22 
ROOT
HETATM    1  N   UNL     1      44.062 -12.226   5.819  1.00  0.00    -0.352 N 
HETATM    2  C   UNL     1      43.287 -13.290   6.208  1.00  0.00     0.223 C 
HETATM    3  O   UNL     1      43.540 -13.975   7.193  1.00  0.00    -0.273 OA
HETATM    4  H   UNL     1      43.738 -11.603   5.091  1.00  0.00     0.162 HD
ENDROOT
BRANCH   1   5
HETATM    5  C   UNL     1      45.290 -11.892   6.514  1.00  0.00     0.227 C 
BRANCH   5   6
HETATM    6  C   UNL     1      45.076 -10.904   7.661  1.00  0.00     0.255 C 
HETATM    7  N   UNL     1      44.240 -11.412   8.645  1.00  0.00    -0.246 N 
HETATM    8  H   UNL     1      43.720 -12.276   8.462  1.00  0.00     0.192 HD
HETATM    9  O   UNL     1      45.616  -9.799   7.667  1.00  0.00    -0.270 OA
BRANCH   7  10
HETATM   10  N   UNL     1      44.052 -10.735   9.811  1.00  0.00    -0.184 NA
HETATM   11  C   UNL     1      42.929 -10.089   9.889  1.00  0.00     0.153 C 
BRANCH  11  12
HETATM   12  C   UNL     1      42.554  -9.337  11.104  1.00  0.00     0.019 A 
HETATM   13  C   UNL     1      41.219  -9.271  11.506  1.00  0.00     0.110 A 
HETATM   14  C   UNL     1      40.850  -8.579  12.670  1.00  0.00     0.102 A 
HETATM   15  C   UNL     1      41.836  -7.947  13.430  1.00  0.00     0.040 A 
HETATM   16  C   UNL     1      43.174  -8.008  13.029  1.00  0.00     0.004 A 
HETATM   17  C   UNL     1      43.534  -8.701  11.871  1.00  0.00     0.016 A 
BRANCH  13  18
HETATM   18  O   UNL     1      40.239  -9.893  10.773  1.00  0.00    -0.357 OA
HETATM   19  H   UNL     1      39.483  -9.992  11.386  1.00  0.00     0.218 HD
ENDBRANCH  13  18
BRANCH  14  20
HETATM   20  O   UNL     1      39.506  -8.603  12.953  1.00  0.00    -0.353 OA
HETATM   21  C   UNL     1      38.894  -7.353  13.248  1.00  0.00     0.210 C 
ENDBRANCH  14  20
ENDBRANCH  11  12
ENDBRANCH   7  10
ENDBRANCH   5   6
ENDBRANCH   1   5
BRANCH   2  22
HETATM   22  C   UNL     1      42.102 -13.518   5.350  1.00  0.00     0.097 A 
HETATM   23  C   UNL     1      41.807 -14.879   4.701  1.00  0.00     0.027 A 
HETATM   24  C   UNL     1      40.936 -14.328   5.832  1.00  0.00     0.035 A 
BRANCH  23  25
HETATM   25  C   UNL     1      41.281 -14.824   3.261  1.00  0.00    -0.044 A 
HETATM   26  C   UNL     1      40.317 -15.745   2.811  1.00  0.00     0.008 A 
HETATM   27  C   UNL     1      39.812 -15.699   1.508  1.00  0.00     0.001 A 
HETATM   28  C   UNL     1      40.264 -14.727   0.622  1.00  0.00     0.000 A 
HETATM   29  C   UNL     1      41.214 -13.800   1.039  1.00  0.00     0.001 A 
HETATM   30  C   UNL     1      41.711 -13.846   2.346  1.00  0.00     0.008 A 
ENDBRANCH  23  25
BRANCH  23  31
HETATM   31  C   UNL     1      42.615 -16.140   5.030  1.00  0.00    -0.044 A 
HETATM   32  C   UNL     1      42.370 -16.857   6.217  1.00  0.00     0.008 A 
HETATM   33  C   UNL     1      43.067 -18.028   6.525  1.00  0.00     0.001 A 
HETATM   34  C   UNL     1      44.030 -18.514   5.647  1.00  0.00     0.000 A 
HETATM   35  C   UNL     1      44.288 -17.832   4.462  1.00  0.00     0.001 A 
HETATM   36  C   UNL     1      43.583 -16.664   4.156  1.00  0.00     0.008 A 
ENDBRANCH  23  31
ENDBRANCH   2  22
TORSDOF 9
ENDMDL
MODEL 9
REMARK VINA RESULT:      -8.2      3.084      4.873
REMARK  9 active torsions:
REMARK  status: ('A' for Active; 'I' for Inactive)
REMARK    1  A    between atoms: O_2  and  C_3 
REMARK    2  A    between atoms: C_4  and  O_5 
REMARK    3  A    between atoms: C_6  and  C_7 
REMARK    4  A    between atoms: N_8  and  N_9 
REMARK       I    between atoms: N_9  and  C_10 
REMARK    5  A    between atoms: C_10  and  C_11 
REMARK    6  A    between atoms: C_11  and  N_12 
REMARK       I    between atoms: N_12  and  C_13 
REMARK    7  A    between atoms: C_13  and  C_14 
REMARK    8  A    between atoms: C_15  and  C_16 
REMARK    9  A    between atoms: C_15  and  C_22 
ROOT
HETATM    1  N   UNL     1      39.807 -12.491   6.473  1.00  0.00    -0.352 N 
HETATM    2  C   UNL     1      39.966 -13.031   5.221  1.00  0.00     0.223 C 
HETATM    3  O   UNL     1      39.662 -12.436   4.194  1.00  0.00    -0.273 OA
HETATM    4  H   UNL     1      40.204 -12.955   7.279  1.00  0.00     0.162 HD
ENDROOT
BRANCH   1   5
HETATM    5  C   UNL     1      39.185 -11.195   6.662  1.00  0.00     0.227 C 
BRANCH   5   6
HETATM    6  C   UNL     1      40.055 -10.228   7.466  1.00  0.00     0.255 C 
HETATM    7  N   UNL     1      39.418  -9.775   8.612  1.00  0.00    -0.246 N 
HETATM    8  H   UNL     1      38.419  -9.965   8.737  1.00  0.00     0.192 HD
HETATM    9  O   UNL     1      41.189  -9.926   7.099  1.00  0.00    -0.270 OA
BRANCH   7  10
HETATM   10  N   UNL     1      40.090  -9.024   9.527  1.00  0.00    -0.184 NA
HETATM   11  C   UNL     1      40.576  -9.694  10.526  1.00  0.00     0.153 C 
BRANCH  11  12
HETATM   12  C   UNL     1      41.368  -9.035  11.586  1.00  0.00     0.019 A 
HETATM   13  C   UNL     1      40.733  -8.501  12.708  1.00  0.00     0.110 A 
HETATM   14  C   UNL     1      41.475  -7.892  13.734  1.00  0.00     0.102 A 
HETATM   15  C   UNL     1      42.864  -7.820  13.621  1.00  0.00     0.040 A 
HETATM   16  C   UNL     1      43.503  -8.352  12.497  1.00  0.00     0.004 A 
HETATM   17  C   UNL     1      42.760  -8.959  11.482  1.00  0.00     0.016 A 
BRANCH  13  18
HETATM   18  O   UNL     1      39.368  -8.570  12.836  1.00  0.00    -0.357 OA
HETATM   19  H   UNL     1      39.082  -9.229  12.174  1.00  0.00     0.218 HD
ENDBRANCH  13  18
BRANCH  14  20
HETATM   20  O   UNL     1      40.725  -7.419  14.782  1.00  0.00    -0.353 OA
HETATM   21  C   UNL     1      41.129  -7.817  16.087  1.00  0.00     0.210 C 
ENDBRANCH  14  20
ENDBRANCH  11  12
ENDBRANCH   7  10
ENDBRANCH   5   6
ENDBRANCH   1   5
BRANCH   2  22
HETATM   22  C   UNL     1      40.566 -14.386   5.221  1.00  0.00     0.097 A 
HETATM   23  C   UNL     1      42.085 -14.611   5.259  1.00  0.00     0.027 A 
HETATM   24  C   UNL     1      41.197 -14.957   6.455  1.00  0.00     0.035 A 
BRANCH  23  25
HETATM   25  C   UNL     1      42.606 -15.744   4.365  1.00  0.00    -0.044 A 
HETATM   26  C   UNL     1      43.239 -16.870   4.926  1.00  0.00     0.008 A 
HETATM   27  C   UNL     1      43.705 -17.920   4.130  1.00  0.00     0.001 A 
HETATM   28  C   UNL     1      43.549 -17.867   2.749  1.00  0.00     0.000 A 
HETATM   29  C   UNL     1      42.924 -16.768   2.166  1.00  0.00     0.001 A 
HETATM   30  C   UNL     1      42.453 -15.723   2.967  1.00  0.00     0.008 A 
ENDBRANCH  23  25
BRANCH  23  31
HETATM   31  C   UNL     1      43.081 -13.466   5.473  1.00  0.00    -0.044 A 
HETATM   32  C   UNL     1      43.322 -12.526   4.452  1.00  0.00     0.008 A 
HETATM   33  C   UNL     1      44.199 -11.453   4.633  1.00  0.00     0.001 A 
HETATM   34  C   UNL     1      44.858 -11.292   5.847  1.00  0.00     0.000 A 
HETATM   35  C   UNL     1      44.633 -12.199   6.878  1.00  0.00     0.001 A 
HETATM   36  C   UNL     1      43.749 -13.267   6.694  1.00  0.00     0.008 A 
ENDBRANCH  23  31
ENDBRANCH   2  22
TORSDOF 9
ENDMDL
MODEL 10
REMARK VINA RESULT:      -8.2      3.482      6.758
REMARK  9 active torsions:
REMARK  status: ('A' for Active; 'I' for Inactive)
REMARK    1  A    between atoms: O_2  and  C_3 
REMARK    2  A    between atoms: C_4  and  O_5 
REMARK    3  A    between atoms: C_6  and  C_7 
REMARK    4  A    between atoms: N_8  and  N_9 
REMARK       I    between atoms: N_9  and  C_10 
REMARK    5  A    between atoms: C_10  and  C_11 
REMARK    6  A    between atoms: C_11  and  N_12 
REMARK       I    between atoms: N_12  and  C_13 
REMARK    7  A    between atoms: C_13  and  C_14 
REMARK    8  A    between atoms: C_15  and  C_16 
REMARK    9  A    between atoms: C_15  and  C_22 
ROOT
HETATM    1  N   UNL     1      41.234 -13.796   6.296  1.00  0.00    -0.352 N 
HETATM    2  C   UNL     1      40.980 -15.138   6.435  1.00  0.00     0.223 C 
HETATM    3  O   UNL     1      39.847 -15.598   6.518  1.00  0.00    -0.273 OA
HETATM    4  H   UNL     1      42.171 -13.477   6.085  1.00  0.00     0.162 HD
ENDROOT
BRANCH   1   5
HETATM    5  C   UNL     1      40.164 -12.819   6.320  1.00  0.00     0.227 C 
BRANCH   5   6
HETATM    6  C   UNL     1      39.801 -12.298   4.929  1.00  0.00     0.255 C 
HETATM    7  N   UNL     1      39.596 -13.325   4.019  1.00  0.00    -0.246 N 
HETATM    8  H   UNL     1      39.857 -14.281   4.277  1.00  0.00     0.192 HD
HETATM    9  O   UNL     1      39.705 -11.094   4.698  1.00  0.00    -0.270 OA
BRANCH   7  10
HETATM   10  N   UNL     1      39.121 -13.060   2.771  1.00  0.00    -0.184 NA
HETATM   11  C   UNL     1      39.928 -12.377   2.018  1.00  0.00     0.153 C 
BRANCH  11  12
HETATM   12  C   UNL     1      39.581 -12.039   0.622  1.00  0.00     0.019 A 
HETATM   13  C   UNL     1      38.288 -11.626   0.298  1.00  0.00     0.110 A 
HETATM   14  C   UNL     1      37.951 -11.280  -1.020  1.00  0.00     0.102 A 
HETATM   15  C   UNL     1      38.925 -11.356  -2.017  1.00  0.00     0.040 A 
HETATM   16  C   UNL     1      40.222 -11.772  -1.697  1.00  0.00     0.004 A 
HETATM   17  C   UNL     1      40.551 -12.112  -0.383  1.00  0.00     0.016 A 
BRANCH  13  18
HETATM   18  O   UNL     1      37.321 -11.540   1.269  1.00  0.00    -0.357 OA
HETATM   19  H   UNL     1      36.828 -10.719   1.067  1.00  0.00     0.218 HD
ENDBRANCH  13  18
BRANCH  14  20
HETATM   20  O   UNL     1      36.648 -10.882  -1.195  1.00  0.00    -0.353 OA
HETATM   21  C   UNL     1      36.411  -9.891  -2.188  1.00  0.00     0.210 C 
ENDBRANCH  14  20
ENDBRANCH  11  12
ENDBRANCH   7  10
ENDBRANCH   5   6
ENDBRANCH   1   5
BRANCH   2  22
HETATM   22  C   UNL     1      42.197 -15.984   6.445  1.00  0.00     0.097 A 
HETATM   23  C   UNL     1      42.849 -16.499   5.154  1.00  0.00     0.027 A 
HETATM   24  C   UNL     1      43.527 -15.438   6.023  1.00  0.00     0.035 A 
BRANCH  23  25
HETATM   25  C   UNL     1      43.364 -17.944   5.205  1.00  0.00    -0.044 A 
HETATM   26  C   UNL     1      43.227 -18.716   6.373  1.00  0.00     0.008 A 
HETATM   27  C   UNL     1      43.673 -20.039   6.434  1.00  0.00     0.001 A 
HETATM   28  C   UNL     1      44.270 -20.622   5.321  1.00  0.00     0.000 A 
HETATM   29  C   UNL     1      44.415 -19.885   4.149  1.00  0.00     0.001 A 
HETATM   30  C   UNL     1      43.961 -18.563   4.092  1.00  0.00     0.008 A 
ENDBRANCH  23  25
BRANCH  23  31
HETATM   31  C   UNL     1      42.398 -16.037   3.763  1.00  0.00    -0.044 A 
HETATM   32  C   UNL     1      43.192 -15.149   3.011  1.00  0.00     0.008 A 
HETATM   33  C   UNL     1      42.821 -14.740   1.727  1.00  0.00     0.001 A 
HETATM   34  C   UNL     1      41.643 -15.215   1.161  1.00  0.00     0.000 A 
HETATM   35  C   UNL     1      40.843 -16.100   1.875  1.00  0.00     0.001 A 
HETATM   36  C   UNL     1      41.222 -16.512   3.157  1.00  0.00     0.008 A 
ENDBRANCH  23  31
ENDBRANCH   2  22
TORSDOF 9
ENDMDL
