MODEL 1
REMARK VINA RESULT:      -7.6      0.000      0.000
REMARK  3 active torsions:
REMARK  status: ('A' for Active; 'I' for Inactive)
REMARK    1  A    between atoms: C_9  and  C_10 
REMARK    2  A    between atoms: C_16  and  C_17 
REMARK       I    between atoms: C_17  and  N_18 
REMARK    3  A    between atoms: N_18  and  C_19 
ROOT
HETATM    1  C   UNL     1      43.160 -16.383   1.626  1.00  0.00     0.070 C 
HETATM    2  C   UNL     1      42.757 -15.997   3.028  1.00  0.00     0.037 C 
HETATM    3  N   UNL     1      43.664 -16.344   4.025  1.00  0.00    -0.192 N 
HETATM    4  C   UNL     1      43.338 -16.365   5.333  1.00  0.00     0.725 A 
HETATM    5  N   UNL     1      42.143 -15.836   5.734  1.00  0.00    -0.084 N 
HETATM    6  N   UNL     1      41.941 -16.021   7.055  1.00  0.00    -0.149 NA
HETATM    7  C   UNL     1      43.082 -16.633   7.393  1.00  0.00     0.275 A 
HETATM    8  N   UNL     1      43.967 -16.856   6.369  1.00  0.00    -0.054 NA
HETATM    9  C   UNL     1      41.187 -15.188   4.828  1.00  0.00     0.202 C 
HETATM   10  C   UNL     1      41.570 -15.429   3.368  1.00  0.00     0.062 C 
HETATM   11  H   UNL     1      44.494 -16.861   3.743  1.00  0.00     0.184 HD
ENDROOT
BRANCH  10  12
HETATM   12  C   UNL     1      40.476 -15.129   2.405  1.00  0.00     0.256 C 
HETATM   13  N   UNL     1      40.715 -14.042   1.595  1.00  0.00    -0.322 N 
HETATM   14  H   UNL     1      41.556 -13.505   1.767  1.00  0.00     0.169 HD
HETATM   15  O   UNL     1      39.463 -15.816   2.429  1.00  0.00    -0.267 OA
BRANCH  13  16
HETATM   16  C   UNL     1      39.926 -13.629   0.498  1.00  0.00     0.052 A 
HETATM   17  C   UNL     1      39.200 -12.443   0.433  1.00  0.00     0.145 A 
HETATM   18  N   UNL     1      38.412 -12.087  -0.616  1.00  0.00    -0.271 NA
HETATM   19  C   UNL     1      38.342 -12.951  -1.647  1.00  0.00     0.116 A 
HETATM   20  C   UNL     1      39.027 -14.152  -1.684  1.00  0.00     0.021 A 
HETATM   21  C   UNL     1      39.831 -14.491  -0.596  1.00  0.00     0.032 A 
ENDBRANCH  13  16
ENDBRANCH  10  12
BRANCH   9  22
HETATM   22  C   UNL     1      41.077 -13.700   5.146  1.00  0.00    -0.025 A 
HETATM   23  C   UNL     1      39.936 -13.145   5.744  1.00  0.00     0.029 A 
HETATM   24  C   UNL     1      39.911 -11.784   6.004  1.00  0.00     0.117 A 
HETATM   25  N   UNL     1      40.935 -10.950   5.733  1.00  0.00    -0.273 NA
HETATM   26  C   UNL     1      42.029 -11.497   5.164  1.00  0.00     0.117 A 
HETATM   27  C   UNL     1      42.149 -12.844   4.861  1.00  0.00     0.029 A 
ENDBRANCH   9  22
TORSDOF 3
ENDMDL
MODEL 2
REMARK VINA RESULT:      -7.6      2.007      5.807
REMARK  3 active torsions:
REMARK  status: ('A' for Active; 'I' for Inactive)
REMARK    1  A    between atoms: C_9  and  C_10 
REMARK    2  A    between atoms: C_16  and  C_17 
REMARK       I    between atoms: C_17  and  N_18 
REMARK    3  A    between atoms: N_18  and  C_19 
ROOT
HETATM    1  C   UNL     1      43.573 -14.217   6.908  1.00  0.00     0.070 C 
HETATM    2  C   UNL     1      42.446 -13.592   6.124  1.00  0.00     0.037 C 
HETATM    3  N   UNL     1      42.209 -12.246   6.392  1.00  0.00    -0.192 N 
HETATM    4  C   UNL     1      41.071 -11.620   6.032  1.00  0.00     0.725 A 
HETATM    5  N   UNL     1      40.193 -12.253   5.197  1.00  0.00    -0.084 N 
HETATM    6  N   UNL     1      39.074 -11.523   5.014  1.00  0.00    -0.149 NA
HETATM    7  C   UNL     1      39.368 -10.438   5.739  1.00  0.00     0.275 A 
HETATM    8  N   UNL     1      40.585 -10.454   6.373  1.00  0.00    -0.054 NA
HETATM    9  C   UNL     1      40.429 -13.578   4.611  1.00  0.00     0.202 C 
HETATM   10  C   UNL     1      41.629 -14.260   5.268  1.00  0.00     0.062 C 
HETATM   11  H   UNL     1      42.775 -11.806   7.114  1.00  0.00     0.184 HD
ENDROOT
BRANCH  10  12
HETATM   12  C   UNL     1      41.708 -15.721   4.999  1.00  0.00     0.256 C 
HETATM   13  N   UNL     1      42.742 -16.090   4.170  1.00  0.00    -0.322 N 
HETATM   14  H   UNL     1      43.302 -15.352   3.761  1.00  0.00     0.169 HD
HETATM   15  O   UNL     1      40.857 -16.457   5.480  1.00  0.00    -0.267 OA
BRANCH  13  16
HETATM   16  C   UNL     1      43.144 -17.412   3.874  1.00  0.00     0.052 A 
HETATM   17  C   UNL     1      43.904 -18.226   4.710  1.00  0.00     0.145 A 
HETATM   18  N   UNL     1      44.315 -19.480   4.386  1.00  0.00    -0.271 NA
HETATM   19  C   UNL     1      43.955 -19.946   3.173  1.00  0.00     0.116 A 
HETATM   20  C   UNL     1      43.199 -19.221   2.271  1.00  0.00     0.021 A 
HETATM   21  C   UNL     1      42.786 -17.938   2.631  1.00  0.00     0.032 A 
ENDBRANCH  13  16
ENDBRANCH  10  12
BRANCH   9  22
HETATM   22  C   UNL     1      40.597 -13.469   3.098  1.00  0.00    -0.025 A 
HETATM   23  C   UNL     1      41.525 -12.598   2.509  1.00  0.00     0.029 A 
HETATM   24  C   UNL     1      41.620 -12.557   1.127  1.00  0.00     0.117 A 
HETATM   25  N   UNL     1      40.882 -13.325   0.301  1.00  0.00    -0.273 NA
HETATM   26  C   UNL     1      39.998 -14.164   0.881  1.00  0.00     0.117 A 
HETATM   27  C   UNL     1      39.824 -14.275   2.251  1.00  0.00     0.029 A 
ENDBRANCH   9  22
TORSDOF 3
ENDMDL
MODEL 3
REMARK VINA RESULT:      -7.5      2.238      6.003
REMARK  3 active torsions:
REMARK  status: ('A' for Active; 'I' for Inactive)
REMARK    1  A    between atoms: C_9  and  C_10 
REMARK    2  A    between atoms: C_16  and  C_17 
REMARK       I    between atoms: C_17  and  N_18 
REMARK    3  A    between atoms: N_18  and  C_19 
ROOT
HETATM    1  C   UNL     1      39.857 -15.731   0.938  1.00  0.00     0.070 C 
HETATM    2  C   UNL     1      40.396 -14.351   1.222  1.00  0.00     0.037 C 
HETATM    3  N   UNL     1      39.569 -13.298   0.838  1.00  0.00    -0.192 N 
HETATM    4  C   UNL     1      40.008 -12.029   0.724  1.00  0.00     0.725 A 
HETATM    5  N   UNL     1      41.251 -11.706   1.193  1.00  0.00    -0.084 N 
HETATM    6  N   UNL     1      41.562 -10.422   0.919  1.00  0.00    -0.149 NA
HETATM    7  C   UNL     1      40.436 -10.021   0.318  1.00  0.00     0.275 A 
HETATM    8  N   UNL     1      39.457 -10.972   0.185  1.00  0.00    -0.054 NA
HETATM    9  C   UNL     1      42.144 -12.653   1.871  1.00  0.00     0.202 C 
HETATM   10  C   UNL     1      41.625 -14.085   1.734  1.00  0.00     0.062 C 
HETATM   11  H   UNL     1      38.700 -13.535   0.363  1.00  0.00     0.184 HD
ENDROOT
BRANCH  10  12
HETATM   12  C   UNL     1      42.640 -15.122   2.066  1.00  0.00     0.256 C 
HETATM   13  N   UNL     1      42.216 -16.057   2.982  1.00  0.00    -0.322 N 
HETATM   14  H   UNL     1      41.304 -15.924   3.401  1.00  0.00     0.169 HD
HETATM   15  O   UNL     1      43.749 -15.049   1.553  1.00  0.00    -0.267 OA
BRANCH  13  16
HETATM   16  C   UNL     1      42.909 -17.231   3.357  1.00  0.00     0.052 A 
HETATM   17  C   UNL     1      43.572 -17.418   4.568  1.00  0.00     0.145 A 
HETATM   18  N   UNL     1      44.269 -18.539   4.890  1.00  0.00    -0.271 NA
HETATM   19  C   UNL     1      44.310 -19.519   3.965  1.00  0.00     0.116 A 
HETATM   20  C   UNL     1      43.682 -19.435   2.736  1.00  0.00     0.021 A 
HETATM   21  C   UNL     1      42.970 -18.275   2.433  1.00  0.00     0.032 A 
ENDBRANCH  13  16
ENDBRANCH  10  12
BRANCH   9  22
HETATM   22  C   UNL     1      42.331 -12.256   3.332  1.00  0.00    -0.025 A 
HETATM   23  C   UNL     1      41.326 -12.440   4.293  1.00  0.00     0.029 A 
HETATM   24  C   UNL     1      41.572 -12.054   5.601  1.00  0.00     0.117 A 
HETATM   25  N   UNL     1      42.738 -11.525   6.021  1.00  0.00    -0.273 NA
HETATM   26  C   UNL     1      43.700 -11.359   5.088  1.00  0.00     0.117 A 
HETATM   27  C   UNL     1      43.549 -11.707   3.755  1.00  0.00     0.029 A 
ENDBRANCH   9  22
TORSDOF 3
ENDMDL
MODEL 4
REMARK VINA RESULT:      -7.1      3.123      6.485
REMARK  3 active torsions:
REMARK  status: ('A' for Active; 'I' for Inactive)
REMARK    1  A    between atoms: C_9  and  C_10 
REMARK    2  A    between atoms: C_16  and  C_17 
REMARK       I    between atoms: C_17  and  N_18 
REMARK    3  A    between atoms: N_18  and  C_19 
ROOT
HETATM    1  C   UNL     1      42.564 -15.551   7.417  1.00  0.00     0.070 C 
HETATM    2  C   UNL     1      42.570 -15.218   5.945  1.00  0.00     0.037 C 
HETATM    3  N   UNL     1      42.495 -16.312   5.087  1.00  0.00    -0.192 N 
HETATM    4  C   UNL     1      42.801 -16.234   3.776  1.00  0.00     0.725 A 
HETATM    5  N   UNL     1      42.996 -15.006   3.207  1.00  0.00    -0.084 N 
HETATM    6  N   UNL     1      43.379 -15.117   1.918  1.00  0.00    -0.149 NA
HETATM    7  C   UNL     1      43.352 -16.447   1.768  1.00  0.00     0.275 A 
HETATM    8  N   UNL     1      42.996 -17.167   2.881  1.00  0.00    -0.054 NA
HETATM    9  C   UNL     1      42.845 -13.735   3.925  1.00  0.00     0.202 C 
HETATM   10  C   UNL     1      42.721 -13.971   5.430  1.00  0.00     0.062 C 
HETATM   11  H   UNL     1      42.488 -17.239   5.509  1.00  0.00     0.184 HD
ENDROOT
BRANCH  10  12
HETATM   12  C   UNL     1      42.933 -12.745   6.247  1.00  0.00     0.256 C 
HETATM   13  N   UNL     1      44.183 -12.650   6.815  1.00  0.00    -0.322 N 
HETATM   14  H   UNL     1      44.812 -13.435   6.698  1.00  0.00     0.169 HD
HETATM   15  O   UNL     1      42.005 -11.959   6.385  1.00  0.00    -0.267 OA
BRANCH  13  16
HETATM   16  C   UNL     1      44.705 -11.531   7.502  1.00  0.00     0.052 A 
HETATM   17  C   UNL     1      44.075 -10.871   8.555  1.00  0.00     0.145 A 
HETATM   18  N   UNL     1      44.576  -9.770   9.173  1.00  0.00    -0.271 NA
HETATM   19  C   UNL     1      45.757  -9.301   8.723  1.00  0.00     0.116 A 
HETATM   20  C   UNL     1      46.465  -9.885   7.688  1.00  0.00     0.021 A 
HETATM   21  C   UNL     1      45.930 -11.017   7.074  1.00  0.00     0.032 A 
ENDBRANCH  13  16
ENDBRANCH  10  12
BRANCH   9  22
HETATM   22  C   UNL     1      41.659 -12.950   3.374  1.00  0.00    -0.025 A 
HETATM   23  C   UNL     1      40.334 -13.373   3.553  1.00  0.00     0.029 A 
HETATM   24  C   UNL     1      39.309 -12.604   3.024  1.00  0.00     0.117 A 
HETATM   25  N   UNL     1      39.505 -11.450   2.356  1.00  0.00    -0.273 NA
HETATM   26  C   UNL     1      40.784 -11.050   2.197  1.00  0.00     0.117 A 
HETATM   27  C   UNL     1      41.877 -11.751   2.683  1.00  0.00     0.029 A 
ENDBRANCH   9  22
TORSDOF 3
ENDMDL
MODEL 5
REMARK VINA RESULT:      -7.1      3.038      6.577
REMARK  3 active torsions:
REMARK  status: ('A' for Active; 'I' for Inactive)
REMARK    1  A    between atoms: C_9  and  C_10 
REMARK    2  A    between atoms: C_16  and  C_17 
REMARK       I    between atoms: C_17  and  N_18 
REMARK    3  A    between atoms: N_18  and  C_19 
ROOT
HETATM    1  C   UNL     1      43.704 -14.581   6.446  1.00  0.00     0.070 C 
HETATM    2  C   UNL     1      42.579 -14.155   5.535  1.00  0.00     0.037 C 
HETATM    3  N   UNL     1      41.799 -15.191   5.027  1.00  0.00    -0.192 N 
HETATM    4  C   UNL     1      40.971 -15.033   3.975  1.00  0.00     0.725 A 
HETATM    5  N   UNL     1      40.720 -13.774   3.503  1.00  0.00    -0.084 N 
HETATM    6  N   UNL     1      39.947 -13.808   2.398  1.00  0.00    -0.149 NA
HETATM    7  C   UNL     1      39.735 -15.125   2.288  1.00  0.00     0.275 A 
HETATM    8  N   UNL     1      40.339 -15.909   3.238  1.00  0.00    -0.054 NA
HETATM    9  C   UNL     1      41.262 -12.550   4.105  1.00  0.00     0.202 C 
HETATM   10  C   UNL     1      42.345 -12.879   5.132  1.00  0.00     0.062 C 
HETATM   11  H   UNL     1      42.069 -16.142   5.270  1.00  0.00     0.184 HD
ENDROOT
BRANCH  10  12
HETATM   12  C   UNL     1      43.186 -11.711   5.509  1.00  0.00     0.256 C 
HETATM   13  N   UNL     1      43.019 -11.288   6.808  1.00  0.00    -0.322 N 
HETATM   14  H   UNL     1      42.303 -11.742   7.361  1.00  0.00     0.169 HD
HETATM   15  O   UNL     1      43.907 -11.203   4.660  1.00  0.00    -0.267 OA
BRANCH  13  16
HETATM   16  C   UNL     1      43.794 -10.310   7.473  1.00  0.00     0.052 A 
HETATM   17  C   UNL     1      43.371  -9.017   7.769  1.00  0.00     0.145 A 
HETATM   18  N   UNL     1      44.150  -8.080   8.371  1.00  0.00    -0.271 NA
HETATM   19  C   UNL     1      45.407  -8.445   8.693  1.00  0.00     0.116 A 
HETATM   20  C   UNL     1      45.922  -9.705   8.446  1.00  0.00     0.021 A 
HETATM   21  C   UNL     1      45.100 -10.649   7.831  1.00  0.00     0.032 A 
ENDBRANCH  13  16
ENDBRANCH  10  12
BRANCH   9  22
HETATM   22  C   UNL     1      40.139 -11.714   4.712  1.00  0.00    -0.025 A 
HETATM   23  C   UNL     1      39.592 -12.000   5.972  1.00  0.00     0.029 A 
HETATM   24  C   UNL     1      38.574 -11.193   6.457  1.00  0.00     0.117 A 
HETATM   25  N   UNL     1      38.084 -10.125   5.797  1.00  0.00    -0.273 NA
HETATM   26  C   UNL     1      38.624  -9.857   4.590  1.00  0.00     0.117 A 
HETATM   27  C   UNL     1      39.640 -10.606   4.016  1.00  0.00     0.029 A 
ENDBRANCH   9  22
TORSDOF 3
ENDMDL
MODEL 6
REMARK VINA RESULT:      -6.9      2.681      5.233
REMARK  3 active torsions:
REMARK  status: ('A' for Active; 'I' for Inactive)
REMARK    1  A    between atoms: C_9  and  C_10 
REMARK    2  A    between atoms: C_16  and  C_17 
REMARK       I    between atoms: C_17  and  N_18 
REMARK    3  A    between atoms: N_18  and  C_19 
ROOT
HETATM    1  C   UNL     1      42.961 -15.570   8.385  1.00  0.00     0.070 C 
HETATM    2  C   UNL     1      43.112 -16.178   7.012  1.00  0.00     0.037 C 
HETATM    3  N   UNL     1      43.115 -17.570   6.974  1.00  0.00    -0.192 N 
HETATM    4  C   UNL     1      43.548 -18.270   5.907  1.00  0.00     0.725 A 
HETATM    5  N   UNL     1      43.804 -17.614   4.735  1.00  0.00    -0.084 N 
HETATM    6  N   UNL     1      44.311 -18.450   3.804  1.00  0.00    -0.149 NA
HETATM    7  C   UNL     1      44.290 -19.606   4.477  1.00  0.00     0.275 A 
HETATM    8  N   UNL     1      43.824 -19.541   5.765  1.00  0.00    -0.054 NA
HETATM    9  C   UNL     1      43.592 -16.176   4.537  1.00  0.00     0.202 C 
HETATM   10  C   UNL     1      43.320 -15.476   5.868  1.00  0.00     0.062 C 
HETATM   11  H   UNL     1      43.060 -18.062   7.864  1.00  0.00     0.184 HD
ENDROOT
BRANCH  10  12
HETATM   12  C   UNL     1      43.459 -13.995   5.805  1.00  0.00     0.256 C 
HETATM   13  N   UNL     1      42.370 -13.346   5.271  1.00  0.00    -0.322 N 
HETATM   14  H   UNL     1      41.617 -13.915   4.905  1.00  0.00     0.169 HD
HETATM   15  O   UNL     1      44.507 -13.484   6.177  1.00  0.00    -0.267 OA
BRANCH  13  16
HETATM   16  C   UNL     1      42.168 -11.947   5.234  1.00  0.00     0.052 A 
HETATM   17  C   UNL     1      42.020 -11.128   6.351  1.00  0.00     0.145 A 
HETATM   18  N   UNL     1      41.782  -9.792   6.290  1.00  0.00    -0.271 NA
HETATM   19  C   UNL     1      41.686  -9.244   5.063  1.00  0.00     0.116 A 
HETATM   20  C   UNL     1      41.822  -9.967   3.892  1.00  0.00     0.021 A 
HETATM   21  C   UNL     1      42.069 -11.337   3.983  1.00  0.00     0.032 A 
ENDBRANCH  13  16
ENDBRANCH  10  12
BRANCH   9  22
HETATM   22  C   UNL     1      42.470 -15.937   3.531  1.00  0.00    -0.025 A 
HETATM   23  C   UNL     1      42.711 -15.423   2.248  1.00  0.00     0.029 A 
HETATM   24  C   UNL     1      41.639 -15.234   1.390  1.00  0.00     0.117 A 
HETATM   25  N   UNL     1      40.364 -15.536   1.706  1.00  0.00    -0.273 NA
HETATM   26  C   UNL     1      40.146 -16.037   2.940  1.00  0.00     0.117 A 
HETATM   27  C   UNL     1      41.149 -16.256   3.872  1.00  0.00     0.029 A 
ENDBRANCH   9  22
TORSDOF 3
ENDMDL
MODEL 7
REMARK VINA RESULT:      -6.9      2.575      6.556
REMARK  3 active torsions:
REMARK  status: ('A' for Active; 'I' for Inactive)
REMARK    1  A    between atoms: C_9  and  C_10 
REMARK    2  A    between atoms: C_16  and  C_17 
REMARK       I    between atoms: C_17  and  N_18 
REMARK    3  A    between atoms: N_18  and  C_19 
ROOT
HETATM    1  C   UNL     1      40.963 -16.353   2.273  1.00  0.00     0.070 C 
HETATM    2  C   UNL     1      40.732 -15.164   1.374  1.00  0.00     0.037 C 
HETATM    3  N   UNL     1      39.773 -15.345   0.381  1.00  0.00    -0.192 N 
HETATM    4  C   UNL     1      39.663 -14.527  -0.685  1.00  0.00     0.725 A 
HETATM    5  N   UNL     1      40.371 -13.359  -0.709  1.00  0.00    -0.084 N 
HETATM    6  N   UNL     1      40.212 -12.710  -1.882  1.00  0.00    -0.149 NA
HETATM    7  C   UNL     1      39.357 -13.532  -2.501  1.00  0.00     0.275 A 
HETATM    8  N   UNL     1      38.990 -14.653  -1.800  1.00  0.00    -0.054 NA
HETATM    9  C   UNL     1      41.226 -12.895   0.390  1.00  0.00     0.202 C 
HETATM   10  C   UNL     1      41.437 -14.003   1.422  1.00  0.00     0.062 C 
HETATM   11  H   UNL     1      39.340 -16.264   0.311  1.00  0.00     0.184 HD
ENDROOT
BRANCH  10  12
HETATM   12  C   UNL     1      42.565 -13.743   2.357  1.00  0.00     0.256 C 
HETATM   13  N   UNL     1      42.208 -13.079   3.507  1.00  0.00    -0.322 N 
HETATM   14  H   UNL     1      41.249 -12.762   3.588  1.00  0.00     0.169 HD
HETATM   15  O   UNL     1      43.694 -14.088   2.030  1.00  0.00    -0.267 OA
BRANCH  13  16
HETATM   16  C   UNL     1      43.038 -12.842   4.626  1.00  0.00     0.052 A 
HETATM   17  C   UNL     1      43.105 -13.648   5.761  1.00  0.00     0.145 A 
HETATM   18  N   UNL     1      43.879 -13.376   6.844  1.00  0.00    -0.271 NA
HETATM   19  C   UNL     1      44.620 -12.251   6.799  1.00  0.00     0.116 A 
HETATM   20  C   UNL     1      44.629 -11.387   5.719  1.00  0.00     0.021 A 
HETATM   21  C   UNL     1      43.829 -11.692   4.618  1.00  0.00     0.032 A 
ENDBRANCH  13  16
ENDBRANCH  10  12
BRANCH   9  22
HETATM   22  C   UNL     1      40.645 -11.634   1.022  1.00  0.00    -0.025 A 
HETATM   23  C   UNL     1      41.346 -10.420   1.051  1.00  0.00     0.029 A 
HETATM   24  C   UNL     1      40.750  -9.317   1.642  1.00  0.00     0.117 A 
HETATM   25  N   UNL     1      39.515  -9.331   2.182  1.00  0.00    -0.273 NA
HETATM   26  C   UNL     1      38.848 -10.503   2.141  1.00  0.00     0.117 A 
HETATM   27  C   UNL     1      39.359 -11.662   1.578  1.00  0.00     0.029 A 
ENDBRANCH   9  22
TORSDOF 3
ENDMDL
MODEL 8
REMARK VINA RESULT:      -6.9      2.228      6.125
REMARK  3 active torsions:
REMARK  status: ('A' for Active; 'I' for Inactive)
REMARK    1  A    between atoms: C_9  and  C_10 
REMARK    2  A    between atoms: C_16  and  C_17 
REMARK       I    between atoms: C_17  and  N_18 
REMARK    3  A    between atoms: N_18  and  C_19 
ROOT
HETATM    1  C   UNL     1      39.680 -14.834  -0.636  1.00  0.00     0.070 C 
HETATM    2  C   UNL     1      40.166 -13.517  -0.082  1.00  0.00     0.037 C 
HETATM    3  N   UNL     1      40.061 -12.432  -0.948  1.00  0.00    -0.192 N 
HETATM    4  C   UNL     1      40.721 -11.273  -0.749  1.00  0.00     0.725 A 
HETATM    5  N   UNL     1      41.358 -11.061   0.441  1.00  0.00    -0.084 N 
HETATM    6  N   UNL     1      42.037  -9.895   0.435  1.00  0.00    -0.149 NA
HETATM    7  C   UNL     1      41.726  -9.437  -0.783  1.00  0.00     0.275 A 
HETATM    8  N   UNL     1      40.916 -10.248  -1.538  1.00  0.00    -0.054 NA
HETATM    9  C   UNL     1      41.335 -12.007   1.564  1.00  0.00     0.202 C 
HETATM   10  C   UNL     1      40.754 -13.353   1.131  1.00  0.00     0.062 C 
HETATM   11  H   UNL     1      39.712 -12.615  -1.887  1.00  0.00     0.184 HD
ENDROOT
BRANCH  10  12
HETATM   12  C   UNL     1      41.031 -14.458   2.088  1.00  0.00     0.256 C 
HETATM   13  N   UNL     1      42.250 -15.070   1.910  1.00  0.00    -0.322 N 
HETATM   14  H   UNL     1      42.810 -14.779   1.118  1.00  0.00     0.169 HD
HETATM   15  O   UNL     1      40.172 -14.761   2.906  1.00  0.00    -0.267 OA
BRANCH  13  16
HETATM   16  C   UNL     1      42.833 -16.035   2.763  1.00  0.00     0.052 A 
HETATM   17  C   UNL     1      43.268 -15.796   4.064  1.00  0.00     0.145 A 
HETATM   18  N   UNL     1      43.865 -16.729   4.852  1.00  0.00    -0.271 NA
HETATM   19  C   UNL     1      44.040 -17.956   4.320  1.00  0.00     0.116 A 
HETATM   20  C   UNL     1      43.640 -18.296   3.040  1.00  0.00     0.021 A 
HETATM   21  C   UNL     1      43.025 -17.321   2.256  1.00  0.00     0.032 A 
ENDBRANCH  13  16
ENDBRANCH  10  12
BRANCH   9  22
HETATM   22  C   UNL     1      40.574 -11.413   2.745  1.00  0.00    -0.025 A 
HETATM   23  C   UNL     1      39.243 -10.983   2.637  1.00  0.00     0.029 A 
HETATM   24  C   UNL     1      38.618 -10.455   3.756  1.00  0.00     0.117 A 
HETATM   25  N   UNL     1      39.208 -10.345   4.963  1.00  0.00    -0.273 NA
HETATM   26  C   UNL     1      40.486 -10.769   5.055  1.00  0.00     0.117 A 
HETATM   27  C   UNL     1      41.199 -11.305   3.994  1.00  0.00     0.029 A 
ENDBRANCH   9  22
TORSDOF 3
ENDMDL
MODEL 9
REMARK VINA RESULT:      -6.8      2.504      7.290
REMARK  3 active torsions:
REMARK  status: ('A' for Active; 'I' for Inactive)
REMARK    1  A    between atoms: C_9  and  C_10 
REMARK    2  A    between atoms: C_16  and  C_17 
REMARK       I    between atoms: C_17  and  N_18 
REMARK    3  A    between atoms: N_18  and  C_19 
ROOT
HETATM    1  C   UNL     1      42.756 -10.970   3.141  1.00  0.00     0.070 C 
HETATM    2  C   UNL     1      41.727 -10.850   2.044  1.00  0.00     0.037 C 
HETATM    3  N   UNL     1      41.507  -9.558   1.573  1.00  0.00    -0.192 N 
HETATM    4  C   UNL     1      40.426  -9.223   0.840  1.00  0.00     0.725 A 
HETATM    5  N   UNL     1      39.612 -10.210   0.357  1.00  0.00    -0.084 N 
HETATM    6  N   UNL     1      38.537  -9.696  -0.275  1.00  0.00    -0.149 NA
HETATM    7  C   UNL     1      38.795  -8.387  -0.171  1.00  0.00     0.275 A 
HETATM    8  N   UNL     1      39.946  -8.056   0.499  1.00  0.00    -0.054 NA
HETATM    9  C   UNL     1      39.862 -11.644   0.544  1.00  0.00     0.202 C 
HETATM   10  C   UNL     1      40.974 -11.875   1.567  1.00  0.00     0.062 C 
HETATM   11  H   UNL     1      42.015  -8.802   2.027  1.00  0.00     0.184 HD
ENDROOT
BRANCH  10  12
HETATM   12  C   UNL     1      41.035 -13.271   2.080  1.00  0.00     0.256 C 
HETATM   13  N   UNL     1      42.281 -13.850   2.005  1.00  0.00    -0.322 N 
HETATM   14  H   UNL     1      43.016 -13.323   1.550  1.00  0.00     0.169 HD
HETATM   15  O   UNL     1      40.004 -13.799   2.477  1.00  0.00    -0.267 OA
BRANCH  13  16
HETATM   16  C   UNL     1      42.657 -15.096   2.556  1.00  0.00     0.052 A 
HETATM   17  C   UNL     1      42.984 -15.316   3.892  1.00  0.00     0.145 A 
HETATM   18  N   UNL     1      43.385 -16.515   4.391  1.00  0.00    -0.271 NA
HETATM   19  C   UNL     1      43.467 -17.542   3.521  1.00  0.00     0.116 A 
HETATM   20  C   UNL     1      43.160 -17.429   2.177  1.00  0.00     0.021 A 
HETATM   21  C   UNL     1      42.746 -16.189   1.692  1.00  0.00     0.032 A 
ENDBRANCH  13  16
ENDBRANCH  10  12
BRANCH   9  22
HETATM   22  C   UNL     1      40.174 -12.309  -0.793  1.00  0.00    -0.025 A 
HETATM   23  C   UNL     1      41.082 -11.758  -1.709  1.00  0.00     0.029 A 
HETATM   24  C   UNL     1      41.313 -12.422  -2.903  1.00  0.00     0.117 A 
HETATM   25  N   UNL     1      40.731 -13.591  -3.237  1.00  0.00    -0.273 NA
HETATM   26  C   UNL     1      39.865 -14.114  -2.344  1.00  0.00     0.117 A 
HETATM   27  C   UNL     1      39.562 -13.525  -1.127  1.00  0.00     0.029 A 
ENDBRANCH   9  22
TORSDOF 3
ENDMDL
MODEL 10
REMARK VINA RESULT:      -6.8      2.654      6.181
REMARK  3 active torsions:
REMARK  status: ('A' for Active; 'I' for Inactive)
REMARK    1  A    between atoms: C_9  and  C_10 
REMARK    2  A    between atoms: C_16  and  C_17 
REMARK       I    between atoms: C_17  and  N_18 
REMARK    3  A    between atoms: N_18  and  C_19 
ROOT
HETATM    1  C   UNL     1      43.012 -15.685   8.154  1.00  0.00     0.070 C 
HETATM    2  C   UNL     1      43.126 -16.222   6.749  1.00  0.00     0.037 C 
HETATM    3  N   UNL     1      43.162 -17.610   6.643  1.00  0.00    -0.192 N 
HETATM    4  C   UNL     1      43.571 -18.247   5.528  1.00  0.00     0.725 A 
HETATM    5  N   UNL     1      43.766 -17.529   4.381  1.00  0.00    -0.084 N 
HETATM    6  N   UNL     1      44.258 -18.305   3.392  1.00  0.00    -0.149 NA
HETATM    7  C   UNL     1      44.291 -19.493   4.008  1.00  0.00     0.275 A 
HETATM    8  N   UNL     1      43.872 -19.502   5.314  1.00  0.00    -0.054 NA
HETATM    9  C   UNL     1      43.511 -16.089   4.261  1.00  0.00     0.202 C 
HETATM   10  C   UNL     1      43.273 -15.461   5.634  1.00  0.00     0.062 C 
HETATM   11  H   UNL     1      43.153 -18.146   7.509  1.00  0.00     0.184 HD
ENDROOT
BRANCH  10  12
HETATM   12  C   UNL     1      43.373 -13.976   5.638  1.00  0.00     0.256 C 
HETATM   13  N   UNL     1      43.692 -13.432   6.861  1.00  0.00    -0.322 N 
HETATM   14  H   UNL     1      43.756 -14.060   7.652  1.00  0.00     0.169 HD
HETATM   15  O   UNL     1      43.132 -13.365   4.605  1.00  0.00    -0.267 OA
BRANCH  13  16
HETATM   16  C   UNL     1      44.001 -12.076   7.116  1.00  0.00     0.052 A 
HETATM   17  C   UNL     1      43.066 -11.062   7.302  1.00  0.00     0.145 A 
HETATM   18  N   UNL     1      43.387  -9.756   7.503  1.00  0.00    -0.271 NA
HETATM   19  C   UNL     1      44.698  -9.445   7.518  1.00  0.00     0.116 A 
HETATM   20  C   UNL     1      45.705 -10.378   7.348  1.00  0.00     0.021 A 
HETATM   21  C   UNL     1      45.348 -11.711   7.148  1.00  0.00     0.032 A 
ENDBRANCH  13  16
ENDBRANCH  10  12
BRANCH   9  22
HETATM   22  C   UNL     1      42.346 -15.832   3.310  1.00  0.00    -0.025 A 
HETATM   23  C   UNL     1      41.012 -16.045   3.686  1.00  0.00     0.029 A 
HETATM   24  C   UNL     1      40.008 -15.788   2.766  1.00  0.00     0.117 A 
HETATM   25  N   UNL     1      40.232 -15.319   1.522  1.00  0.00    -0.273 NA
HETATM   26  C   UNL     1      41.520 -15.112   1.175  1.00  0.00     0.117 A 
HETATM   27  C   UNL     1      42.594 -15.344   2.020  1.00  0.00     0.029 A 
ENDBRANCH   9  22
TORSDOF 3
ENDMDL
