MODEL 1
REMARK VINA RESULT:      -8.3      0.000      0.000
REMARK  6 active torsions:
REMARK  status: ('A' for Active; 'I' for Inactive)
REMARK    1  A    between atoms: C_7  and  C_8 
REMARK    2  A    between atoms: N_9  and  N_10 
REMARK       I    between atoms: N_10  and  C_11 
REMARK    3  A    between atoms: C_11  and  C_12 
REMARK    4  A    between atoms: C_12  and  N_13 
REMARK    5  A    between atoms: N_13  and  C_14 
REMARK    6  A    between atoms: C_17  and  O_18 
ROOT
HETATM    1  N   UNL     1      41.777 -14.015   2.784  1.00  0.00    -0.246 N 
HETATM    2  C   UNL     1      40.709 -13.205   3.147  1.00  0.00     0.250 C 
HETATM    3  O   UNL     1      40.012 -13.351   4.150  1.00  0.00    -0.270 OA
HETATM    4  H   UNL     1      42.295 -13.801   1.935  1.00  0.00     0.192 HD
ENDROOT
BRANCH   1   5
HETATM    5  N   UNL     1      42.065 -15.110   3.539  1.00  0.00    -0.184 NA
HETATM    6  C   UNL     1      43.221 -15.662   3.366  1.00  0.00     0.153 C 
BRANCH   6   7
HETATM    7  C   UNL     1      43.571 -16.842   4.141  1.00  0.00     0.018 A 
HETATM    8  C   UNL     1      43.946 -16.875   5.480  1.00  0.00     0.018 A 
HETATM    9  C   UNL     1      44.099 -15.786   6.483  1.00  0.00     0.069 C 
HETATM   10  N   UNL     1      44.189 -18.182   5.816  1.00  0.00    -0.358 N 
HETATM   11  H   UNL     1      44.480 -18.501   6.731  1.00  0.00     0.166 HD
HETATM   12  C   UNL     1      43.986 -19.007   4.737  1.00  0.00     0.043 A 
HETATM   13  C   UNL     1      43.598 -18.199   3.669  1.00  0.00     0.004 A 
HETATM   14  C   UNL     1      44.119 -20.397   4.635  1.00  0.00     0.030 A 
HETATM   15  C   UNL     1      43.332 -18.820   2.429  1.00  0.00     0.014 A 
HETATM   16  C   UNL     1      43.462 -20.209   2.308  1.00  0.00     0.001 A 
HETATM   17  C   UNL     1      43.850 -20.985   3.398  1.00  0.00     0.002 A 
ENDBRANCH   6   7
ENDBRANCH   1   5
BRANCH   2  18
HETATM   18  C   UNL     1      40.498 -12.030   2.193  1.00  0.00     0.197 C 
BRANCH  18  19
HETATM   19  N   UNL     1      41.421 -12.094   1.040  1.00  0.00    -0.284 NA
HETATM   20  H   UNL     1      42.211 -12.710   1.245  1.00  0.00     0.128 HD
BRANCH  19  21
HETATM   21  C   UNL     1      40.864 -12.470  -0.198  1.00  0.00     0.008 A 
HETATM   22  C   UNL     1      40.114 -13.652  -0.259  1.00  0.00     0.026 A 
HETATM   23  C   UNL     1      39.561 -14.098  -1.465  1.00  0.00     0.038 A 
HETATM   24  C   UNL     1      39.764 -13.386  -2.645  1.00  0.00     0.068 A 
HETATM   25  C   UNL     1      40.556 -12.242  -2.612  1.00  0.00     0.038 A 
HETATM   26  C   UNL     1      41.115 -11.803  -1.402  1.00  0.00     0.026 A 
BRANCH  24  27
HETATM   27  O   UNL     1      39.158 -13.916  -3.750  1.00  0.00    -0.356 OA
HETATM   28  C   UNL     1      38.165 -14.910  -3.522  1.00  0.00     0.210 C 
ENDBRANCH  24  27
ENDBRANCH  19  21
ENDBRANCH  18  19
ENDBRANCH   2  18
TORSDOF 6
ENDMDL
MODEL 2
REMARK VINA RESULT:      -8.1      6.011      9.662
REMARK  6 active torsions:
REMARK  status: ('A' for Active; 'I' for Inactive)
REMARK    1  A    between atoms: C_7  and  C_8 
REMARK    2  A    between atoms: N_9  and  N_10 
REMARK       I    between atoms: N_10  and  C_11 
REMARK    3  A    between atoms: C_11  and  C_12 
REMARK    4  A    between atoms: C_12  and  N_13 
REMARK    5  A    between atoms: N_13  and  C_14 
REMARK    6  A    between atoms: C_17  and  O_18 
ROOT
HETATM    1  N   UNL     1      43.852 -12.305   7.350  1.00  0.00    -0.246 N 
HETATM    2  C   UNL     1      44.852 -11.343   7.419  1.00  0.00     0.250 C 
HETATM    3  O   UNL     1      45.859 -11.312   6.714  1.00  0.00    -0.270 OA
HETATM    4  H   UNL     1      43.052 -12.233   7.976  1.00  0.00     0.192 HD
ENDROOT
BRANCH   1   5
HETATM    5  N   UNL     1      43.994 -13.350   6.492  1.00  0.00    -0.184 NA
HETATM    6  C   UNL     1      43.058 -14.242   6.482  1.00  0.00     0.153 C 
BRANCH   6   7
HETATM    7  C   UNL     1      43.171 -15.385   5.591  1.00  0.00     0.018 A 
HETATM    8  C   UNL     1      43.334 -16.715   5.964  1.00  0.00     0.018 A 
HETATM    9  C   UNL     1      43.439 -17.353   7.305  1.00  0.00     0.069 C 
HETATM   10  N   UNL     1      43.396 -17.467   4.818  1.00  0.00    -0.358 N 
HETATM   11  H   UNL     1      43.513 -18.472   4.791  1.00  0.00     0.166 HD
HETATM   12  C   UNL     1      43.279 -16.671   3.706  1.00  0.00     0.043 A 
HETATM   13  C   UNL     1      43.137 -15.358   4.155  1.00  0.00     0.004 A 
HETATM   14  C   UNL     1      43.291 -17.018   2.350  1.00  0.00     0.030 A 
HETATM   15  C   UNL     1      43.002 -14.337   3.187  1.00  0.00     0.014 A 
HETATM   16  C   UNL     1      43.014 -14.667   1.826  1.00  0.00     0.001 A 
HETATM   17  C   UNL     1      43.156 -15.990   1.416  1.00  0.00     0.002 A 
ENDBRANCH   6   7
ENDBRANCH   1   5
BRANCH   2  18
HETATM   18  C   UNL     1      44.558 -10.245   8.441  1.00  0.00     0.197 C 
BRANCH  18  19
HETATM   19  N   UNL     1      44.965 -10.650   9.803  1.00  0.00    -0.284 NA
HETATM   20  H   UNL     1      45.957 -10.458   9.956  1.00  0.00     0.128 HD
BRANCH  19  21
HETATM   21  C   UNL     1      44.229 -10.104  10.873  1.00  0.00     0.008 A 
HETATM   22  C   UNL     1      43.565 -10.981  11.741  1.00  0.00     0.026 A 
HETATM   23  C   UNL     1      42.790 -10.500  12.803  1.00  0.00     0.038 A 
HETATM   24  C   UNL     1      42.640  -9.131  13.011  1.00  0.00     0.068 A 
HETATM   25  C   UNL     1      43.246  -8.247  12.122  1.00  0.00     0.038 A 
HETATM   26  C   UNL     1      44.014  -8.733  11.053  1.00  0.00     0.026 A 
BRANCH  24  27
HETATM   27  O   UNL     1      41.874  -8.791  14.091  1.00  0.00    -0.356 OA
HETATM   28  C   UNL     1      40.660  -8.099  13.823  1.00  0.00     0.210 C 
ENDBRANCH  24  27
ENDBRANCH  19  21
ENDBRANCH  18  19
ENDBRANCH   2  18
TORSDOF 6
ENDMDL
MODEL 3
REMARK VINA RESULT:      -8.0      1.940      2.243
REMARK  6 active torsions:
REMARK  status: ('A' for Active; 'I' for Inactive)
REMARK    1  A    between atoms: C_7  and  C_8 
REMARK    2  A    between atoms: N_9  and  N_10 
REMARK       I    between atoms: N_10  and  C_11 
REMARK    3  A    between atoms: C_11  and  C_12 
REMARK    4  A    between atoms: C_12  and  N_13 
REMARK    5  A    between atoms: N_13  and  C_14 
REMARK    6  A    between atoms: C_17  and  O_18 
ROOT
HETATM    1  N   UNL     1      41.898 -14.045   2.508  1.00  0.00    -0.246 N 
HETATM    2  C   UNL     1      41.059 -14.179   1.409  1.00  0.00     0.250 C 
HETATM    3  O   UNL     1      40.434 -15.195   1.109  1.00  0.00    -0.270 OA
HETATM    4  H   UNL     1      42.363 -13.155   2.671  1.00  0.00     0.192 HD
ENDROOT
BRANCH   1   5
HETATM    5  N   UNL     1      42.125 -15.125   3.304  1.00  0.00    -0.184 NA
HETATM    6  C   UNL     1      43.300 -15.661   3.255  1.00  0.00     0.153 C 
BRANCH   6   7
HETATM    7  C   UNL     1      43.588 -16.824   4.078  1.00  0.00     0.018 A 
HETATM    8  C   UNL     1      43.888 -16.827   5.436  1.00  0.00     0.018 A 
HETATM    9  C   UNL     1      44.003 -15.714   6.418  1.00  0.00     0.069 C 
HETATM   10  N   UNL     1      44.092 -18.128   5.819  1.00  0.00    -0.358 N 
HETATM   11  H   UNL     1      44.326 -18.426   6.756  1.00  0.00     0.166 HD
HETATM   12  C   UNL     1      43.935 -18.979   4.753  1.00  0.00     0.043 A 
HETATM   13  C   UNL     1      43.619 -18.194   3.644  1.00  0.00     0.004 A 
HETATM   14  C   UNL     1      44.051 -20.373   4.694  1.00  0.00     0.030 A 
HETATM   15  C   UNL     1      43.412 -18.845   2.407  1.00  0.00     0.014 A 
HETATM   16  C   UNL     1      43.526 -20.238   2.330  1.00  0.00     0.001 A 
HETATM   17  C   UNL     1      43.841 -20.990   3.460  1.00  0.00     0.002 A 
ENDBRANCH   6   7
ENDBRANCH   1   5
BRANCH   2  18
HETATM   18  C   UNL     1      40.919 -12.888   0.602  1.00  0.00     0.197 C 
BRANCH  18  19
HETATM   19  N   UNL     1      40.814 -13.163  -0.846  1.00  0.00    -0.284 NA
HETATM   20  H   UNL     1      40.980 -14.153  -1.039  1.00  0.00     0.128 HD
BRANCH  19  21
HETATM   21  C   UNL     1      39.618 -12.773  -1.480  1.00  0.00     0.008 A 
HETATM   22  C   UNL     1      39.394 -11.407  -1.697  1.00  0.00     0.026 A 
HETATM   23  C   UNL     1      38.211 -10.953  -2.291  1.00  0.00     0.038 A 
HETATM   24  C   UNL     1      37.213 -11.850  -2.664  1.00  0.00     0.068 A 
HETATM   25  C   UNL     1      37.396 -13.204  -2.402  1.00  0.00     0.038 A 
HETATM   26  C   UNL     1      38.579 -13.655  -1.797  1.00  0.00     0.026 A 
BRANCH  24  27
HETATM   27  O   UNL     1      36.115 -11.283  -3.250  1.00  0.00    -0.356 OA
HETATM   28  C   UNL     1      35.661 -10.051  -2.702  1.00  0.00     0.210 C 
ENDBRANCH  24  27
ENDBRANCH  19  21
ENDBRANCH  18  19
ENDBRANCH   2  18
TORSDOF 6
ENDMDL
MODEL 4
REMARK VINA RESULT:      -8.0      5.878      9.559
REMARK  6 active torsions:
REMARK  status: ('A' for Active; 'I' for Inactive)
REMARK    1  A    between atoms: C_7  and  C_8 
REMARK    2  A    between atoms: N_9  and  N_10 
REMARK       I    between atoms: N_10  and  C_11 
REMARK    3  A    between atoms: C_11  and  C_12 
REMARK    4  A    between atoms: C_12  and  N_13 
REMARK    5  A    between atoms: N_13  and  C_14 
REMARK    6  A    between atoms: C_17  and  O_18 
ROOT
HETATM    1  N   UNL     1      43.758 -12.438   7.197  1.00  0.00    -0.246 N 
HETATM    2  C   UNL     1      44.718 -11.434   7.169  1.00  0.00     0.250 C 
HETATM    3  O   UNL     1      45.301 -11.034   6.162  1.00  0.00    -0.270 OA
HETATM    4  H   UNL     1      43.329 -12.688   8.085  1.00  0.00     0.192 HD
ENDROOT
BRANCH   1   5
HETATM    5  N   UNL     1      43.459 -13.102   6.048  1.00  0.00    -0.184 NA
HETATM    6  C   UNL     1      42.949 -14.284   6.162  1.00  0.00     0.153 C 
BRANCH   6   7
HETATM    7  C   UNL     1      42.625 -15.040   4.963  1.00  0.00     0.018 A 
HETATM    8  C   UNL     1      41.700 -14.688   3.985  1.00  0.00     0.018 A 
HETATM    9  C   UNL     1      40.805 -13.505   3.861  1.00  0.00     0.069 C 
HETATM   10  N   UNL     1      41.703 -15.673   3.030  1.00  0.00    -0.358 N 
HETATM   11  H   UNL     1      41.124 -15.677   2.201  1.00  0.00     0.166 HD
HETATM   12  C   UNL     1      42.601 -16.660   3.352  1.00  0.00     0.043 A 
HETATM   13  C   UNL     1      43.197 -16.294   4.559  1.00  0.00     0.004 A 
HETATM   14  C   UNL     1      42.923 -17.837   2.667  1.00  0.00     0.030 A 
HETATM   15  C   UNL     1      44.167 -17.161   5.110  1.00  0.00     0.014 A 
HETATM   16  C   UNL     1      44.499 -18.345   4.439  1.00  0.00     0.001 A 
HETATM   17  C   UNL     1      43.885 -18.675   3.233  1.00  0.00     0.002 A 
ENDBRANCH   6   7
ENDBRANCH   1   5
BRANCH   2  18
HETATM   18  C   UNL     1      44.958 -10.797   8.537  1.00  0.00     0.197 C 
BRANCH  18  19
HETATM   19  N   UNL     1      43.946 -11.232   9.523  1.00  0.00    -0.284 NA
HETATM   20  H   UNL     1      44.207 -12.130   9.936  1.00  0.00     0.128 HD
BRANCH  19  21
HETATM   21  C   UNL     1      43.644 -10.329  10.561  1.00  0.00     0.008 A 
HETATM   22  C   UNL     1      43.196 -10.846  11.784  1.00  0.00     0.026 A 
HETATM   23  C   UNL     1      42.848 -10.001  12.844  1.00  0.00     0.038 A 
HETATM   24  C   UNL     1      42.917  -8.617  12.701  1.00  0.00     0.068 A 
HETATM   25  C   UNL     1      43.303  -8.087  11.474  1.00  0.00     0.038 A 
HETATM   26  C   UNL     1      43.643  -8.937  10.410  1.00  0.00     0.026 A 
BRANCH  24  27
HETATM   27  O   UNL     1      42.568  -7.903  13.814  1.00  0.00    -0.356 OA
HETATM   28  C   UNL     1      41.734  -8.561  14.762  1.00  0.00     0.210 C 
ENDBRANCH  24  27
ENDBRANCH  19  21
ENDBRANCH  18  19
ENDBRANCH   2  18
TORSDOF 6
ENDMDL
MODEL 5
REMARK VINA RESULT:      -7.9      2.014      2.682
REMARK  6 active torsions:
REMARK  status: ('A' for Active; 'I' for Inactive)
REMARK    1  A    between atoms: C_7  and  C_8 
REMARK    2  A    between atoms: N_9  and  N_10 
REMARK       I    between atoms: N_10  and  C_11 
REMARK    3  A    between atoms: C_11  and  C_12 
REMARK    4  A    between atoms: C_12  and  N_13 
REMARK    5  A    between atoms: N_13  and  C_14 
REMARK    6  A    between atoms: C_17  and  O_18 
ROOT
HETATM    1  N   UNL     1      41.079 -14.408   2.150  1.00  0.00    -0.246 N 
HETATM    2  C   UNL     1      40.257 -14.684   1.064  1.00  0.00     0.250 C 
HETATM    3  O   UNL     1      39.803 -15.791   0.778  1.00  0.00    -0.270 OA
HETATM    4  H   UNL     1      41.394 -13.453   2.302  1.00  0.00     0.192 HD
ENDROOT
BRANCH   1   5
HETATM    5  N   UNL     1      41.491 -15.431   2.947  1.00  0.00    -0.184 NA
HETATM    6  C   UNL     1      42.762 -15.649   3.023  1.00  0.00     0.153 C 
BRANCH   6   7
HETATM    7  C   UNL     1      43.251 -16.739   3.852  1.00  0.00     0.018 A 
HETATM    8  C   UNL     1      43.677 -16.651   5.173  1.00  0.00     0.018 A 
HETATM    9  C   UNL     1      43.763 -15.490   6.101  1.00  0.00     0.069 C 
HETATM   10  N   UNL     1      44.055 -17.905   5.577  1.00  0.00    -0.358 N 
HETATM   11  H   UNL     1      44.408 -18.136   6.497  1.00  0.00     0.166 HD
HETATM   12  C   UNL     1      43.891 -18.814   4.561  1.00  0.00     0.043 A 
HETATM   13  C   UNL     1      43.388 -18.115   3.463  1.00  0.00     0.004 A 
HETATM   14  C   UNL     1      44.151 -20.189   4.538  1.00  0.00     0.030 A 
HETATM   15  C   UNL     1      43.137 -18.837   2.275  1.00  0.00     0.014 A 
HETATM   16  C   UNL     1      43.393 -20.214   2.234  1.00  0.00     0.001 A 
HETATM   17  C   UNL     1      43.893 -20.878   3.351  1.00  0.00     0.002 A 
ENDBRANCH   6   7
ENDBRANCH   1   5
BRANCH   2  18
HETATM   18  C   UNL     1      39.898 -13.439   0.254  1.00  0.00     0.197 C 
BRANCH  18  19
HETATM   19  N   UNL     1      40.759 -13.300  -0.938  1.00  0.00    -0.284 NA
HETATM   20  H   UNL     1      40.491 -13.975  -1.658  1.00  0.00     0.128 HD
BRANCH  19  21
HETATM   21  C   UNL     1      40.830 -12.020  -1.523  1.00  0.00     0.008 A 
HETATM   22  C   UNL     1      40.702 -11.916  -2.914  1.00  0.00     0.026 A 
HETATM   23  C   UNL     1      40.796 -10.678  -3.560  1.00  0.00     0.038 A 
HETATM   24  C   UNL     1      41.043  -9.515  -2.834  1.00  0.00     0.068 A 
HETATM   25  C   UNL     1      41.231  -9.609  -1.458  1.00  0.00     0.038 A 
HETATM   26  C   UNL     1      41.145 -10.854  -0.815  1.00  0.00     0.026 A 
BRANCH  24  27
HETATM   27  O   UNL     1      41.094  -8.369  -3.578  1.00  0.00    -0.356 OA
HETATM   28  C   UNL     1      40.257  -8.313  -4.727  1.00  0.00     0.210 C 
ENDBRANCH  24  27
ENDBRANCH  19  21
ENDBRANCH  18  19
ENDBRANCH   2  18
TORSDOF 6
ENDMDL
MODEL 6
REMARK VINA RESULT:      -7.6      4.893      8.265
REMARK  6 active torsions:
REMARK  status: ('A' for Active; 'I' for Inactive)
REMARK    1  A    between atoms: C_7  and  C_8 
REMARK    2  A    between atoms: N_9  and  N_10 
REMARK       I    between atoms: N_10  and  C_11 
REMARK    3  A    between atoms: C_11  and  C_12 
REMARK    4  A    between atoms: C_12  and  N_13 
REMARK    5  A    between atoms: N_13  and  C_14 
REMARK    6  A    between atoms: C_17  and  O_18 
ROOT
HETATM    1  N   UNL     1      42.976 -13.362   5.269  1.00  0.00    -0.246 N 
HETATM    2  C   UNL     1      43.540 -12.122   4.998  1.00  0.00     0.250 C 
HETATM    3  O   UNL     1      44.171 -11.833   3.982  1.00  0.00    -0.270 OA
HETATM    4  H   UNL     1      42.465 -13.494   6.140  1.00  0.00     0.192 HD
ENDROOT
BRANCH   1   5
HETATM    5  N   UNL     1      43.172 -14.386   4.395  1.00  0.00    -0.184 NA
HETATM    6  C   UNL     1      42.948 -15.584   4.825  1.00  0.00     0.153 C 
BRANCH   6   7
HETATM    7  C   UNL     1      43.155 -16.712   3.932  1.00  0.00     0.018 A 
HETATM    8  C   UNL     1      43.085 -16.695   2.542  1.00  0.00     0.018 A 
HETATM    9  C   UNL     1      42.796 -15.590   1.588  1.00  0.00     0.069 C 
HETATM   10  N   UNL     1      43.344 -17.965   2.093  1.00  0.00    -0.358 N 
HETATM   11  H   UNL     1      43.359 -18.244   1.121  1.00  0.00     0.166 HD
HETATM   12  C   UNL     1      43.581 -18.814   3.146  1.00  0.00     0.043 A 
HETATM   13  C   UNL     1      43.470 -18.061   4.314  1.00  0.00     0.004 A 
HETATM   14  C   UNL     1      43.881 -20.182   3.143  1.00  0.00     0.030 A 
HETATM   15  C   UNL     1      43.667 -18.718   5.549  1.00  0.00     0.014 A 
HETATM   16  C   UNL     1      43.966 -20.087   5.565  1.00  0.00     0.001 A 
HETATM   17  C   UNL     1      44.071 -20.806   4.378  1.00  0.00     0.002 A 
ENDBRANCH   6   7
ENDBRANCH   1   5
BRANCH   2  18
HETATM   18  C   UNL     1      43.250 -11.083   6.080  1.00  0.00     0.197 C 
BRANCH  18  19
HETATM   19  N   UNL     1      44.460 -10.771   6.870  1.00  0.00    -0.284 NA
HETATM   20  H   UNL     1      45.103 -10.187   6.331  1.00  0.00     0.128 HD
BRANCH  19  21
HETATM   21  C   UNL     1      44.257 -10.174   8.130  1.00  0.00     0.008 A 
HETATM   22  C   UNL     1      45.283 -10.261   9.081  1.00  0.00     0.026 A 
HETATM   23  C   UNL     1      45.132  -9.719  10.362  1.00  0.00     0.038 A 
HETATM   24  C   UNL     1      43.942  -9.095  10.733  1.00  0.00     0.068 A 
HETATM   25  C   UNL     1      42.893  -9.053   9.820  1.00  0.00     0.038 A 
HETATM   26  C   UNL     1      43.046  -9.606   8.540  1.00  0.00     0.026 A 
BRANCH  24  27
HETATM   27  O   UNL     1      43.927  -8.591  12.004  1.00  0.00    -0.356 OA
HETATM   28  C   UNL     1      42.750  -8.822  12.771  1.00  0.00     0.210 C 
ENDBRANCH  24  27
ENDBRANCH  19  21
ENDBRANCH  18  19
ENDBRANCH   2  18
TORSDOF 6
ENDMDL
MODEL 7
REMARK VINA RESULT:      -7.3      2.434      2.795
REMARK  6 active torsions:
REMARK  status: ('A' for Active; 'I' for Inactive)
REMARK    1  A    between atoms: C_7  and  C_8 
REMARK    2  A    between atoms: N_9  and  N_10 
REMARK       I    between atoms: N_10  and  C_11 
REMARK    3  A    between atoms: C_11  and  C_12 
REMARK    4  A    between atoms: C_12  and  N_13 
REMARK    5  A    between atoms: N_13  and  C_14 
REMARK    6  A    between atoms: C_17  and  O_18 
ROOT
HETATM    1  N   UNL     1      41.135 -14.535   0.376  1.00  0.00    -0.246 N 
HETATM    2  C   UNL     1      40.842 -13.178   0.412  1.00  0.00     0.250 C 
HETATM    3  O   UNL     1      40.901 -12.462   1.410  1.00  0.00    -0.270 OA
HETATM    4  H   UNL     1      41.062 -15.035  -0.507  1.00  0.00     0.192 HD
ENDROOT
BRANCH   1   5
HETATM    5  N   UNL     1      41.456 -15.175   1.533  1.00  0.00    -0.184 NA
HETATM    6  C   UNL     1      42.646 -15.670   1.628  1.00  0.00     0.153 C 
BRANCH   6   7
HETATM    7  C   UNL     1      43.031 -16.374   2.840  1.00  0.00     0.018 A 
HETATM    8  C   UNL     1      43.244 -15.813   4.095  1.00  0.00     0.018 A 
HETATM    9  C   UNL     1      43.151 -14.404   4.568  1.00  0.00     0.069 C 
HETATM   10  N   UNL     1      43.591 -16.824   4.954  1.00  0.00    -0.358 N 
HETATM   11  H   UNL     1      43.804 -16.702   5.935  1.00  0.00     0.166 HD
HETATM   12  C   UNL     1      43.613 -18.031   4.300  1.00  0.00     0.043 A 
HETATM   13  C   UNL     1      43.267 -17.786   2.972  1.00  0.00     0.004 A 
HETATM   14  C   UNL     1      43.914 -19.308   4.788  1.00  0.00     0.030 A 
HETATM   15  C   UNL     1      43.224 -18.883   2.083  1.00  0.00     0.014 A 
HETATM   16  C   UNL     1      43.523 -20.167   2.554  1.00  0.00     0.001 A 
HETATM   17  C   UNL     1      43.863 -20.375   3.889  1.00  0.00     0.002 A 
ENDBRANCH   6   7
ENDBRANCH   1   5
BRANCH   2  18
HETATM   18  C   UNL     1      40.481 -12.607  -0.959  1.00  0.00     0.197 C 
BRANCH  18  19
HETATM   19  N   UNL     1      39.489 -11.517  -0.850  1.00  0.00    -0.284 NA
HETATM   20  H   UNL     1      39.919 -10.614  -1.060  1.00  0.00     0.128 HD
BRANCH  19  21
HETATM   21  C   UNL     1      38.316 -11.649  -1.620  1.00  0.00     0.008 A 
HETATM   22  C   UNL     1      37.962 -12.924  -2.080  1.00  0.00     0.026 A 
HETATM   23  C   UNL     1      36.827 -13.117  -2.876  1.00  0.00     0.038 A 
HETATM   24  C   UNL     1      36.031 -12.037  -3.252  1.00  0.00     0.068 A 
HETATM   25  C   UNL     1      36.403 -10.758  -2.852  1.00  0.00     0.038 A 
HETATM   26  C   UNL     1      37.546 -10.567  -2.061  1.00  0.00     0.026 A 
BRANCH  24  27
HETATM   27  O   UNL     1      34.943 -12.360  -4.015  1.00  0.00    -0.356 OA
HETATM   28  C   UNL     1      34.423 -11.336  -4.855  1.00  0.00     0.210 C 
ENDBRANCH  24  27
ENDBRANCH  19  21
ENDBRANCH  18  19
ENDBRANCH   2  18
TORSDOF 6
ENDMDL
MODEL 8
REMARK VINA RESULT:      -7.2     14.316     16.865
REMARK  6 active torsions:
REMARK  status: ('A' for Active; 'I' for Inactive)
REMARK    1  A    between atoms: C_7  and  C_8 
REMARK    2  A    between atoms: N_9  and  N_10 
REMARK       I    between atoms: N_10  and  C_11 
REMARK    3  A    between atoms: C_11  and  C_12 
REMARK    4  A    between atoms: C_12  and  N_13 
REMARK    5  A    between atoms: N_13  and  C_14 
REMARK    6  A    between atoms: C_17  and  O_18 
ROOT
HETATM    1  N   UNL     1      43.391 -30.409   3.392  1.00  0.00    -0.246 N 
HETATM    2  C   UNL     1      42.069 -30.226   3.004  1.00  0.00     0.250 C 
HETATM    3  O   UNL     1      41.693 -29.942   1.868  1.00  0.00    -0.270 OA
HETATM    4  H   UNL     1      43.594 -30.650   4.360  1.00  0.00     0.192 HD
ENDROOT
BRANCH   1   5
HETATM    5  N   UNL     1      44.383 -30.200   2.485  1.00  0.00    -0.184 NA
HETATM    6  C   UNL     1      45.026 -29.081   2.556  1.00  0.00     0.153 C 
BRANCH   6   7
HETATM    7  C   UNL     1      46.087 -28.806   1.601  1.00  0.00     0.018 A 
HETATM    8  C   UNL     1      47.447 -28.704   1.877  1.00  0.00     0.018 A 
HETATM    9  C   UNL     1      48.201 -28.835   3.154  1.00  0.00     0.069 C 
HETATM   10  N   UNL     1      48.095 -28.437   0.699  1.00  0.00    -0.358 N 
HETATM   11  H   UNL     1      49.095 -28.312   0.603  1.00  0.00     0.166 HD
HETATM   12  C   UNL     1      47.203 -28.360  -0.341  1.00  0.00     0.043 A 
HETATM   13  C   UNL     1      45.933 -28.586   0.189  1.00  0.00     0.004 A 
HETATM   14  C   UNL     1      47.429 -28.107  -1.699  1.00  0.00     0.030 A 
HETATM   15  C   UNL     1      44.829 -28.553  -0.692  1.00  0.00     0.014 A 
HETATM   16  C   UNL     1      45.037 -28.299  -2.053  1.00  0.00     0.001 A 
HETATM   17  C   UNL     1      46.321 -28.080  -2.548  1.00  0.00     0.002 A 
ENDBRANCH   6   7
ENDBRANCH   1   5
BRANCH   2  18
HETATM   18  C   UNL     1      41.073 -30.477   4.136  1.00  0.00     0.197 C 
BRANCH  18  19
HETATM   19  N   UNL     1      40.134 -31.567   3.800  1.00  0.00    -0.284 NA
HETATM   20  H   UNL     1      40.594 -32.276   3.225  1.00  0.00     0.128 HD
BRANCH  19  21
HETATM   21  C   UNL     1      39.494 -32.208   4.880  1.00  0.00     0.008 A 
HETATM   22  C   UNL     1      38.342 -32.961   4.619  1.00  0.00     0.026 A 
HETATM   23  C   UNL     1      37.641 -33.595   5.652  1.00  0.00     0.038 A 
HETATM   24  C   UNL     1      38.061 -33.472   6.974  1.00  0.00     0.068 A 
HETATM   25  C   UNL     1      39.169 -32.679   7.256  1.00  0.00     0.038 A 
HETATM   26  C   UNL     1      39.864 -32.038   6.219  1.00  0.00     0.026 A 
BRANCH  24  27
HETATM   27  O   UNL     1      37.303 -34.153   7.886  1.00  0.00    -0.356 OA
HETATM   28  C   UNL     1      36.104 -34.749   7.405  1.00  0.00     0.210 C 
ENDBRANCH  24  27
ENDBRANCH  19  21
ENDBRANCH  18  19
ENDBRANCH   2  18
TORSDOF 6
ENDMDL
MODEL 9
REMARK VINA RESULT:      -7.2      2.321      8.557
REMARK  6 active torsions:
REMARK  status: ('A' for Active; 'I' for Inactive)
REMARK    1  A    between atoms: C_7  and  C_8 
REMARK    2  A    between atoms: N_9  and  N_10 
REMARK       I    between atoms: N_10  and  C_11 
REMARK    3  A    between atoms: C_11  and  C_12 
REMARK    4  A    between atoms: C_12  and  N_13 
REMARK    5  A    between atoms: N_13  and  C_14 
REMARK    6  A    between atoms: C_17  and  O_18 
ROOT
HETATM    1  N   UNL     1      40.312 -14.027   2.132  1.00  0.00    -0.246 N 
HETATM    2  C   UNL     1      40.984 -13.283   3.094  1.00  0.00     0.250 C 
HETATM    3  O   UNL     1      41.166 -12.067   3.055  1.00  0.00    -0.270 OA
HETATM    4  H   UNL     1      40.209 -15.031   2.265  1.00  0.00     0.192 HD
ENDROOT
BRANCH   1   5
HETATM    5  N   UNL     1      39.862 -13.406   1.008  1.00  0.00    -0.184 NA
HETATM    6  C   UNL     1      40.560 -13.552  -0.070  1.00  0.00     0.153 C 
BRANCH   6   7
HETATM    7  C   UNL     1      40.126 -12.898  -1.294  1.00  0.00     0.018 A 
HETATM    8  C   UNL     1      39.376 -13.466  -2.318  1.00  0.00     0.018 A 
HETATM    9  C   UNL     1      38.814 -14.835  -2.480  1.00  0.00     0.069 C 
HETATM   10  N   UNL     1      39.188 -12.509  -3.282  1.00  0.00    -0.358 N 
HETATM   11  H   UNL     1      38.676 -12.646  -4.143  1.00  0.00     0.166 HD
HETATM   12  C   UNL     1      39.793 -11.330  -2.921  1.00  0.00     0.043 A 
HETATM   13  C   UNL     1      40.391 -11.539  -1.679  1.00  0.00     0.004 A 
HETATM   14  C   UNL     1      39.852 -10.108  -3.602  1.00  0.00     0.030 A 
HETATM   15  C   UNL     1      41.090 -10.462  -1.089  1.00  0.00     0.014 A 
HETATM   16  C   UNL     1      41.161  -9.233  -1.757  1.00  0.00     0.001 A 
HETATM   17  C   UNL     1      40.548  -9.061  -2.996  1.00  0.00     0.002 A 
ENDBRANCH   6   7
ENDBRANCH   1   5
BRANCH   2  18
HETATM   18  C   UNL     1      41.445 -14.122   4.285  1.00  0.00     0.197 C 
BRANCH  18  19
HETATM   19  N   UNL     1      42.860 -14.528   4.148  1.00  0.00    -0.284 NA
HETATM   20  H   UNL     1      43.384 -14.303   4.996  1.00  0.00     0.128 HD
BRANCH  19  21
HETATM   21  C   UNL     1      43.103 -15.873   3.810  1.00  0.00     0.008 A 
HETATM   22  C   UNL     1      43.644 -16.718   4.789  1.00  0.00     0.026 A 
HETATM   23  C   UNL     1      43.940 -18.057   4.507  1.00  0.00     0.038 A 
HETATM   24  C   UNL     1      43.724 -18.579   3.234  1.00  0.00     0.068 A 
HETATM   25  C   UNL     1      43.242 -17.738   2.236  1.00  0.00     0.038 A 
HETATM   26  C   UNL     1      42.955 -16.394   2.519  1.00  0.00     0.026 A 
BRANCH  24  27
HETATM   27  O   UNL     1      44.035 -19.903   3.092  1.00  0.00    -0.356 OA
HETATM   28  C   UNL     1      43.676 -20.518   1.860  1.00  0.00     0.210 C 
ENDBRANCH  24  27
ENDBRANCH  19  21
ENDBRANCH  18  19
ENDBRANCH   2  18
TORSDOF 6
ENDMDL
MODEL 10
REMARK VINA RESULT:      -6.9      3.774      4.943
REMARK  6 active torsions:
REMARK  status: ('A' for Active; 'I' for Inactive)
REMARK    1  A    between atoms: C_7  and  C_8 
REMARK    2  A    between atoms: N_9  and  N_10 
REMARK       I    between atoms: N_10  and  C_11 
REMARK    3  A    between atoms: C_11  and  C_12 
REMARK    4  A    between atoms: C_12  and  N_13 
REMARK    5  A    between atoms: N_13  and  C_14 
REMARK    6  A    between atoms: C_17  and  O_18 
ROOT
HETATM    1  N   UNL     1      41.928 -10.423   2.186  1.00  0.00    -0.246 N 
HETATM    2  C   UNL     1      41.034 -10.224   1.142  1.00  0.00     0.250 C 
HETATM    3  O   UNL     1      40.144 -11.004   0.807  1.00  0.00    -0.270 OA
HETATM    4  H   UNL     1      42.624  -9.707   2.386  1.00  0.00     0.192 HD
ENDROOT
BRANCH   1   5
HETATM    5  N   UNL     1      41.891 -11.594   2.877  1.00  0.00    -0.184 NA
HETATM    6  C   UNL     1      43.009 -12.220   3.043  1.00  0.00     0.153 C 
BRANCH   6   7
HETATM    7  C   UNL     1      43.020 -13.483   3.764  1.00  0.00     0.018 A 
HETATM    8  C   UNL     1      42.959 -13.652   5.144  1.00  0.00     0.018 A 
HETATM    9  C   UNL     1      42.871 -12.660   6.251  1.00  0.00     0.069 C 
HETATM   10  N   UNL     1      42.995 -14.998   5.404  1.00  0.00    -0.358 N 
HETATM   11  H   UNL     1      42.966 -15.410   6.327  1.00  0.00     0.166 HD
HETATM   12  C   UNL     1      43.077 -15.717   4.237  1.00  0.00     0.043 A 
HETATM   13  C   UNL     1      43.095 -14.797   3.189  1.00  0.00     0.004 A 
HETATM   14  C   UNL     1      43.137 -17.101   4.040  1.00  0.00     0.030 A 
HETATM   15  C   UNL     1      43.182 -15.296   1.869  1.00  0.00     0.014 A 
HETATM   16  C   UNL     1      43.245 -16.678   1.655  1.00  0.00     0.001 A 
HETATM   17  C   UNL     1      43.222 -17.567   2.727  1.00  0.00     0.002 A 
ENDBRANCH   6   7
ENDBRANCH   1   5
BRANCH   2  18
HETATM   18  C   UNL     1      41.212  -8.872   0.451  1.00  0.00     0.197 C 
BRANCH  18  19
HETATM   19  N   UNL     1      42.498  -8.799  -0.274  1.00  0.00    -0.284 NA
HETATM   20  H   UNL     1      42.963  -9.709  -0.277  1.00  0.00     0.128 HD
BRANCH  19  21
HETATM   21  C   UNL     1      42.455  -8.309  -1.594  1.00  0.00     0.008 A 
HETATM   22  C   UNL     1      43.254  -7.206  -1.922  1.00  0.00     0.026 A 
HETATM   23  C   UNL     1      43.231  -6.651  -3.207  1.00  0.00     0.038 A 
HETATM   24  C   UNL     1      42.393  -7.171  -4.190  1.00  0.00     0.068 A 
HETATM   25  C   UNL     1      41.551  -8.229  -3.864  1.00  0.00     0.038 A 
HETATM   26  C   UNL     1      41.569  -8.777  -2.572  1.00  0.00     0.026 A 
BRANCH  24  27
HETATM   27  O   UNL     1      42.478  -6.553  -5.407  1.00  0.00    -0.356 OA
HETATM   28  C   UNL     1      41.453  -5.618  -5.723  1.00  0.00     0.210 C 
ENDBRANCH  24  27
ENDBRANCH  19  21
ENDBRANCH  18  19
ENDBRANCH   2  18
TORSDOF 6
ENDMDL
