MODEL 1
REMARK VINA RESULT:      -8.7      0.000      0.000
REMARK  5 active torsions:
REMARK  status: ('A' for Active; 'I' for Inactive)
REMARK    1  A    between atoms: C_3  and  N_4 
REMARK       I    between atoms: N_4  and  C_5 
REMARK    2  A    between atoms: C_5  and  C_6 
REMARK    3  A    between atoms: C_6  and  N_7 
REMARK       I    between atoms: N_7  and  C_8 
REMARK    4  A    between atoms: C_8  and  C_9 
REMARK    5  A    between atoms: C_13  and  C_14 
ROOT
HETATM    1  N   UNL     1      43.209 -11.137   7.945  1.00  0.00    -0.347 N 
HETATM    2  C   UNL     1      44.122 -11.962   7.343  1.00  0.00     0.270 C 
HETATM    3  O   UNL     1      45.304 -11.641   7.248  1.00  0.00    -0.266 OA
HETATM    4  H   UNL     1      42.233 -11.396   7.964  1.00  0.00     0.163 HD
ENDROOT
BRANCH   2   5
HETATM    5  C   UNL     1      43.611 -13.182   6.788  1.00  0.00     0.120 A 
HETATM    6  N   UNL     1      43.056 -14.148   7.584  1.00  0.00    -0.272 N 
HETATM    7  H   UNL     1      42.941 -14.114   8.593  1.00  0.00     0.189 HD
HETATM    8  N   UNL     1      42.628 -15.230   6.921  1.00  0.00    -0.173 NA
HETATM    9  C   UNL     1      42.924 -14.964   5.645  1.00  0.00     0.093 A 
HETATM   10  C   UNL     1      43.523 -13.690   5.504  1.00  0.00     0.071 A 
BRANCH   9  11
HETATM   11  C   UNL     1      42.632 -15.893   4.554  1.00  0.00     0.044 A 
HETATM   12  C   UNL     1      43.294 -17.068   4.236  1.00  0.00     0.041 A 
HETATM   13  C   UNL     1      44.439 -17.755   4.887  1.00  0.00     0.071 C 
HETATM   14  N   UNL     1      42.676 -17.537   3.106  1.00  0.00    -0.278 N 
HETATM   15  C   UNL     1      43.009 -18.703   2.320  1.00  0.00     0.179 C 
HETATM   16  N   UNL     1      41.634 -16.783   2.708  1.00  0.00    -0.177 NA
HETATM   17  C   UNL     1      41.620 -15.757   3.568  1.00  0.00     0.065 A 
HETATM   18  C   UNL     1      40.626 -14.671   3.374  1.00  0.00     0.073 C 
ENDBRANCH   9  11
ENDBRANCH   2   5
BRANCH   1  19
HETATM   19  C   UNL     1      43.607  -9.946   8.686  1.00  0.00     0.226 C 
BRANCH  19  20
HETATM   20  C   UNL     1      43.408 -10.026  10.209  1.00  0.00     0.239 C 
HETATM   21  N   UNL     1      42.725  -8.943  10.733  1.00  0.00    -0.325 N 
HETATM   22  H   UNL     1      42.468  -8.228  10.059  1.00  0.00     0.169 HD
HETATM   23  O   UNL     1      43.924 -10.942  10.845  1.00  0.00    -0.271 OA
BRANCH  21  24
HETATM   24  C   UNL     1      42.404  -8.674  12.083  1.00  0.00     0.040 A 
HETATM   25  C   UNL     1      41.174  -9.149  12.595  1.00  0.00    -0.034 A 
HETATM   26  C   UNL     1      40.215  -9.963  11.768  1.00  0.00     0.050 C 
HETATM   27  C   UNL     1      40.823  -8.862  13.928  1.00  0.00     0.028 A 
HETATM   28  C   UNL     1      41.677  -8.125  14.743  1.00  0.00     0.011 A 
HETATM   29  C   UNL     1      42.891  -7.669  14.248  1.00  0.00     0.021 A 
HETATM   30 BR   UNL     1      41.183  -7.746  16.527  1.00  0.00    -0.051 Br
HETATM   31  C   UNL     1      43.252  -7.946  12.926  1.00  0.00     0.031 A 
ENDBRANCH  21  24
ENDBRANCH  19  20
ENDBRANCH   1  19
TORSDOF 5
ENDMDL
MODEL 2
REMARK VINA RESULT:      -8.6      4.195     10.374
REMARK  5 active torsions:
REMARK  status: ('A' for Active; 'I' for Inactive)
REMARK    1  A    between atoms: C_3  and  N_4 
REMARK       I    between atoms: N_4  and  C_5 
REMARK    2  A    between atoms: C_5  and  C_6 
REMARK    3  A    between atoms: C_6  and  N_7 
REMARK       I    between atoms: N_7  and  C_8 
REMARK    4  A    between atoms: C_8  and  C_9 
REMARK    5  A    between atoms: C_13  and  C_14 
ROOT
HETATM    1  N   UNL     1      42.433 -12.219   5.424  1.00  0.00    -0.347 N 
HETATM    2  C   UNL     1      43.550 -11.443   5.590  1.00  0.00     0.270 C 
HETATM    3  O   UNL     1      44.321 -11.231   4.658  1.00  0.00    -0.266 OA
HETATM    4  H   UNL     1      41.841 -12.425   6.216  1.00  0.00     0.163 HD
ENDROOT
BRANCH   2   5
HETATM    5  C   UNL     1      43.789 -10.944   6.913  1.00  0.00     0.120 A 
HETATM    6  N   UNL     1      44.905 -11.309   7.620  1.00  0.00    -0.272 N 
HETATM    7  H   UNL     1      45.648 -11.928   7.309  1.00  0.00     0.189 HD
HETATM    8  N   UNL     1      44.986 -10.765   8.841  1.00  0.00    -0.173 NA
HETATM    9  C   UNL     1      43.877 -10.025   8.938  1.00  0.00     0.093 A 
HETATM   10  C   UNL     1      43.104 -10.087   7.755  1.00  0.00     0.071 A 
BRANCH   9  11
HETATM   11  C   UNL     1      43.548  -9.245  10.131  1.00  0.00     0.044 A 
HETATM   12  C   UNL     1      43.367  -9.704  11.426  1.00  0.00     0.041 A 
HETATM   13  C   UNL     1      43.479 -11.068  12.006  1.00  0.00     0.071 C 
HETATM   14  N   UNL     1      43.022  -8.598  12.158  1.00  0.00    -0.278 N 
HETATM   15  C   UNL     1      42.665  -8.523  13.556  1.00  0.00     0.179 C 
HETATM   16  N   UNL     1      43.021  -7.457  11.443  1.00  0.00    -0.177 NA
HETATM   17  C   UNL     1      43.308  -7.848  10.195  1.00  0.00     0.065 A 
HETATM   18  C   UNL     1      43.316  -6.834   9.110  1.00  0.00     0.073 C 
ENDBRANCH   9  11
ENDBRANCH   2   5
BRANCH   1  19
HETATM   19  C   UNL     1      41.981 -12.661   4.110  1.00  0.00     0.226 C 
BRANCH  19  20
HETATM   20  C   UNL     1      41.792 -14.180   3.961  1.00  0.00     0.239 C 
HETATM   21  N   UNL     1      42.983 -14.873   3.828  1.00  0.00    -0.325 N 
HETATM   22  H   UNL     1      43.818 -14.295   3.819  1.00  0.00     0.169 HD
HETATM   23  O   UNL     1      40.661 -14.651   3.873  1.00  0.00    -0.271 OA
BRANCH  21  24
HETATM   24  C   UNL     1      43.179 -16.259   3.635  1.00  0.00     0.040 A 
HETATM   25  C   UNL     1      43.773 -17.011   4.675  1.00  0.00    -0.034 A 
HETATM   26  C   UNL     1      44.167 -16.397   5.993  1.00  0.00     0.050 C 
HETATM   27  C   UNL     1      44.006 -18.387   4.489  1.00  0.00     0.028 A 
HETATM   28  C   UNL     1      43.650 -19.010   3.297  1.00  0.00     0.011 A 
HETATM   29  C   UNL     1      43.054 -18.279   2.278  1.00  0.00     0.021 A 
HETATM   30 BR   UNL     1      43.978 -20.857   3.064  1.00  0.00    -0.051 Br
HETATM   31  C   UNL     1      42.818 -16.911   2.450  1.00  0.00     0.031 A 
ENDBRANCH  21  24
ENDBRANCH  19  20
ENDBRANCH   1  19
TORSDOF 5
ENDMDL
MODEL 3
REMARK VINA RESULT:      -8.5      0.731      1.852
REMARK  5 active torsions:
REMARK  status: ('A' for Active; 'I' for Inactive)
REMARK    1  A    between atoms: C_3  and  N_4 
REMARK       I    between atoms: N_4  and  C_5 
REMARK    2  A    between atoms: C_5  and  C_6 
REMARK    3  A    between atoms: C_6  and  N_7 
REMARK       I    between atoms: N_7  and  C_8 
REMARK    4  A    between atoms: C_8  and  C_9 
REMARK    5  A    between atoms: C_13  and  C_14 
ROOT
HETATM    1  N   UNL     1      43.561 -11.123   8.323  1.00  0.00    -0.347 N 
HETATM    2  C   UNL     1      44.281 -11.859   7.418  1.00  0.00     0.270 C 
HETATM    3  O   UNL     1      45.447 -11.579   7.155  1.00  0.00    -0.266 OA
HETATM    4  H   UNL     1      42.588 -11.338   8.484  1.00  0.00     0.163 HD
ENDROOT
BRANCH   2   5
HETATM    5  C   UNL     1      43.583 -12.929   6.766  1.00  0.00     0.120 A 
HETATM    6  N   UNL     1      43.056 -13.974   7.479  1.00  0.00    -0.272 N 
HETATM    7  H   UNL     1      43.088 -14.103   8.486  1.00  0.00     0.189 HD
HETATM    8  N   UNL     1      42.438 -14.895   6.729  1.00  0.00    -0.173 NA
HETATM    9  C   UNL     1      42.574 -14.440   5.480  1.00  0.00     0.093 A 
HETATM   10  C   UNL     1      43.266 -13.206   5.449  1.00  0.00     0.071 A 
BRANCH   9  11
HETATM   11  C   UNL     1      42.043 -15.149   4.317  1.00  0.00     0.044 A 
HETATM   12  C   UNL     1      41.017 -14.754   3.473  1.00  0.00     0.041 A 
HETATM   13  C   UNL     1      40.184 -13.524   3.453  1.00  0.00     0.071 C 
HETATM   14  N   UNL     1      40.865 -15.783   2.581  1.00  0.00    -0.278 N 
HETATM   15  C   UNL     1      39.894 -15.914   1.520  1.00  0.00     0.179 C 
HETATM   16  N   UNL     1      41.752 -16.782   2.753  1.00  0.00    -0.177 NA
HETATM   17  C   UNL     1      42.454 -16.418   3.833  1.00  0.00     0.065 A 
HETATM   18  C   UNL     1      43.489 -17.344   4.361  1.00  0.00     0.073 C 
ENDBRANCH   9  11
ENDBRANCH   2   5
BRANCH   1  19
HETATM   19  C   UNL     1      44.180 -10.112   9.171  1.00  0.00     0.226 C 
BRANCH  19  20
HETATM   20  C   UNL     1      43.743 -10.139  10.645  1.00  0.00     0.239 C 
HETATM   21  N   UNL     1      43.138  -8.966  11.062  1.00  0.00    -0.325 N 
HETATM   22  H   UNL     1      43.085  -8.235  10.358  1.00  0.00     0.169 HD
HETATM   23  O   UNL     1      44.028 -11.103  11.351  1.00  0.00    -0.271 OA
BRANCH  21  24
HETATM   24  C   UNL     1      42.654  -8.632  12.347  1.00  0.00     0.040 A 
HETATM   25  C   UNL     1      41.378  -9.105  12.735  1.00  0.00    -0.034 A 
HETATM   26  C   UNL     1      40.536  -9.980  11.844  1.00  0.00     0.050 C 
HETATM   27  C   UNL     1      40.866  -8.756  13.998  1.00  0.00     0.028 A 
HETATM   28  C   UNL     1      41.605  -7.960  14.868  1.00  0.00     0.011 A 
HETATM   29  C   UNL     1      42.864  -7.506  14.497  1.00  0.00     0.021 A 
HETATM   30 BR   UNL     1      40.897  -7.498  16.557  1.00  0.00    -0.051 Br
HETATM   31  C   UNL     1      43.385  -7.844  13.244  1.00  0.00     0.031 A 
ENDBRANCH  21  24
ENDBRANCH  19  20
ENDBRANCH   1  19
TORSDOF 5
ENDMDL
MODEL 4
REMARK VINA RESULT:      -8.5      1.455      1.947
REMARK  5 active torsions:
REMARK  status: ('A' for Active; 'I' for Inactive)
REMARK    1  A    between atoms: C_3  and  N_4 
REMARK       I    between atoms: N_4  and  C_5 
REMARK    2  A    between atoms: C_5  and  C_6 
REMARK    3  A    between atoms: C_6  and  N_7 
REMARK       I    between atoms: N_7  and  C_8 
REMARK    4  A    between atoms: C_8  and  C_9 
REMARK    5  A    between atoms: C_13  and  C_14 
ROOT
HETATM    1  N   UNL     1      43.319 -11.558   7.641  1.00  0.00    -0.347 N 
HETATM    2  C   UNL     1      42.648 -11.631   6.448  1.00  0.00     0.270 C 
HETATM    3  O   UNL     1      42.137 -10.636   5.943  1.00  0.00    -0.266 OA
HETATM    4  H   UNL     1      43.684 -12.398   8.064  1.00  0.00     0.163 HD
ENDROOT
BRANCH   2   5
HETATM    5  C   UNL     1      42.533 -12.935   5.860  1.00  0.00     0.120 A 
HETATM    6  N   UNL     1      41.389 -13.326   5.216  1.00  0.00    -0.272 N 
HETATM    7  H   UNL     1      40.547 -12.775   5.080  1.00  0.00     0.189 HD
HETATM    8  N   UNL     1      41.433 -14.571   4.724  1.00  0.00    -0.173 NA
HETATM    9  C   UNL     1      42.646 -15.012   5.069  1.00  0.00     0.093 A 
HETATM   10  C   UNL     1      43.381 -14.023   5.765  1.00  0.00     0.071 A 
BRANCH   9  11
HETATM   11  C   UNL     1      43.126 -16.352   4.734  1.00  0.00     0.044 A 
HETATM   12  C   UNL     1      43.325 -16.896   3.475  1.00  0.00     0.041 A 
HETATM   13  C   UNL     1      43.158 -16.313   2.119  1.00  0.00     0.071 C 
HETATM   14  N   UNL     1      43.725 -18.188   3.697  1.00  0.00    -0.278 N 
HETATM   15  C   UNL     1      44.009 -19.218   2.726  1.00  0.00     0.179 C 
HETATM   16  N   UNL     1      43.852 -18.496   5.001  1.00  0.00    -0.177 NA
HETATM   17  C   UNL     1      43.455 -17.390   5.644  1.00  0.00     0.065 A 
HETATM   18  C   UNL     1      43.395 -17.405   7.127  1.00  0.00     0.073 C 
ENDBRANCH   9  11
ENDBRANCH   2   5
BRANCH   1  19
HETATM   19  C   UNL     1      43.647 -10.285   8.271  1.00  0.00     0.226 C 
BRANCH  19  20
HETATM   20  C   UNL     1      43.519 -10.261   9.803  1.00  0.00     0.239 C 
HETATM   21  N   UNL     1      42.732  -9.225  10.274  1.00  0.00    -0.325 N 
HETATM   22  H   UNL     1      42.367  -8.602   9.559  1.00  0.00     0.169 HD
HETATM   23  O   UNL     1      44.163 -11.055  10.483  1.00  0.00    -0.271 OA
BRANCH  21  24
HETATM   24  C   UNL     1      42.434  -8.883  11.612  1.00  0.00     0.040 A 
HETATM   25  C   UNL     1      41.150  -9.191  12.121  1.00  0.00    -0.034 A 
HETATM   26  C   UNL     1      40.106  -9.904  11.301  1.00  0.00     0.050 C 
HETATM   27  C   UNL     1      40.823  -8.829  13.441  1.00  0.00     0.028 A 
HETATM   28  C   UNL     1      41.753  -8.181  14.249  1.00  0.00     0.011 A 
HETATM   29  C   UNL     1      43.019  -7.889  13.759  1.00  0.00     0.021 A 
HETATM   30 BR   UNL     1      41.293  -7.698  16.017  1.00  0.00    -0.051 Br
HETATM   31  C   UNL     1      43.356  -8.242  12.448  1.00  0.00     0.031 A 
ENDBRANCH  21  24
ENDBRANCH  19  20
ENDBRANCH   1  19
TORSDOF 5
ENDMDL
MODEL 5
REMARK VINA RESULT:      -8.3      8.016     10.912
REMARK  5 active torsions:
REMARK  status: ('A' for Active; 'I' for Inactive)
REMARK    1  A    between atoms: C_3  and  N_4 
REMARK       I    between atoms: N_4  and  C_5 
REMARK    2  A    between atoms: C_5  and  C_6 
REMARK    3  A    between atoms: C_6  and  N_7 
REMARK       I    between atoms: N_7  and  C_8 
REMARK    4  A    between atoms: C_8  and  C_9 
REMARK    5  A    between atoms: C_13  and  C_14 
ROOT
HETATM    1  N   UNL     1      40.561 -14.488  -0.538  1.00  0.00    -0.347 N 
HETATM    2  C   UNL     1      40.581 -14.470   0.832  1.00  0.00     0.270 C 
HETATM    3  O   UNL     1      39.818 -13.749   1.470  1.00  0.00    -0.266 OA
HETATM    4  H   UNL     1      41.233 -15.047  -1.043  1.00  0.00     0.163 HD
ENDROOT
BRANCH   2   5
HETATM    5  C   UNL     1      41.570 -15.292   1.467  1.00  0.00     0.120 A 
HETATM    6  N   UNL     1      42.859 -15.339   1.004  1.00  0.00    -0.272 N 
HETATM    7  H   UNL     1      43.243 -14.827   0.215  1.00  0.00     0.189 HD
HETATM    8  N   UNL     1      43.663 -16.154   1.699  1.00  0.00    -0.173 NA
HETATM    9  C   UNL     1      42.868 -16.664   2.644  1.00  0.00     0.093 A 
HETATM   10  C   UNL     1      41.555 -16.145   2.555  1.00  0.00     0.071 A 
BRANCH   9  11
HETATM   11  C   UNL     1      43.339 -17.625   3.641  1.00  0.00     0.044 A 
HETATM   12  C   UNL     1      43.625 -18.969   3.461  1.00  0.00     0.041 A 
HETATM   13  C   UNL     1      43.583 -19.825   2.248  1.00  0.00     0.071 C 
HETATM   14  N   UNL     1      43.972 -19.435   4.702  1.00  0.00    -0.278 N 
HETATM   15  C   UNL     1      44.307 -20.785   5.092  1.00  0.00     0.179 C 
HETATM   16  N   UNL     1      43.985 -18.481   5.652  1.00  0.00    -0.177 NA
HETATM   17  C   UNL     1      43.566 -17.378   5.020  1.00  0.00     0.065 A 
HETATM   18  C   UNL     1      43.385 -16.128   5.801  1.00  0.00     0.073 C 
ENDBRANCH   9  11
ENDBRANCH   2   5
BRANCH   1  19
HETATM   19  C   UNL     1      39.515 -13.829  -1.310  1.00  0.00     0.226 C 
BRANCH  19  20
HETATM   20  C   UNL     1      40.007 -12.751  -2.290  1.00  0.00     0.239 C 
HETATM   21  N   UNL     1      40.373 -11.569  -1.672  1.00  0.00    -0.325 N 
HETATM   22  H   UNL     1      40.247 -11.553  -0.664  1.00  0.00     0.169 HD
HETATM   23  O   UNL     1      39.954 -12.955  -3.501  1.00  0.00    -0.271 OA
BRANCH  21  24
HETATM   24  C   UNL     1      40.829 -10.369  -2.263  1.00  0.00     0.040 A 
HETATM   25  C   UNL     1      41.510  -9.430  -1.453  1.00  0.00    -0.034 A 
HETATM   26  C   UNL     1      41.799  -9.679   0.004  1.00  0.00     0.050 C 
HETATM   27  C   UNL     1      41.943  -8.215  -2.017  1.00  0.00     0.028 A 
HETATM   28  C   UNL     1      41.715  -7.937  -3.362  1.00  0.00     0.011 A 
HETATM   29  C   UNL     1      41.059  -8.862  -4.163  1.00  0.00     0.021 A 
HETATM   30 BR   UNL     1      42.298  -6.297  -4.098  1.00  0.00    -0.051 Br
HETATM   31  C   UNL     1      40.623 -10.072  -3.615  1.00  0.00     0.031 A 
ENDBRANCH  21  24
ENDBRANCH  19  20
ENDBRANCH   1  19
TORSDOF 5
ENDMDL
MODEL 6
REMARK VINA RESULT:      -8.2      2.583      3.179
REMARK  5 active torsions:
REMARK  status: ('A' for Active; 'I' for Inactive)
REMARK    1  A    between atoms: C_3  and  N_4 
REMARK       I    between atoms: N_4  and  C_5 
REMARK    2  A    between atoms: C_5  and  C_6 
REMARK    3  A    between atoms: C_6  and  N_7 
REMARK       I    between atoms: N_7  and  C_8 
REMARK    4  A    between atoms: C_8  and  C_9 
REMARK    5  A    between atoms: C_13  and  C_14 
ROOT
HETATM    1  N   UNL     1      41.051 -11.529   6.453  1.00  0.00    -0.347 N 
HETATM    2  C   UNL     1      40.089 -12.471   6.196  1.00  0.00     0.270 C 
HETATM    3  O   UNL     1      38.895 -12.184   6.219  1.00  0.00    -0.266 OA
HETATM    4  H   UNL     1      42.023 -11.799   6.482  1.00  0.00     0.163 HD
ENDROOT
BRANCH   2   5
HETATM    5  C   UNL     1      40.552 -13.807   5.956  1.00  0.00     0.120 A 
HETATM    6  N   UNL     1      39.803 -14.896   6.319  1.00  0.00    -0.272 N 
HETATM    7  H   UNL     1      38.890 -14.887   6.764  1.00  0.00     0.189 HD
HETATM    8  N   UNL     1      40.371 -16.074   6.033  1.00  0.00    -0.173 NA
HETATM    9  C   UNL     1      41.538 -15.743   5.472  1.00  0.00     0.093 A 
HETATM   10  C   UNL     1      41.693 -14.339   5.383  1.00  0.00     0.071 A 
BRANCH   9  11
HETATM   11  C   UNL     1      42.501 -16.738   5.002  1.00  0.00     0.044 A 
HETATM   12  C   UNL     1      42.653 -17.238   3.719  1.00  0.00     0.041 A 
HETATM   13  C   UNL     1      41.946 -16.916   2.453  1.00  0.00     0.071 C 
HETATM   14  N   UNL     1      43.646 -18.178   3.811  1.00  0.00    -0.278 N 
HETATM   15  C   UNL     1      44.160 -19.045   2.776  1.00  0.00     0.179 C 
HETATM   16  N   UNL     1      44.179 -18.280   5.043  1.00  0.00    -0.177 NA
HETATM   17  C   UNL     1      43.463 -17.427   5.786  1.00  0.00     0.065 A 
HETATM   18  C   UNL     1      43.738 -17.339   7.243  1.00  0.00     0.073 C 
ENDBRANCH   9  11
ENDBRANCH   2   5
BRANCH   1  19
HETATM   19  C   UNL     1      40.740 -10.109   6.559  1.00  0.00     0.226 C 
BRANCH  19  20
HETATM   20  C   UNL     1      41.519  -9.349   7.645  1.00  0.00     0.239 C 
HETATM   21  N   UNL     1      41.122  -9.666   8.931  1.00  0.00    -0.325 N 
HETATM   22  H   UNL     1      40.358 -10.332   8.994  1.00  0.00     0.169 HD
HETATM   23  O   UNL     1      42.330  -8.483   7.323  1.00  0.00    -0.271 OA
BRANCH  21  24
HETATM   24  C   UNL     1      41.591  -9.135  10.155  1.00  0.00     0.040 A 
HETATM   25  C   UNL     1      40.869  -8.079  10.757  1.00  0.00    -0.034 A 
HETATM   26  C   UNL     1      39.599  -7.527  10.163  1.00  0.00     0.050 C 
HETATM   27  C   UNL     1      41.338  -7.516  11.958  1.00  0.00     0.028 A 
HETATM   28  C   UNL     1      42.499  -7.995  12.559  1.00  0.00     0.011 A 
HETATM   29  C   UNL     1      43.203  -9.041  11.979  1.00  0.00     0.021 A 
HETATM   30 BR   UNL     1      43.116  -7.221  14.169  1.00  0.00    -0.051 Br
HETATM   31  C   UNL     1      42.748  -9.608  10.785  1.00  0.00     0.031 A 
ENDBRANCH  21  24
ENDBRANCH  19  20
ENDBRANCH   1  19
TORSDOF 5
ENDMDL
MODEL 7
REMARK VINA RESULT:      -8.1      2.641      3.090
REMARK  5 active torsions:
REMARK  status: ('A' for Active; 'I' for Inactive)
REMARK    1  A    between atoms: C_3  and  N_4 
REMARK       I    between atoms: N_4  and  C_5 
REMARK    2  A    between atoms: C_5  and  C_6 
REMARK    3  A    between atoms: C_6  and  N_7 
REMARK       I    between atoms: N_7  and  C_8 
REMARK    4  A    between atoms: C_8  and  C_9 
REMARK    5  A    between atoms: C_13  and  C_14 
ROOT
HETATM    1  N   UNL     1      40.554 -11.446   6.810  1.00  0.00    -0.347 N 
HETATM    2  C   UNL     1      40.085 -12.491   6.057  1.00  0.00     0.270 C 
HETATM    3  O   UNL     1      38.880 -12.679   5.911  1.00  0.00    -0.266 OA
HETATM    4  H   UNL     1      41.547 -11.342   6.962  1.00  0.00     0.163 HD
ENDROOT
BRANCH   2   5
HETATM    5  C   UNL     1      41.072 -13.371   5.503  1.00  0.00     0.120 A 
HETATM    6  N   UNL     1      42.255 -12.891   5.006  1.00  0.00    -0.272 N 
HETATM    7  H   UNL     1      42.556 -11.922   4.979  1.00  0.00     0.189 HD
HETATM    8  N   UNL     1      43.071 -13.835   4.520  1.00  0.00    -0.173 NA
HETATM    9  C   UNL     1      42.392 -14.972   4.698  1.00  0.00     0.093 A 
HETATM   10  C   UNL     1      41.145 -14.741   5.324  1.00  0.00     0.071 A 
BRANCH   9  11
HETATM   11  C   UNL     1      42.915 -16.278   4.297  1.00  0.00     0.044 A 
HETATM   12  C   UNL     1      43.282 -17.336   5.114  1.00  0.00     0.041 A 
HETATM   13  C   UNL     1      43.231 -17.497   6.590  1.00  0.00     0.071 C 
HETATM   14  N   UNL     1      43.758 -18.301   4.265  1.00  0.00    -0.278 N 
HETATM   15  C   UNL     1      44.325 -19.587   4.598  1.00  0.00     0.179 C 
HETATM   16  N   UNL     1      43.674 -17.964   2.965  1.00  0.00    -0.177 NA
HETATM   17  C   UNL     1      43.191 -16.716   2.976  1.00  0.00     0.065 A 
HETATM   18  C   UNL     1      43.040 -15.993   1.687  1.00  0.00     0.073 C 
ENDBRANCH   9  11
ENDBRANCH   2   5
BRANCH   1  19
HETATM   19  C   UNL     1      39.680 -10.388   7.302  1.00  0.00     0.226 C 
BRANCH  19  20
HETATM   20  C   UNL     1      40.352  -9.365   8.232  1.00  0.00     0.239 C 
HETATM   21  N   UNL     1      40.596  -9.853   9.504  1.00  0.00    -0.325 N 
HETATM   22  H   UNL     1      40.279 -10.804   9.668  1.00  0.00     0.169 HD
HETATM   23  O   UNL     1      40.532  -8.212   7.846  1.00  0.00    -0.271 OA
BRANCH  21  24
HETATM   24  C   UNL     1      41.159  -9.181  10.613  1.00  0.00     0.040 A 
HETATM   25  C   UNL     1      42.541  -9.338  10.870  1.00  0.00    -0.034 A 
HETATM   26  C   UNL     1      43.439 -10.162   9.985  1.00  0.00     0.050 C 
HETATM   27  C   UNL     1      43.113  -8.703  11.989  1.00  0.00     0.028 A 
HETATM   28  C   UNL     1      42.333  -7.919  12.834  1.00  0.00     0.011 A 
HETATM   29  C   UNL     1      40.979  -7.751  12.577  1.00  0.00     0.021 A 
HETATM   30 BR   UNL     1      43.119  -7.081  14.334  1.00  0.00    -0.051 Br
HETATM   31  C   UNL     1      40.398  -8.377  11.470  1.00  0.00     0.031 A 
ENDBRANCH  21  24
ENDBRANCH  19  20
ENDBRANCH   1  19
TORSDOF 5
ENDMDL
MODEL 8
REMARK VINA RESULT:      -8.1      4.467     10.831
REMARK  5 active torsions:
REMARK  status: ('A' for Active; 'I' for Inactive)
REMARK    1  A    between atoms: C_3  and  N_4 
REMARK       I    between atoms: N_4  and  C_5 
REMARK    2  A    between atoms: C_5  and  C_6 
REMARK    3  A    between atoms: C_6  and  N_7 
REMARK       I    between atoms: N_7  and  C_8 
REMARK    4  A    between atoms: C_8  and  C_9 
REMARK    5  A    between atoms: C_13  and  C_14 
ROOT
HETATM    1  N   UNL     1      39.685 -11.591   6.971  1.00  0.00    -0.347 N 
HETATM    2  C   UNL     1      39.106 -10.432   7.420  1.00  0.00     0.270 C 
HETATM    3  O   UNL     1      38.469  -9.705   6.663  1.00  0.00    -0.266 OA
HETATM    4  H   UNL     1      40.250 -12.145   7.598  1.00  0.00     0.163 HD
ENDROOT
BRANCH   2   5
HETATM    5  C   UNL     1      39.333 -10.097   8.796  1.00  0.00     0.120 A 
HETATM    6  N   UNL     1      38.773 -10.830   9.809  1.00  0.00    -0.272 N 
HETATM    7  H   UNL     1      38.178 -11.648   9.712  1.00  0.00     0.189 HD
HETATM    8  N   UNL     1      39.074 -10.392  11.037  1.00  0.00    -0.173 NA
HETATM    9  C   UNL     1      39.851  -9.326  10.818  1.00  0.00     0.093 A 
HETATM   10  C   UNL     1      40.059  -9.109   9.436  1.00  0.00     0.071 A 
BRANCH   9  11
HETATM   11  C   UNL     1      40.413  -8.520  11.901  1.00  0.00     0.044 A 
HETATM   12  C   UNL     1      41.723  -8.495  12.353  1.00  0.00     0.041 A 
HETATM   13  C   UNL     1      42.935  -9.215  11.884  1.00  0.00     0.071 C 
HETATM   14  N   UNL     1      41.724  -7.626  13.413  1.00  0.00    -0.278 N 
HETATM   15  C   UNL     1      42.822  -7.277  14.285  1.00  0.00     0.179 C 
HETATM   16  N   UNL     1      40.529  -7.052  13.641  1.00  0.00    -0.177 NA
HETATM   17  C   UNL     1      39.712  -7.617  12.743  1.00  0.00     0.065 A 
HETATM   18  C   UNL     1      38.270  -7.264  12.761  1.00  0.00     0.073 C 
ENDBRANCH   9  11
ENDBRANCH   2   5
BRANCH   1  19
HETATM   19  C   UNL     1      39.412 -12.135   5.647  1.00  0.00     0.226 C 
BRANCH  19  20
HETATM   20  C   UNL     1      40.566 -12.933   5.017  1.00  0.00     0.239 C 
HETATM   21  N   UNL     1      40.290 -14.282   4.877  1.00  0.00    -0.325 N 
HETATM   22  H   UNL     1      39.383 -14.575   5.228  1.00  0.00     0.169 HD
HETATM   23  O   UNL     1      41.637 -12.379   4.782  1.00  0.00    -0.271 OA
BRANCH  21  24
HETATM   24  C   UNL     1      41.127 -15.305   4.378  1.00  0.00     0.040 A 
HETATM   25  C   UNL     1      40.901 -15.789   3.068  1.00  0.00    -0.034 A 
HETATM   26  C   UNL     1      39.826 -15.226   2.174  1.00  0.00     0.050 C 
HETATM   27  C   UNL     1      41.703 -16.830   2.566  1.00  0.00     0.028 A 
HETATM   28  C   UNL     1      42.720 -17.378   3.342  1.00  0.00     0.011 A 
HETATM   29  C   UNL     1      42.955 -16.898   4.624  1.00  0.00     0.021 A 
HETATM   30 BR   UNL     1      43.782 -18.780   2.652  1.00  0.00    -0.051 Br
HETATM   31  C   UNL     1      42.164 -15.864   5.135  1.00  0.00     0.031 A 
ENDBRANCH  21  24
ENDBRANCH  19  20
ENDBRANCH   1  19
TORSDOF 5
ENDMDL
MODEL 9
REMARK VINA RESULT:      -8.1      2.621      3.275
REMARK  5 active torsions:
REMARK  status: ('A' for Active; 'I' for Inactive)
REMARK    1  A    between atoms: C_3  and  N_4 
REMARK       I    between atoms: N_4  and  C_5 
REMARK    2  A    between atoms: C_5  and  C_6 
REMARK    3  A    between atoms: C_6  and  N_7 
REMARK       I    between atoms: N_7  and  C_8 
REMARK    4  A    between atoms: C_8  and  C_9 
REMARK    5  A    between atoms: C_13  and  C_14 
ROOT
HETATM    1  N   UNL     1      40.500 -11.404   6.759  1.00  0.00    -0.347 N 
HETATM    2  C   UNL     1      40.065 -12.544   6.134  1.00  0.00     0.270 C 
HETATM    3  O   UNL     1      38.868 -12.806   6.052  1.00  0.00    -0.266 OA
HETATM    4  H   UNL     1      41.490 -11.235   6.862  1.00  0.00     0.163 HD
ENDROOT
BRANCH   2   5
HETATM    5  C   UNL     1      41.080 -13.427   5.637  1.00  0.00     0.120 A 
HETATM    6  N   UNL     1      42.233 -12.942   5.078  1.00  0.00    -0.272 N 
HETATM    7  H   UNL     1      42.491 -11.967   4.962  1.00  0.00     0.189 HD
HETATM    8  N   UNL     1      43.081 -13.889   4.658  1.00  0.00    -0.173 NA
HETATM    9  C   UNL     1      42.455 -15.034   4.946  1.00  0.00     0.093 A 
HETATM   10  C   UNL     1      41.209 -14.802   5.575  1.00  0.00     0.071 A 
BRANCH   9  11
HETATM   11  C   UNL     1      43.028 -16.347   4.648  1.00  0.00     0.044 A 
HETATM   12  C   UNL     1      43.175 -16.951   3.410  1.00  0.00     0.041 A 
HETATM   13  C   UNL     1      42.848 -16.473   2.042  1.00  0.00     0.071 C 
HETATM   14  N   UNL     1      43.708 -18.186   3.671  1.00  0.00    -0.278 N 
HETATM   15  C   UNL     1      44.008 -19.249   2.739  1.00  0.00     0.179 C 
HETATM   16  N   UNL     1      43.966 -18.398   4.975  1.00  0.00    -0.177 NA
HETATM   17  C   UNL     1      43.522 -17.292   5.585  1.00  0.00     0.065 A 
HETATM   18  C   UNL     1      43.580 -17.216   7.066  1.00  0.00     0.073 C 
ENDBRANCH   9  11
ENDBRANCH   2   5
BRANCH   1  19
HETATM   19  C   UNL     1      39.587 -10.345   7.171  1.00  0.00     0.226 C 
BRANCH  19  20
HETATM   20  C   UNL     1      39.420 -10.181   8.691  1.00  0.00     0.239 C 
HETATM   21  N   UNL     1      40.444  -9.463   9.282  1.00  0.00    -0.325 N 
HETATM   22  H   UNL     1      41.181  -9.163   8.650  1.00  0.00     0.169 HD
HETATM   23  O   UNL     1      38.496 -10.747   9.270  1.00  0.00    -0.271 OA
BRANCH  21  24
HETATM   24  C   UNL     1      40.631  -9.157  10.650  1.00  0.00     0.040 A 
HETATM   25  C   UNL     1      41.887  -9.430  11.240  1.00  0.00    -0.034 A 
HETATM   26  C   UNL     1      43.042  -9.996  10.457  1.00  0.00     0.050 C 
HETATM   27  C   UNL     1      42.081  -9.162  12.609  1.00  0.00     0.028 A 
HETATM   28  C   UNL     1      41.053  -8.626  13.378  1.00  0.00     0.011 A 
HETATM   29  C   UNL     1      39.822  -8.344  12.800  1.00  0.00     0.021 A 
HETATM   30 BR   UNL     1      41.332  -8.280  15.215  1.00  0.00    -0.051 Br
HETATM   31  C   UNL     1      39.616  -8.606  11.441  1.00  0.00     0.031 A 
ENDBRANCH  21  24
ENDBRANCH  19  20
ENDBRANCH   1  19
TORSDOF 5
ENDMDL
MODEL 10
REMARK VINA RESULT:      -7.8      7.415     10.028
REMARK  5 active torsions:
REMARK  status: ('A' for Active; 'I' for Inactive)
REMARK    1  A    between atoms: C_3  and  N_4 
REMARK       I    between atoms: N_4  and  C_5 
REMARK    2  A    between atoms: C_5  and  C_6 
REMARK    3  A    between atoms: C_6  and  N_7 
REMARK       I    between atoms: N_7  and  C_8 
REMARK    4  A    between atoms: C_8  and  C_9 
REMARK    5  A    between atoms: C_13  and  C_14 
ROOT
HETATM    1  N   UNL     1      40.991 -13.191  -1.027  1.00  0.00    -0.347 N 
HETATM    2  C   UNL     1      40.187 -14.209  -0.585  1.00  0.00     0.270 C 
HETATM    3  O   UNL     1      39.171 -14.527  -1.196  1.00  0.00    -0.266 OA
HETATM    4  H   UNL     1      41.792 -12.910  -0.481  1.00  0.00     0.163 HD
ENDROOT
BRANCH   2   5
HETATM    5  C   UNL     1      40.569 -14.835   0.647  1.00  0.00     0.120 A 
HETATM    6  N   UNL     1      39.633 -15.220   1.570  1.00  0.00    -0.272 N 
HETATM    7  H   UNL     1      38.625 -15.121   1.494  1.00  0.00     0.189 HD
HETATM    8  N   UNL     1      40.145 -15.786   2.671  1.00  0.00    -0.173 NA
HETATM    9  C   UNL     1      41.465 -15.760   2.462  1.00  0.00     0.093 A 
HETATM   10  C   UNL     1      41.783 -15.193   1.206  1.00  0.00     0.071 A 
BRANCH   9  11
HETATM   11  C   UNL     1      42.429 -16.282   3.431  1.00  0.00     0.044 A 
HETATM   12  C   UNL     1      42.883 -15.677   4.591  1.00  0.00     0.041 A 
HETATM   13  C   UNL     1      42.530 -14.378   5.222  1.00  0.00     0.071 C 
HETATM   14  N   UNL     1      43.811 -16.541   5.112  1.00  0.00    -0.278 N 
HETATM   15  C   UNL     1      44.634 -16.372   6.286  1.00  0.00     0.179 C 
HETATM   16  N   UNL     1      43.946 -17.677   4.403  1.00  0.00    -0.177 NA
HETATM   17  C   UNL     1      43.129 -17.514   3.355  1.00  0.00     0.065 A 
HETATM   18  C   UNL     1      43.086 -18.566   2.308  1.00  0.00     0.073 C 
ENDBRANCH   9  11
ENDBRANCH   2   5
BRANCH   1  19
HETATM   19  C   UNL     1      40.815 -12.572  -2.335  1.00  0.00     0.226 C 
BRANCH  19  20
HETATM   20  C   UNL     1      40.842 -11.035  -2.341  1.00  0.00     0.239 C 
HETATM   21  N   UNL     1      41.610 -10.494  -1.325  1.00  0.00    -0.325 N 
HETATM   22  H   UNL     1      42.031 -11.172  -0.696  1.00  0.00     0.169 HD
HETATM   23  O   UNL     1      40.143 -10.413  -3.137  1.00  0.00    -0.271 OA
BRANCH  21  24
HETATM   24  C   UNL     1      41.825  -9.133  -1.011  1.00  0.00     0.040 A 
HETATM   25  C   UNL     1      40.939  -8.497  -0.110  1.00  0.00    -0.034 A 
HETATM   26  C   UNL     1      39.801  -9.226   0.555  1.00  0.00     0.050 C 
HETATM   27  C   UNL     1      41.117  -7.133   0.189  1.00  0.00     0.028 A 
HETATM   28  C   UNL     1      42.160  -6.412  -0.386  1.00  0.00     0.011 A 
HETATM   29  C   UNL     1      43.040  -7.036  -1.260  1.00  0.00     0.021 A 
HETATM   30 BR   UNL     1      42.378  -4.580   0.024  1.00  0.00    -0.051 Br
HETATM   31  C   UNL     1      42.873  -8.390  -1.567  1.00  0.00     0.031 A 
ENDBRANCH  21  24
ENDBRANCH  19  20
ENDBRANCH   1  19
TORSDOF 5
ENDMDL
