MODEL 1
REMARK VINA RESULT:      -6.8      0.000      0.000
REMARK  3 active torsions:
REMARK  status: ('A' for Active; 'I' for Inactive)
REMARK    1  A    between atoms: C_2  and  N_3 
REMARK    2  A    between atoms: C_2  and  C_14 
REMARK       I    between atoms: N_3  and  C_4 
REMARK    3  A    between atoms: C_4  and  C_5 
ROOT
HETATM    1  N   UNL     1      41.628 -15.078   2.089  1.00  0.00    -0.347 N 
HETATM    2  C   UNL     1      40.443 -14.459   1.780  1.00  0.00     0.268 C 
HETATM    3  O   UNL     1      39.588 -14.201   2.621  1.00  0.00    -0.266 OA
HETATM    4  H   UNL     1      42.302 -15.259   1.361  1.00  0.00     0.163 HD
ENDROOT
BRANCH   1   5
HETATM    5  C   UNL     1      41.977 -15.438   3.451  1.00  0.00     0.114 C 
HETATM    6  C   UNL     1      42.776 -14.322   4.133  1.00  0.00     0.037 C 
BRANCH   5   7
HETATM    7  C   UNL     1      42.714 -16.763   3.453  1.00  0.00    -0.033 A 
HETATM    8  C   UNL     1      42.589 -17.632   2.363  1.00  0.00     0.028 A 
HETATM    9  C   UNL     1      43.290 -18.828   2.375  1.00  0.00     0.116 A 
HETATM   10  N   UNL     1      44.101 -19.212   3.382  1.00  0.00    -0.273 NA
HETATM   11  C   UNL     1      44.218 -18.362   4.422  1.00  0.00     0.116 A 
HETATM   12  C   UNL     1      43.560 -17.144   4.501  1.00  0.00     0.028 A 
ENDBRANCH   5   7
ENDBRANCH   1   5
BRANCH   2  13
HETATM   13  C   UNL     1      40.263 -14.124   0.384  1.00  0.00     0.103 A 
HETATM   14  N   UNL     1      39.491 -14.917  -0.445  1.00  0.00    -0.341 N 
HETATM   15  H   UNL     1      39.016 -15.761  -0.147  1.00  0.00     0.167 HD
HETATM   16  C   UNL     1      39.474 -14.392  -1.698  1.00  0.00     0.126 A 
HETATM   17 CL   UNL     1      38.577 -15.209  -2.884  1.00  0.00    -0.063 Cl
HETATM   18  C   UNL     1      40.228 -13.252  -1.719  1.00  0.00     0.074 A 
HETATM   19 CL   UNL     1      40.535 -12.212  -3.022  1.00  0.00    -0.081 Cl
HETATM   20  C   UNL     1      40.732 -13.078  -0.404  1.00  0.00     0.062 A 
ENDBRANCH   2  13
TORSDOF 3
ENDMDL
MODEL 2
REMARK VINA RESULT:      -6.6      3.585      6.788
REMARK  3 active torsions:
REMARK  status: ('A' for Active; 'I' for Inactive)
REMARK    1  A    between atoms: C_2  and  N_3 
REMARK    2  A    between atoms: C_2  and  C_14 
REMARK       I    between atoms: N_3  and  C_4 
REMARK    3  A    between atoms: C_4  and  C_5 
ROOT
HETATM    1  N   UNL     1      41.459 -14.341   1.276  1.00  0.00    -0.347 N 
HETATM    2  C   UNL     1      42.542 -14.377   2.118  1.00  0.00     0.268 C 
HETATM    3  O   UNL     1      43.143 -13.368   2.473  1.00  0.00    -0.266 OA
HETATM    4  H   UNL     1      40.996 -15.200   1.022  1.00  0.00     0.163 HD
ENDROOT
BRANCH   1   5
HETATM    5  C   UNL     1      40.916 -13.092   0.773  1.00  0.00     0.114 C 
HETATM    6  C   UNL     1      39.790 -12.574   1.674  1.00  0.00     0.037 C 
BRANCH   5   7
HETATM    7  C   UNL     1      40.470 -13.276  -0.665  1.00  0.00    -0.033 A 
HETATM    8  C   UNL     1      39.652 -14.357  -1.009  1.00  0.00     0.028 A 
HETATM    9  C   UNL     1      39.238 -14.493  -2.325  1.00  0.00     0.116 A 
HETATM   10  N   UNL     1      39.573 -13.634  -3.310  1.00  0.00    -0.273 NA
HETATM   11  C   UNL     1      40.356 -12.593  -2.963  1.00  0.00     0.116 A 
HETATM   12  C   UNL     1      40.820 -12.370  -1.674  1.00  0.00     0.028 A 
ENDBRANCH   5   7
ENDBRANCH   1   5
BRANCH   2  13
HETATM   13  C   UNL     1      42.935 -15.694   2.568  1.00  0.00     0.103 A 
HETATM   14  N   UNL     1      43.290 -15.921   3.885  1.00  0.00    -0.341 N 
HETATM   15  H   UNL     1      43.302 -15.207   4.604  1.00  0.00     0.167 HD
HETATM   16  C   UNL     1      43.611 -17.230   4.056  1.00  0.00     0.126 A 
HETATM   17 CL   UNL     1      44.077 -17.732   5.609  1.00  0.00    -0.063 Cl
HETATM   18  C   UNL     1      43.475 -17.887   2.865  1.00  0.00     0.074 A 
HETATM   19 CL   UNL     1      43.746 -19.525   2.525  1.00  0.00    -0.081 Cl
HETATM   20  C   UNL     1      43.049 -16.919   1.918  1.00  0.00     0.062 A 
ENDBRANCH   2  13
TORSDOF 3
ENDMDL
MODEL 3
REMARK VINA RESULT:      -6.5      6.184      7.431
REMARK  3 active torsions:
REMARK  status: ('A' for Active; 'I' for Inactive)
REMARK    1  A    between atoms: C_2  and  N_3 
REMARK    2  A    between atoms: C_2  and  C_14 
REMARK       I    between atoms: N_3  and  C_4 
REMARK    3  A    between atoms: C_4  and  C_5 
ROOT
HETATM    1  N   UNL     1      42.552 -13.923   6.372  1.00  0.00    -0.347 N 
HETATM    2  C   UNL     1      43.259 -12.934   5.738  1.00  0.00     0.268 C 
HETATM    3  O   UNL     1      43.301 -12.823   4.517  1.00  0.00    -0.266 OA
HETATM    4  H   UNL     1      42.544 -13.964   7.379  1.00  0.00     0.163 HD
ENDROOT
BRANCH   1   5
HETATM    5  C   UNL     1      41.760 -14.895   5.639  1.00  0.00     0.114 C 
HETATM    6  C   UNL     1      40.406 -15.132   6.317  1.00  0.00     0.037 C 
BRANCH   5   7
HETATM    7  C   UNL     1      42.557 -16.174   5.470  1.00  0.00    -0.033 A 
HETATM    8  C   UNL     1      42.766 -17.016   6.569  1.00  0.00     0.028 A 
HETATM    9  C   UNL     1      43.477 -18.191   6.387  1.00  0.00     0.116 A 
HETATM   10  N   UNL     1      43.984 -18.586   5.201  1.00  0.00    -0.273 NA
HETATM   11  C   UNL     1      43.768 -17.770   4.150  1.00  0.00     0.116 A 
HETATM   12  C   UNL     1      43.068 -16.575   4.230  1.00  0.00     0.028 A 
ENDBRANCH   5   7
ENDBRANCH   1   5
BRANCH   2  13
HETATM   13  C   UNL     1      43.960 -12.017   6.609  1.00  0.00     0.103 A 
HETATM   14  N   UNL     1      43.519 -11.780   7.898  1.00  0.00    -0.341 N 
HETATM   15  H   UNL     1      42.701 -12.213   8.310  1.00  0.00     0.167 HD
HETATM   16  C   UNL     1      44.344 -10.890   8.510  1.00  0.00     0.126 A 
HETATM   17 CL   UNL     1      43.988 -10.456  10.111  1.00  0.00    -0.063 Cl
HETATM   18  C   UNL     1      45.337 -10.526   7.644  1.00  0.00     0.074 A 
HETATM   19 CL   UNL     1      46.622  -9.452   7.901  1.00  0.00    -0.081 Cl
HETATM   20  C   UNL     1      45.098 -11.235   6.437  1.00  0.00     0.062 A 
ENDBRANCH   2  13
TORSDOF 3
ENDMDL
MODEL 4
REMARK VINA RESULT:      -6.5      3.546      6.514
REMARK  3 active torsions:
REMARK  status: ('A' for Active; 'I' for Inactive)
REMARK    1  A    between atoms: C_2  and  N_3 
REMARK    2  A    between atoms: C_2  and  C_14 
REMARK       I    between atoms: N_3  and  C_4 
REMARK    3  A    between atoms: C_4  and  C_5 
ROOT
HETATM    1  N   UNL     1      41.562 -14.938   2.569  1.00  0.00    -0.347 N 
HETATM    2  C   UNL     1      42.873 -15.313   2.425  1.00  0.00     0.268 C 
HETATM    3  O   UNL     1      43.730 -14.570   1.956  1.00  0.00    -0.266 OA
HETATM    4  H   UNL     1      40.899 -15.584   2.968  1.00  0.00     0.163 HD
ENDROOT
BRANCH   1   5
HETATM    5  C   UNL     1      41.096 -13.610   2.212  1.00  0.00     0.114 C 
HETATM    6  C   UNL     1      39.978 -13.144   3.150  1.00  0.00     0.037 C 
BRANCH   5   7
HETATM    7  C   UNL     1      40.677 -13.594   0.755  1.00  0.00    -0.033 A 
HETATM    8  C   UNL     1      39.942 -14.663   0.229  1.00  0.00     0.028 A 
HETATM    9  C   UNL     1      39.549 -14.617  -1.100  1.00  0.00     0.116 A 
HETATM   10  N   UNL     1      39.828 -13.591  -1.930  1.00  0.00    -0.273 NA
HETATM   11  C   UNL     1      40.529 -12.564  -1.408  1.00  0.00     0.116 A 
HETATM   12  C   UNL     1      40.966 -12.517  -0.092  1.00  0.00     0.028 A 
ENDBRANCH   5   7
ENDBRANCH   1   5
BRANCH   2  13
HETATM   13  C   UNL     1      43.188 -16.653   2.867  1.00  0.00     0.103 A 
HETATM   14  N   UNL     1      43.127 -17.725   1.994  1.00  0.00    -0.341 N 
HETATM   15  H   UNL     1      42.863 -17.652   1.019  1.00  0.00     0.167 HD
HETATM   16  C   UNL     1      43.470 -18.867   2.644  1.00  0.00     0.126 A 
HETATM   17 CL   UNL     1      43.464 -20.313   1.755  1.00  0.00    -0.063 Cl
HETATM   18  C   UNL     1      43.763 -18.575   3.947  1.00  0.00     0.074 A 
HETATM   19 CL   UNL     1      44.248 -19.628   5.183  1.00  0.00    -0.081 Cl
HETATM   20  C   UNL     1      43.584 -17.174   4.095  1.00  0.00     0.062 A 
ENDBRANCH   2  13
TORSDOF 3
ENDMDL
MODEL 5
REMARK VINA RESULT:      -6.3      7.906      9.815
REMARK  3 active torsions:
REMARK  status: ('A' for Active; 'I' for Inactive)
REMARK    1  A    between atoms: C_2  and  N_3 
REMARK    2  A    between atoms: C_2  and  C_14 
REMARK       I    between atoms: N_3  and  C_4 
REMARK    3  A    between atoms: C_4  and  C_5 
ROOT
HETATM    1  N   UNL     1      43.577 -11.641   8.028  1.00  0.00    -0.347 N 
HETATM    2  C   UNL     1      44.437 -10.936   8.832  1.00  0.00     0.268 C 
HETATM    3  O   UNL     1      45.654 -10.946   8.674  1.00  0.00    -0.266 OA
HETATM    4  H   UNL     1      42.584 -11.591   8.195  1.00  0.00     0.163 HD
ENDROOT
BRANCH   1   5
HETATM    5  C   UNL     1      44.045 -12.423   6.898  1.00  0.00     0.114 C 
HETATM    6  C   UNL     1      44.172 -11.559   5.639  1.00  0.00     0.037 C 
BRANCH   5   7
HETATM    7  C   UNL     1      43.129 -13.615   6.693  1.00  0.00    -0.033 A 
HETATM    8  C   UNL     1      42.198 -13.608   5.649  1.00  0.00     0.028 A 
HETATM    9  C   UNL     1      41.387 -14.717   5.466  1.00  0.00     0.116 A 
HETATM   10  N   UNL     1      41.442 -15.823   6.237  1.00  0.00    -0.273 NA
HETATM   11  C   UNL     1      42.350 -15.819   7.235  1.00  0.00     0.116 A 
HETATM   12  C   UNL     1      43.205 -14.759   7.497  1.00  0.00     0.028 A 
ENDBRANCH   5   7
ENDBRANCH   1   5
BRANCH   2  13
HETATM   13  C   UNL     1      43.813 -10.169   9.887  1.00  0.00     0.103 A 
HETATM   14  N   UNL     1      42.436 -10.103  10.002  1.00  0.00    -0.341 N 
HETATM   15  H   UNL     1      41.788 -10.567   9.376  1.00  0.00     0.167 HD
HETATM   16  C   UNL     1      42.100  -9.331  11.068  1.00  0.00     0.126 A 
HETATM   17 CL   UNL     1      40.450  -9.115  11.397  1.00  0.00    -0.063 Cl
HETATM   18  C   UNL     1      43.239  -8.877  11.673  1.00  0.00     0.074 A 
HETATM   19 CL   UNL     1      43.387  -7.885  13.039  1.00  0.00    -0.081 Cl
HETATM   20  C   UNL     1      44.327  -9.403  10.928  1.00  0.00     0.062 A 
ENDBRANCH   2  13
TORSDOF 3
ENDMDL
MODEL 6
REMARK VINA RESULT:      -6.1      4.175      6.563
REMARK  3 active torsions:
REMARK  status: ('A' for Active; 'I' for Inactive)
REMARK    1  A    between atoms: C_2  and  N_3 
REMARK    2  A    between atoms: C_2  and  C_14 
REMARK       I    between atoms: N_3  and  C_4 
REMARK    3  A    between atoms: C_4  and  C_5 
ROOT
HETATM    1  N   UNL     1      42.036 -15.504   4.423  1.00  0.00    -0.347 N 
HETATM    2  C   UNL     1      42.962 -15.918   3.500  1.00  0.00     0.268 C 
HETATM    3  O   UNL     1      43.439 -15.168   2.654  1.00  0.00    -0.266 OA
HETATM    4  H   UNL     1      41.681 -16.160   5.103  1.00  0.00     0.163 HD
ENDROOT
BRANCH   1   5
HETATM    5  C   UNL     1      41.580 -14.128   4.495  1.00  0.00     0.114 C 
HETATM    6  C   UNL     1      41.076 -13.639   3.133  1.00  0.00     0.037 C 
BRANCH   5   7
HETATM    7  C   UNL     1      42.689 -13.255   5.051  1.00  0.00    -0.033 A 
HETATM    8  C   UNL     1      43.137 -12.148   4.321  1.00  0.00     0.028 A 
HETATM    9  C   UNL     1      44.136 -11.351   4.858  1.00  0.00     0.116 A 
HETATM   10  N   UNL     1      44.709 -11.572   6.059  1.00  0.00    -0.273 NA
HETATM   11  C   UNL     1      44.263 -12.638   6.754  1.00  0.00     0.116 A 
HETATM   12  C   UNL     1      43.268 -13.493   6.303  1.00  0.00     0.028 A 
ENDBRANCH   5   7
ENDBRANCH   1   5
BRANCH   2  13
HETATM   13  C   UNL     1      43.347 -17.309   3.586  1.00  0.00     0.103 A 
HETATM   14  N   UNL     1      43.279 -18.137   2.480  1.00  0.00    -0.341 N 
HETATM   15  H   UNL     1      42.964 -17.841   1.564  1.00  0.00     0.167 HD
HETATM   16  C   UNL     1      43.696 -19.386   2.815  1.00  0.00     0.126 A 
HETATM   17 CL   UNL     1      43.697 -20.570   1.599  1.00  0.00    -0.063 Cl
HETATM   18  C   UNL     1      44.044 -19.406   4.136  1.00  0.00     0.074 A 
HETATM   19 CL   UNL     1      44.629 -20.704   5.056  1.00  0.00    -0.081 Cl
HETATM   20  C   UNL     1      43.823 -18.094   4.631  1.00  0.00     0.062 A 
ENDBRANCH   2  13
TORSDOF 3
ENDMDL
MODEL 7
REMARK VINA RESULT:      -6.1      4.349      5.293
REMARK  3 active torsions:
REMARK  status: ('A' for Active; 'I' for Inactive)
REMARK    1  A    between atoms: C_2  and  N_3 
REMARK    2  A    between atoms: C_2  and  C_14 
REMARK       I    between atoms: N_3  and  C_4 
REMARK    3  A    between atoms: C_4  and  C_5 
ROOT
HETATM    1  N   UNL     1      41.957 -15.421   5.947  1.00  0.00    -0.347 N 
HETATM    2  C   UNL     1      40.675 -15.080   6.294  1.00  0.00     0.268 C 
HETATM    3  O   UNL     1      39.938 -15.824   6.933  1.00  0.00    -0.266 OA
HETATM    4  H   UNL     1      42.525 -14.769   5.429  1.00  0.00     0.163 HD
ENDROOT
BRANCH   1   5
HETATM    5  C   UNL     1      42.555 -16.682   6.350  1.00  0.00     0.114 C 
HETATM    6  C   UNL     1      43.620 -16.471   7.431  1.00  0.00     0.037 C 
BRANCH   5   7
HETATM    7  C   UNL     1      43.101 -17.397   5.129  1.00  0.00    -0.033 A 
HETATM    8  C   UNL     1      43.910 -18.528   5.287  1.00  0.00     0.028 A 
HETATM    9  C   UNL     1      44.380 -19.179   4.157  1.00  0.00     0.116 A 
HETATM   10  N   UNL     1      44.098 -18.792   2.896  1.00  0.00    -0.273 NA
HETATM   11  C   UNL     1      43.311 -17.706   2.758  1.00  0.00     0.116 A 
HETATM   12  C   UNL     1      42.792 -16.988   3.826  1.00  0.00     0.028 A 
ENDBRANCH   5   7
ENDBRANCH   1   5
BRANCH   2  13
HETATM   13  C   UNL     1      40.241 -13.771   5.856  1.00  0.00     0.103 A 
HETATM   14  N   UNL     1      40.037 -12.748   6.764  1.00  0.00    -0.341 N 
HETATM   15  H   UNL     1      40.168 -12.837   7.765  1.00  0.00     0.167 HD
HETATM   16  C   UNL     1      39.640 -11.625   6.110  1.00  0.00     0.126 A 
HETATM   17 CL   UNL     1      39.333 -10.238   7.037  1.00  0.00    -0.063 Cl
HETATM   18  C   UNL     1      39.575 -11.884   4.769  1.00  0.00     0.074 A 
HETATM   19 CL   UNL     1      39.139 -10.836   3.510  1.00  0.00    -0.081 Cl
HETATM   20  C   UNL     1      39.953 -13.243   4.603  1.00  0.00     0.062 A 
ENDBRANCH   2  13
TORSDOF 3
ENDMDL
MODEL 8
REMARK VINA RESULT:      -6.0      6.985      9.256
REMARK  3 active torsions:
REMARK  status: ('A' for Active; 'I' for Inactive)
REMARK    1  A    between atoms: C_2  and  N_3 
REMARK    2  A    between atoms: C_2  and  C_14 
REMARK       I    between atoms: N_3  and  C_4 
REMARK    3  A    between atoms: C_4  and  C_5 
ROOT
HETATM    1  N   UNL     1      43.869 -11.791   7.864  1.00  0.00    -0.347 N 
HETATM    2  C   UNL     1      43.655 -12.366   6.637  1.00  0.00     0.268 C 
HETATM    3  O   UNL     1      43.851 -11.773   5.581  1.00  0.00    -0.266 OA
HETATM    4  H   UNL     1      43.700 -12.325   8.702  1.00  0.00     0.163 HD
ENDROOT
BRANCH   1   5
HETATM    5  C   UNL     1      44.388 -10.442   8.003  1.00  0.00     0.114 C 
HETATM    6  C   UNL     1      45.919 -10.439   8.062  1.00  0.00     0.037 C 
BRANCH   5   7
HETATM    7  C   UNL     1      43.759  -9.779   9.214  1.00  0.00    -0.033 A 
HETATM    8  C   UNL     1      42.410  -9.408   9.184  1.00  0.00     0.028 A 
HETATM    9  C   UNL     1      41.851  -8.824  10.310  1.00  0.00     0.116 A 
HETATM   10  N   UNL     1      42.531  -8.593  11.452  1.00  0.00    -0.273 NA
HETATM   11  C   UNL     1      43.827  -8.963  11.470  1.00  0.00     0.116 A 
HETATM   12  C   UNL     1      44.476  -9.554  10.395  1.00  0.00     0.028 A 
ENDBRANCH   5   7
ENDBRANCH   1   5
BRANCH   2  13
HETATM   13  C   UNL     1      43.179 -13.731   6.666  1.00  0.00     0.103 A 
HETATM   14  N   UNL     1      41.825 -14.014   6.662  1.00  0.00    -0.341 N 
HETATM   15  H   UNL     1      41.095 -13.312   6.643  1.00  0.00     0.167 HD
HETATM   16  C   UNL     1      41.637 -15.359   6.687  1.00  0.00     0.126 A 
HETATM   17 CL   UNL     1      40.040 -15.933   6.685  1.00  0.00    -0.063 Cl
HETATM   18  C   UNL     1      42.852 -15.985   6.708  1.00  0.00     0.074 A 
HETATM   19 CL   UNL     1      43.186 -17.646   6.740  1.00  0.00    -0.081 Cl
HETATM   20  C   UNL     1      43.833 -14.958   6.697  1.00  0.00     0.062 A 
ENDBRANCH   2  13
TORSDOF 3
ENDMDL
MODEL 9
REMARK VINA RESULT:      -5.9     14.948     16.463
REMARK  3 active torsions:
REMARK  status: ('A' for Active; 'I' for Inactive)
REMARK    1  A    between atoms: C_2  and  N_3 
REMARK    2  A    between atoms: C_2  and  C_14 
REMARK       I    between atoms: N_3  and  C_4 
REMARK    3  A    between atoms: C_4  and  C_5 
ROOT
HETATM    1  N   UNL     1      46.127 -29.732   0.899  1.00  0.00    -0.347 N 
HETATM    2  C   UNL     1      46.973 -28.925   1.616  1.00  0.00     0.268 C 
HETATM    3  O   UNL     1      46.689 -27.772   1.928  1.00  0.00    -0.266 OA
HETATM    4  H   UNL     1      46.405 -30.675   0.677  1.00  0.00     0.163 HD
ENDROOT
BRANCH   1   5
HETATM    5  C   UNL     1      44.805 -29.291   0.489  1.00  0.00     0.114 C 
HETATM    6  C   UNL     1      43.721 -30.253   0.986  1.00  0.00     0.037 C 
BRANCH   5   7
HETATM    7  C   UNL     1      44.776 -29.111  -1.017  1.00  0.00    -0.033 A 
HETATM    8  C   UNL     1      44.053 -30.007  -1.812  1.00  0.00     0.028 A 
HETATM    9  C   UNL     1      44.021 -29.811  -3.184  1.00  0.00     0.116 A 
HETATM   10  N   UNL     1      44.646 -28.793  -3.811  1.00  0.00    -0.273 NA
HETATM   11  C   UNL     1      45.332 -27.933  -3.032  1.00  0.00     0.116 A 
HETATM   12  C   UNL     1      45.423 -28.045  -1.652  1.00  0.00     0.028 A 
ENDBRANCH   5   7
ENDBRANCH   1   5
BRANCH   2  13
HETATM   13  C   UNL     1      48.235 -29.524   1.989  1.00  0.00     0.103 A 
HETATM   14  N   UNL     1      49.024 -30.166   1.051  1.00  0.00    -0.341 N 
HETATM   15  H   UNL     1      48.781 -30.263   0.072  1.00  0.00     0.167 HD
HETATM   16  C   UNL     1      50.152 -30.637   1.644  1.00  0.00     0.126 A 
HETATM   17 CL   UNL     1      51.270 -31.462   0.670  1.00  0.00    -0.063 Cl
HETATM   18  C   UNL     1      50.131 -30.316   2.972  1.00  0.00     0.074 A 
HETATM   19 CL   UNL     1      51.289 -30.660   4.161  1.00  0.00    -0.081 Cl
HETATM   20  C   UNL     1      48.918 -29.613   3.198  1.00  0.00     0.062 A 
ENDBRANCH   2  13
TORSDOF 3
ENDMDL
MODEL 10
REMARK VINA RESULT:      -5.9      8.264     10.453
REMARK  3 active torsions:
REMARK  status: ('A' for Active; 'I' for Inactive)
REMARK    1  A    between atoms: C_2  and  N_3 
REMARK    2  A    between atoms: C_2  and  C_14 
REMARK       I    between atoms: N_3  and  C_4 
REMARK    3  A    between atoms: C_4  and  C_5 
ROOT
HETATM    1  N   UNL     1      43.629 -10.403   9.510  1.00  0.00    -0.347 N 
HETATM    2  C   UNL     1      44.533 -10.821   8.566  1.00  0.00     0.268 C 
HETATM    3  O   UNL     1      45.739 -10.886   8.782  1.00  0.00    -0.266 OA
HETATM    4  H   UNL     1      42.647 -10.376   9.283  1.00  0.00     0.163 HD
ENDROOT
BRANCH   1   5
HETATM    5  C   UNL     1      44.033 -10.046  10.858  1.00  0.00     0.114 C 
HETATM    6  C   UNL     1      43.662 -11.146  11.858  1.00  0.00     0.037 C 
BRANCH   5   7
HETATM    7  C   UNL     1      43.435  -8.701  11.226  1.00  0.00    -0.033 A 
HETATM    8  C   UNL     1      43.146  -7.768  10.224  1.00  0.00     0.028 A 
HETATM    9  C   UNL     1      42.579  -6.555  10.580  1.00  0.00     0.116 A 
HETATM   10  N   UNL     1      42.277  -6.212  11.850  1.00  0.00    -0.273 NA
HETATM   11  C   UNL     1      42.553  -7.123  12.804  1.00  0.00     0.116 A 
HETATM   12  C   UNL     1      43.119  -8.363  12.547  1.00  0.00     0.028 A 
ENDBRANCH   5   7
ENDBRANCH   1   5
BRANCH   2  13
HETATM   13  C   UNL     1      43.970 -11.185   7.285  1.00  0.00     0.103 A 
HETATM   14  N   UNL     1      42.641 -11.552   7.169  1.00  0.00    -0.341 N 
HETATM   15  H   UNL     1      41.991 -11.594   7.945  1.00  0.00     0.167 HD
HETATM   16  C   UNL     1      42.355 -11.841   5.872  1.00  0.00     0.126 A 
HETATM   17 CL   UNL     1      40.769 -12.315   5.501  1.00  0.00    -0.063 Cl
HETATM   18  C   UNL     1      43.480 -11.671   5.114  1.00  0.00     0.074 A 
HETATM   19 CL   UNL     1      43.673 -11.892   3.445  1.00  0.00    -0.081 Cl
HETATM   20  C   UNL     1      44.506 -11.257   6.004  1.00  0.00     0.062 A 
ENDBRANCH   2  13
TORSDOF 3
ENDMDL
