MODEL 1
REMARK VINA RESULT:      -8.0      0.000      0.000
REMARK  4 active torsions:
REMARK  status: ('A' for Active; 'I' for Inactive)
REMARK    1  A    between atoms: C_2  and  C_3 
REMARK    2  A    between atoms: C_8  and  C_9 
REMARK       I    between atoms: C_9  and  N_10 
REMARK    3  A    between atoms: C_20  and  C_21 
REMARK    4  A    between atoms: C_23  and  O_24 
ROOT
HETATM    1  C   UNL     1      43.742 -10.786   8.528  1.00  0.00     0.258 C 
HETATM    2  N   UNL     1      43.386 -11.311   7.281  1.00  0.00    -0.340 N 
HETATM    3  C   UNL     1      43.002 -10.564   6.092  1.00  0.00     0.123 C 
HETATM    4  C   UNL     1      43.017 -11.595   4.931  1.00  0.00     0.221 C 
HETATM    5  N   UNL     1      41.673 -11.541   4.189  1.00  0.00    -0.064 N 
HETATM    6  H   UNL     1      41.686 -12.212   3.409  1.00  0.00     0.280 HD
HETATM    7  C   UNL     1      40.444 -11.843   5.034  1.00  0.00     0.236 C 
HETATM    8  C   UNL     1      40.519 -11.007   6.304  1.00  0.00     0.034 C 
HETATM    9  C   UNL     1      41.597  -9.918   6.158  1.00  0.00     0.014 C 
HETATM   10  C   UNL     1      41.350  -9.175   4.827  1.00  0.00     0.034 C 
HETATM   11  C   UNL     1      41.494 -10.130   3.632  1.00  0.00     0.236 C 
HETATM   12  C   UNL     1      43.490 -12.953   5.523  1.00  0.00     0.070 C 
HETATM   13  C   UNL     1      44.008 -12.575   6.921  1.00  0.00     0.138 C 
HETATM   14  O   UNL     1      43.925 -11.515   9.497  1.00  0.00    -0.267 OA
ENDROOT
BRANCH   1  15
HETATM   15  C   UNL     1      44.084  -9.386   8.567  1.00  0.00     0.090 C 
HETATM   16  C   UNL     1      43.359  -8.232   8.955  1.00  0.00     0.080 C 
HETATM   17  N   UNL     1      44.084  -7.123   8.742  1.00  0.00    -0.132 NA
HETATM   18  O   UNL     1      45.340  -7.551   8.373  1.00  0.00    -0.217 OA
HETATM   19  C   UNL     1      45.350  -8.905   8.304  1.00  0.00     0.092 C 
HETATM   20  C   UNL     1      46.646  -9.544   7.998  1.00  0.00     0.080 C 
BRANCH  16  21
HETATM   21  C   UNL     1      41.975  -8.113   9.496  1.00  0.00     0.058 C 
HETATM   22  C   UNL     1      41.849  -8.584  10.938  1.00  0.00     0.011 C 
ENDBRANCH  16  21
ENDBRANCH   1  15
BRANCH  12  23
HETATM   23  C   UNL     1      42.563 -14.146   5.453  1.00  0.00    -0.048 A 
HETATM   24  C   UNL     1      42.485 -14.877   4.252  1.00  0.00     0.044 A 
HETATM   25  C   UNL     1      41.618 -15.961   4.146  1.00  0.00     0.066 A 
HETATM   26  C   UNL     1      40.824 -16.348   5.216  1.00  0.00     0.036 A 
HETATM   27  C   UNL     1      40.915 -15.659   6.421  1.00  0.00     0.003 A 
HETATM   28  C   UNL     1      41.778 -14.567   6.542  1.00  0.00     0.008 A 
BRANCH  25  29
HETATM   29  O   UNL     1      41.510 -16.668   2.988  1.00  0.00    -0.361 OA
HETATM   30  H   UNL     1      41.572 -17.619   3.181  1.00  0.00     0.217 HD
ENDBRANCH  25  29
ENDBRANCH  12  23
TORSDOF 4
ENDMDL
MODEL 2
REMARK VINA RESULT:      -7.5      5.222      8.467
REMARK  4 active torsions:
REMARK  status: ('A' for Active; 'I' for Inactive)
REMARK    1  A    between atoms: C_2  and  C_3 
REMARK    2  A    between atoms: C_8  and  C_9 
REMARK       I    between atoms: C_9  and  N_10 
REMARK    3  A    between atoms: C_20  and  C_21 
REMARK    4  A    between atoms: C_23  and  O_24 
ROOT
HETATM    1  C   UNL     1      40.151 -13.182  -1.540  1.00  0.00     0.258 C 
HETATM    2  N   UNL     1      40.112 -13.493  -0.176  1.00  0.00    -0.340 N 
HETATM    3  C   UNL     1      39.616 -12.651   0.902  1.00  0.00     0.123 C 
HETATM    4  C   UNL     1      39.514 -13.581   2.142  1.00  0.00     0.221 C 
HETATM    5  N   UNL     1      40.264 -12.938   3.319  1.00  0.00    -0.064 N 
HETATM    6  H   UNL     1      40.184 -13.544   4.147  1.00  0.00     0.280 HD
HETATM    7  C   UNL     1      41.744 -12.669   3.086  1.00  0.00     0.236 C 
HETATM    8  C   UNL     1      41.897 -11.955   1.751  1.00  0.00     0.034 C 
HETATM    9  C   UNL     1      40.527 -11.453   1.259  1.00  0.00     0.014 C 
HETATM   10  C   UNL     1      39.860 -10.673   2.414  1.00  0.00     0.034 C 
HETATM   11  C   UNL     1      39.608 -11.591   3.620  1.00  0.00     0.236 C 
HETATM   12  C   UNL     1      39.925 -15.009   1.685  1.00  0.00     0.070 C 
HETATM   13  C   UNL     1      39.955 -14.902   0.151  1.00  0.00     0.138 C 
HETATM   14  O   UNL     1      40.709 -13.920  -2.346  1.00  0.00    -0.267 OA
ENDROOT
BRANCH   1  15
HETATM   15  C   UNL     1      39.334 -12.077  -1.974  1.00  0.00     0.090 C 
HETATM   16  C   UNL     1      39.610 -10.701  -2.172  1.00  0.00     0.080 C 
HETATM   17  N   UNL     1      38.495 -10.040  -2.517  1.00  0.00    -0.132 NA
HETATM   18  O   UNL     1      37.524 -10.997  -2.708  1.00  0.00    -0.217 OA
HETATM   19  C   UNL     1      38.036 -12.219  -2.419  1.00  0.00     0.092 C 
HETATM   20  C   UNL     1      37.153 -13.380  -2.647  1.00  0.00     0.080 C 
BRANCH  16  21
HETATM   21  C   UNL     1      40.890  -9.953  -2.018  1.00  0.00     0.058 C 
HETATM   22  C   UNL     1      40.745  -8.669  -1.215  1.00  0.00     0.011 C 
ENDBRANCH  16  21
ENDBRANCH   1  15
BRANCH  12  23
HETATM   23  C   UNL     1      41.120 -15.671   2.333  1.00  0.00    -0.048 A 
HETATM   24  C   UNL     1      41.030 -16.065   3.682  1.00  0.00     0.044 A 
HETATM   25  C   UNL     1      42.125 -16.648   4.316  1.00  0.00     0.066 A 
HETATM   26  C   UNL     1      43.314 -16.862   3.636  1.00  0.00     0.036 A 
HETATM   27  C   UNL     1      43.408 -16.512   2.293  1.00  0.00     0.003 A 
HETATM   28  C   UNL     1      42.320 -15.923   1.644  1.00  0.00     0.008 A 
BRANCH  25  29
HETATM   29  O   UNL     1      42.068 -17.016   5.625  1.00  0.00    -0.361 OA
HETATM   30  H   UNL     1      42.005 -17.984   5.689  1.00  0.00     0.217 HD
ENDBRANCH  25  29
ENDBRANCH  12  23
TORSDOF 4
ENDMDL
MODEL 3
REMARK VINA RESULT:      -7.5      4.169      7.457
REMARK  4 active torsions:
REMARK  status: ('A' for Active; 'I' for Inactive)
REMARK    1  A    between atoms: C_2  and  C_3 
REMARK    2  A    between atoms: C_8  and  C_9 
REMARK       I    between atoms: C_9  and  N_10 
REMARK    3  A    between atoms: C_20  and  C_21 
REMARK    4  A    between atoms: C_23  and  O_24 
ROOT
HETATM    1  C   UNL     1      40.818 -15.923   3.567  1.00  0.00     0.258 C 
HETATM    2  N   UNL     1      41.215 -14.713   2.988  1.00  0.00    -0.340 N 
HETATM    3  C   UNL     1      42.357 -13.893   3.365  1.00  0.00     0.123 C 
HETATM    4  C   UNL     1      42.516 -12.852   2.223  1.00  0.00     0.221 C 
HETATM    5  N   UNL     1      42.561 -11.441   2.827  1.00  0.00    -0.064 N 
HETATM    6  H   UNL     1      42.683 -10.750   2.075  1.00  0.00     0.280 HD
HETATM    7  C   UNL     1      41.337 -11.031   3.633  1.00  0.00     0.236 C 
HETATM    8  C   UNL     1      41.014 -12.149   4.615  1.00  0.00     0.034 C 
HETATM    9  C   UNL     1      42.195 -13.133   4.703  1.00  0.00     0.014 C 
HETATM   10  C   UNL     1      43.483 -12.316   4.948  1.00  0.00     0.034 C 
HETATM   11  C   UNL     1      43.760 -11.367   3.772  1.00  0.00     0.236 C 
HETATM   12  C   UNL     1      41.435 -13.171   1.151  1.00  0.00     0.070 C 
HETATM   13  C   UNL     1      40.902 -14.550   1.577  1.00  0.00     0.138 C 
HETATM   14  O   UNL     1      39.764 -16.465   3.251  1.00  0.00    -0.267 OA
ENDROOT
BRANCH   1  15
HETATM   15  C   UNL     1      41.793 -16.598   4.386  1.00  0.00     0.090 C 
HETATM   16  C   UNL     1      42.961 -17.338   4.073  1.00  0.00     0.080 C 
HETATM   17  N   UNL     1      43.513 -17.846   5.185  1.00  0.00    -0.132 NA
HETATM   18  O   UNL     1      42.811 -17.308   6.241  1.00  0.00    -0.217 OA
HETATM   19  C   UNL     1      41.806 -16.533   5.764  1.00  0.00     0.092 C 
HETATM   20  C   UNL     1      40.995 -15.809   6.763  1.00  0.00     0.080 C 
BRANCH  16  21
HETATM   21  C   UNL     1      43.580 -17.626   2.748  1.00  0.00     0.058 C 
HETATM   22  C   UNL     1      43.202 -18.990   2.189  1.00  0.00     0.011 C 
ENDBRANCH  16  21
ENDBRANCH   1  15
BRANCH  12  23
HETATM   23  C   UNL     1      40.394 -12.124   0.825  1.00  0.00    -0.048 A 
HETATM   24  C   UNL     1      39.083 -12.294   1.310  1.00  0.00     0.044 A 
HETATM   25  C   UNL     1      38.095 -11.364   1.000  1.00  0.00     0.066 A 
HETATM   26  C   UNL     1      38.379 -10.253   0.221  1.00  0.00     0.036 A 
HETATM   27  C   UNL     1      39.677 -10.050  -0.238  1.00  0.00     0.003 A 
HETATM   28  C   UNL     1      40.679 -10.977   0.063  1.00  0.00     0.008 A 
BRANCH  25  29
HETATM   29  O   UNL     1      36.816 -11.519   1.440  1.00  0.00    -0.361 OA
HETATM   30  H   UNL     1      36.756 -11.243   2.370  1.00  0.00     0.217 HD
ENDBRANCH  25  29
ENDBRANCH  12  23
TORSDOF 4
ENDMDL
MODEL 4
REMARK VINA RESULT:      -7.3      2.557      4.406
REMARK  4 active torsions:
REMARK  status: ('A' for Active; 'I' for Inactive)
REMARK    1  A    between atoms: C_2  and  C_3 
REMARK    2  A    between atoms: C_8  and  C_9 
REMARK       I    between atoms: C_9  and  N_10 
REMARK    3  A    between atoms: C_20  and  C_21 
REMARK    4  A    between atoms: C_23  and  O_24 
ROOT
HETATM    1  C   UNL     1      42.175 -10.564   5.435  1.00  0.00     0.258 C 
HETATM    2  N   UNL     1      41.579 -11.807   5.196  1.00  0.00    -0.340 N 
HETATM    3  C   UNL     1      41.565 -12.959   6.085  1.00  0.00     0.123 C 
HETATM    4  C   UNL     1      40.524 -13.940   5.479  1.00  0.00     0.221 C 
HETATM    5  N   UNL     1      41.169 -15.324   5.313  1.00  0.00    -0.064 N 
HETATM    6  H   UNL     1      40.477 -15.980   4.926  1.00  0.00     0.280 HD
HETATM    7  C   UNL     1      42.399 -15.372   4.417  1.00  0.00     0.236 C 
HETATM    8  C   UNL     1      43.347 -14.260   4.845  1.00  0.00     0.034 C 
HETATM    9  C   UNL     1      42.919 -13.697   6.212  1.00  0.00     0.014 C 
HETATM   10  C   UNL     1      42.727 -14.884   7.181  1.00  0.00     0.034 C 
HETATM   11  C   UNL     1      41.604 -15.813   6.694  1.00  0.00     0.236 C 
HETATM   12  C   UNL     1      39.909 -13.247   4.229  1.00  0.00     0.070 C 
HETATM   13  C   UNL     1      40.400 -11.795   4.344  1.00  0.00     0.138 C 
HETATM   14  O   UNL     1      42.233  -9.706   4.560  1.00  0.00    -0.267 OA
ENDROOT
BRANCH   1  15
HETATM   15  C   UNL     1      42.523 -10.267   6.802  1.00  0.00     0.090 C 
HETATM   16  C   UNL     1      43.728 -10.401   7.535  1.00  0.00     0.080 C 
HETATM   17  N   UNL     1      43.542 -10.057   8.819  1.00  0.00    -0.132 NA
HETATM   18  O   UNL     1      42.268  -9.542   8.898  1.00  0.00    -0.217 OA
HETATM   19  C   UNL     1      41.671  -9.634   7.684  1.00  0.00     0.092 C 
HETATM   20  C   UNL     1      40.319  -9.052   7.563  1.00  0.00     0.080 C 
BRANCH  16  21
HETATM   21  C   UNL     1      45.068 -10.877   7.089  1.00  0.00     0.058 C 
HETATM   22  C   UNL     1      46.222 -10.177   7.792  1.00  0.00     0.011 C 
ENDBRANCH  16  21
ENDBRANCH   1  15
BRANCH  12  23
HETATM   23  C   UNL     1      40.068 -13.902   2.875  1.00  0.00    -0.048 A 
HETATM   24  C   UNL     1      40.652 -13.164   1.828  1.00  0.00     0.044 A 
HETATM   25  C   UNL     1      40.784 -13.728   0.561  1.00  0.00     0.066 A 
HETATM   26  C   UNL     1      40.355 -15.022   0.308  1.00  0.00     0.036 A 
HETATM   27  C   UNL     1      39.809 -15.778   1.340  1.00  0.00     0.003 A 
HETATM   28  C   UNL     1      39.668 -15.225   2.615  1.00  0.00     0.008 A 
BRANCH  25  29
HETATM   29  O   UNL     1      41.324 -13.025  -0.472  1.00  0.00    -0.361 OA
HETATM   30  H   UNL     1      41.071 -12.090  -0.396  1.00  0.00     0.217 HD
ENDBRANCH  25  29
ENDBRANCH  12  23
TORSDOF 4
ENDMDL
MODEL 5
REMARK VINA RESULT:      -7.2      2.445      7.201
REMARK  4 active torsions:
REMARK  status: ('A' for Active; 'I' for Inactive)
REMARK    1  A    between atoms: C_2  and  C_3 
REMARK    2  A    between atoms: C_8  and  C_9 
REMARK       I    between atoms: C_9  and  N_10 
REMARK    3  A    between atoms: C_20  and  C_21 
REMARK    4  A    between atoms: C_23  and  O_24 
ROOT
HETATM    1  C   UNL     1      42.666 -13.878   2.268  1.00  0.00     0.258 C 
HETATM    2  N   UNL     1      42.429 -13.315   3.527  1.00  0.00    -0.340 N 
HETATM    3  C   UNL     1      41.196 -12.697   3.994  1.00  0.00     0.123 C 
HETATM    4  C   UNL     1      41.370 -12.531   5.528  1.00  0.00     0.221 C 
HETATM    5  N   UNL     1      41.081 -11.073   5.915  1.00  0.00    -0.064 N 
HETATM    6  H   UNL     1      41.179 -10.963   6.933  1.00  0.00     0.280 HD
HETATM    7  C   UNL     1      41.969 -10.029   5.252  1.00  0.00     0.236 C 
HETATM    8  C   UNL     1      42.004 -10.310   3.757  1.00  0.00     0.034 C 
HETATM    9  C   UNL     1      40.895 -11.309   3.380  1.00  0.00     0.014 C 
HETATM   10  C   UNL     1      39.566 -10.800   3.980  1.00  0.00     0.034 C 
HETATM   11  C   UNL     1      39.642 -10.752   5.514  1.00  0.00     0.236 C 
HETATM   12  C   UNL     1      42.747 -13.146   5.908  1.00  0.00     0.070 C 
HETATM   13  C   UNL     1      43.168 -13.900   4.635  1.00  0.00     0.138 C 
HETATM   14  O   UNL     1      43.786 -14.258   1.941  1.00  0.00    -0.267 OA
ENDROOT
BRANCH   1  15
HETATM   15  C   UNL     1      41.507 -14.178   1.465  1.00  0.00     0.090 C 
HETATM   16  C   UNL     1      40.836 -13.460   0.445  1.00  0.00     0.080 C 
HETATM   17  N   UNL     1      39.743 -14.124   0.038  1.00  0.00    -0.132 NA
HETATM   18  O   UNL     1      39.784 -15.349   0.666  1.00  0.00    -0.217 OA
HETATM   19  C   UNL     1      40.858 -15.396   1.491  1.00  0.00     0.092 C 
HETATM   20  C   UNL     1      41.105 -16.673   2.189  1.00  0.00     0.080 C 
BRANCH  16  21
HETATM   21  C   UNL     1      41.157 -12.135  -0.158  1.00  0.00     0.058 C 
HETATM   22  C   UNL     1      39.950 -11.214  -0.269  1.00  0.00     0.011 C 
ENDBRANCH  16  21
ENDBRANCH   1  15
BRANCH  12  23
HETATM   23  C   UNL     1      43.797 -12.260   6.538  1.00  0.00    -0.048 A 
HETATM   24  C   UNL     1      43.670 -11.917   7.898  1.00  0.00     0.044 A 
HETATM   25  C   UNL     1      44.603 -11.076   8.500  1.00  0.00     0.066 A 
HETATM   26  C   UNL     1      45.676 -10.570   7.781  1.00  0.00     0.036 A 
HETATM   27  C   UNL     1      45.837 -10.927   6.446  1.00  0.00     0.003 A 
HETATM   28  C   UNL     1      44.907 -11.767   5.828  1.00  0.00     0.008 A 
BRANCH  25  29
HETATM   29  O   UNL     1      44.488 -10.714   9.807  1.00  0.00    -0.361 OA
HETATM   30  H   UNL     1      45.315 -10.916  10.274  1.00  0.00     0.217 HD
ENDBRANCH  25  29
ENDBRANCH  12  23
TORSDOF 4
ENDMDL
MODEL 6
REMARK VINA RESULT:      -7.2      3.596      8.072
REMARK  4 active torsions:
REMARK  status: ('A' for Active; 'I' for Inactive)
REMARK    1  A    between atoms: C_2  and  C_3 
REMARK    2  A    between atoms: C_8  and  C_9 
REMARK       I    between atoms: C_9  and  N_10 
REMARK    3  A    between atoms: C_20  and  C_21 
REMARK    4  A    between atoms: C_23  and  O_24 
ROOT
HETATM    1  C   UNL     1      43.222  -8.105   8.814  1.00  0.00     0.258 C 
HETATM    2  N   UNL     1      42.639  -8.553  10.004  1.00  0.00    -0.340 N 
HETATM    3  C   UNL     1      41.526  -9.480  10.142  1.00  0.00     0.123 C 
HETATM    4  C   UNL     1      41.491  -9.868  11.645  1.00  0.00     0.221 C 
HETATM    5  N   UNL     1      40.076  -9.638  12.195  1.00  0.00    -0.064 N 
HETATM    6  H   UNL     1      40.045  -9.909  13.187  1.00  0.00     0.280 HD
HETATM    7  C   UNL     1      39.556  -8.211  12.093  1.00  0.00     0.236 C 
HETATM    8  C   UNL     1      39.790  -7.716  10.672  1.00  0.00     0.034 C 
HETATM    9  C   UNL     1      40.146  -8.898   9.752  1.00  0.00     0.014 C 
HETATM   10  C   UNL     1      39.086 -10.003   9.959  1.00  0.00     0.034 C 
HETATM   11  C   UNL     1      39.110 -10.521  11.405  1.00  0.00     0.236 C 
HETATM   12  C   UNL     1      42.687  -9.152  12.336  1.00  0.00     0.070 C 
HETATM   13  C   UNL     1      43.524  -8.630  11.156  1.00  0.00     0.138 C 
HETATM   14  O   UNL     1      44.075  -7.223   8.814  1.00  0.00    -0.267 OA
ENDROOT
BRANCH   1  15
HETATM   15  C   UNL     1      42.928  -8.865   7.625  1.00  0.00     0.090 C 
HETATM   16  C   UNL     1      43.334 -10.149   7.184  1.00  0.00     0.080 C 
HETATM   17  N   UNL     1      42.854 -10.402   5.957  1.00  0.00    -0.132 NA
HETATM   18  O   UNL     1      42.002  -9.364   5.656  1.00  0.00    -0.217 OA
HETATM   19  C   UNL     1      42.018  -8.463   6.669  1.00  0.00     0.092 C 
HETATM   20  C   UNL     1      41.095  -7.316   6.552  1.00  0.00     0.080 C 
BRANCH  16  21
HETATM   21  C   UNL     1      44.195 -11.161   7.859  1.00  0.00     0.058 C 
HETATM   22  C   UNL     1      45.674 -10.798   7.850  1.00  0.00     0.011 C 
ENDBRANCH  16  21
ENDBRANCH   1  15
BRANCH  12  23
HETATM   23  C   UNL     1      42.408  -8.165  13.447  1.00  0.00    -0.048 A 
HETATM   24  C   UNL     1      41.988  -8.652  14.700  1.00  0.00     0.044 A 
HETATM   25  C   UNL     1      41.693  -7.767  15.734  1.00  0.00     0.066 A 
HETATM   26  C   UNL     1      41.813  -6.397  15.556  1.00  0.00     0.036 A 
HETATM   27  C   UNL     1      42.261  -5.900  14.336  1.00  0.00     0.003 A 
HETATM   28  C   UNL     1      42.558  -6.776  13.289  1.00  0.00     0.008 A 
BRANCH  25  29
HETATM   29  O   UNL     1      41.266  -8.214  16.946  1.00  0.00    -0.361 OA
HETATM   30  H   UNL     1      41.868  -8.905  17.268  1.00  0.00     0.217 HD
ENDBRANCH  25  29
ENDBRANCH  12  23
TORSDOF 4
ENDMDL
MODEL 7
REMARK VINA RESULT:      -7.1      3.078      5.425
REMARK  4 active torsions:
REMARK  status: ('A' for Active; 'I' for Inactive)
REMARK    1  A    between atoms: C_2  and  C_3 
REMARK    2  A    between atoms: C_8  and  C_9 
REMARK       I    between atoms: C_9  and  N_10 
REMARK    3  A    between atoms: C_20  and  C_21 
REMARK    4  A    between atoms: C_23  and  O_24 
ROOT
HETATM    1  C   UNL     1      43.054 -12.595   3.626  1.00  0.00     0.258 C 
HETATM    2  N   UNL     1      42.482 -13.869   3.708  1.00  0.00    -0.340 N 
HETATM    3  C   UNL     1      41.338 -14.267   4.515  1.00  0.00     0.123 C 
HETATM    4  C   UNL     1      40.938 -15.677   4.003  1.00  0.00     0.221 C 
HETATM    5  N   UNL     1      40.858 -16.644   5.194  1.00  0.00    -0.064 N 
HETATM    6  H   UNL     1      40.578 -17.576   4.861  1.00  0.00     0.280 HD
HETATM    7  C   UNL     1      42.142 -16.809   5.994  1.00  0.00     0.236 C 
HETATM    8  C   UNL     1      42.688 -15.425   6.316  1.00  0.00     0.034 C 
HETATM    9  C   UNL     1      41.616 -14.356   6.035  1.00  0.00     0.014 C 
HETATM   10  C   UNL     1      40.310 -14.790   6.735  1.00  0.00     0.034 C 
HETATM   11  C   UNL     1      39.797 -16.119   6.161  1.00  0.00     0.236 C 
HETATM   12  C   UNL     1      41.886 -16.026   2.821  1.00  0.00     0.070 C 
HETATM   13  C   UNL     1      42.585 -14.691   2.513  1.00  0.00     0.138 C 
HETATM   14  O   UNL     1      44.096 -12.403   3.009  1.00  0.00    -0.267 OA
ENDROOT
BRANCH   1  15
HETATM   15  C   UNL     1      42.259 -11.497   4.116  1.00  0.00     0.090 C 
HETATM   16  C   UNL     1      41.074 -10.884   3.639  1.00  0.00     0.080 C 
HETATM   17  N   UNL     1      40.743  -9.832   4.404  1.00  0.00    -0.132 NA
HETATM   18  O   UNL     1      41.609  -9.849   5.475  1.00  0.00    -0.217 OA
HETATM   19  C   UNL     1      42.492 -10.867   5.321  1.00  0.00     0.092 C 
HETATM   20  C   UNL     1      43.450 -11.086   6.423  1.00  0.00     0.080 C 
BRANCH  16  21
HETATM   21  C   UNL     1      40.234 -11.224   2.455  1.00  0.00     0.058 C 
HETATM   22  C   UNL     1      39.090 -12.173   2.779  1.00  0.00     0.011 C 
ENDBRANCH  16  21
ENDBRANCH   1  15
BRANCH  12  23
HETATM   23  C   UNL     1      42.782 -17.240   2.932  1.00  0.00    -0.048 A 
HETATM   24  C   UNL     1      42.460 -18.393   2.190  1.00  0.00     0.044 A 
HETATM   25  C   UNL     1      43.247 -19.537   2.295  1.00  0.00     0.066 A 
HETATM   26  C   UNL     1      44.362 -19.563   3.120  1.00  0.00     0.036 A 
HETATM   27  C   UNL     1      44.715 -18.422   3.833  1.00  0.00     0.003 A 
HETATM   28  C   UNL     1      43.933 -17.267   3.740  1.00  0.00     0.008 A 
BRANCH  25  29
HETATM   29  O   UNL     1      42.943 -20.669   1.604  1.00  0.00    -0.361 OA
HETATM   30  H   UNL     1      43.749 -21.196   1.472  1.00  0.00     0.217 HD
ENDBRANCH  25  29
ENDBRANCH  12  23
TORSDOF 4
ENDMDL
MODEL 8
REMARK VINA RESULT:      -7.1      3.403      5.986
REMARK  4 active torsions:
REMARK  status: ('A' for Active; 'I' for Inactive)
REMARK    1  A    between atoms: C_2  and  C_3 
REMARK    2  A    between atoms: C_8  and  C_9 
REMARK       I    between atoms: C_9  and  N_10 
REMARK    3  A    between atoms: C_20  and  C_21 
REMARK    4  A    between atoms: C_23  and  O_24 
ROOT
HETATM    1  C   UNL     1      42.688 -14.530   4.156  1.00  0.00     0.258 C 
HETATM    2  N   UNL     1      42.189 -13.284   3.759  1.00  0.00    -0.340 N 
HETATM    3  C   UNL     1      41.345 -12.389   4.537  1.00  0.00     0.123 C 
HETATM    4  C   UNL     1      41.347 -11.041   3.766  1.00  0.00     0.221 C 
HETATM    5  N   UNL     1      39.897 -10.593   3.526  1.00  0.00    -0.064 N 
HETATM    6  H   UNL     1      39.894  -9.692   3.029  1.00  0.00     0.280 HD
HETATM    7  C   UNL     1      39.034 -11.560   2.728  1.00  0.00     0.236 C 
HETATM    8  C   UNL     1      39.194 -12.951   3.326  1.00  0.00     0.034 C 
HETATM    9  C   UNL     1      39.880 -12.859   4.702  1.00  0.00     0.014 C 
HETATM   10  C   UNL     1      39.130 -11.802   5.542  1.00  0.00     0.034 C 
HETATM   11  C   UNL     1      39.224 -10.415   4.887  1.00  0.00     0.236 C 
HETATM   12  C   UNL     1      42.289 -11.210   2.540  1.00  0.00     0.070 C 
HETATM   13  C   UNL     1      43.014 -12.537   2.823  1.00  0.00     0.138 C 
HETATM   14  O   UNL     1      43.286 -15.256   3.369  1.00  0.00    -0.267 OA
ENDROOT
BRANCH   1  15
HETATM   15  C   UNL     1      42.649 -14.822   5.567  1.00  0.00     0.090 C 
HETATM   16  C   UNL     1      43.368 -14.303   6.672  1.00  0.00     0.080 C 
HETATM   17  N   UNL     1      43.034 -14.949   7.800  1.00  0.00    -0.132 NA
HETATM   18  O   UNL     1      41.982 -15.775   7.471  1.00  0.00    -0.217 OA
HETATM   19  C   UNL     1      41.728 -15.671   6.144  1.00  0.00     0.092 C 
HETATM   20  C   UNL     1      40.572 -16.431   5.627  1.00  0.00     0.080 C 
BRANCH  16  21
HETATM   21  C   UNL     1      44.401 -13.229   6.720  1.00  0.00     0.058 C 
HETATM   22  C   UNL     1      43.866 -11.900   7.234  1.00  0.00     0.011 C 
ENDBRANCH  16  21
ENDBRANCH   1  15
BRANCH  12  23
HETATM   23  C   UNL     1      41.719 -11.043   1.149  1.00  0.00    -0.048 A 
HETATM   24  C   UNL     1      41.423 -12.194   0.393  1.00  0.00     0.044 A 
HETATM   25  C   UNL     1      40.927 -12.074  -0.903  1.00  0.00     0.066 A 
HETATM   26  C   UNL     1      40.707 -10.828  -1.470  1.00  0.00     0.036 A 
HETATM   27  C   UNL     1      40.960  -9.680  -0.725  1.00  0.00     0.003 A 
HETATM   28  C   UNL     1      41.461  -9.785   0.575  1.00  0.00     0.008 A 
BRANCH  25  29
HETATM   29  O   UNL     1      40.654 -13.172  -1.659  1.00  0.00    -0.361 OA
HETATM   30  H   UNL     1      40.632 -13.960  -1.091  1.00  0.00     0.217 HD
ENDBRANCH  25  29
ENDBRANCH  12  23
TORSDOF 4
ENDMDL
MODEL 9
REMARK VINA RESULT:      -7.0     19.163     20.858
REMARK  4 active torsions:
REMARK  status: ('A' for Active; 'I' for Inactive)
REMARK    1  A    between atoms: C_2  and  C_3 
REMARK    2  A    between atoms: C_8  and  C_9 
REMARK       I    between atoms: C_9  and  N_10 
REMARK    3  A    between atoms: C_20  and  C_21 
REMARK    4  A    between atoms: C_23  and  O_24 
ROOT
HETATM    1  C   UNL     1      45.875 -29.722   2.497  1.00  0.00     0.258 C 
HETATM    2  N   UNL     1      45.979 -30.232   1.198  1.00  0.00    -0.340 N 
HETATM    3  C   UNL     1      46.909 -31.247   0.726  1.00  0.00     0.123 C 
HETATM    4  C   UNL     1      46.395 -31.658  -0.681  1.00  0.00     0.221 C 
HETATM    5  N   UNL     1      47.547 -31.549  -1.692  1.00  0.00    -0.064 N 
HETATM    6  H   UNL     1      47.215 -31.836  -2.622  1.00  0.00     0.280 HD
HETATM    7  C   UNL     1      48.168 -30.166  -1.833  1.00  0.00     0.236 C 
HETATM    8  C   UNL     1      48.473 -29.634  -0.440  1.00  0.00     0.034 C 
HETATM    9  C   UNL     1      48.375 -30.771   0.594  1.00  0.00     0.014 C 
HETATM   10  C   UNL     1      49.219 -31.959   0.082  1.00  0.00     0.034 C 
HETATM   11  C   UNL     1      48.661 -32.494  -1.245  1.00  0.00     0.236 C 
HETATM   12  C   UNL     1      45.088 -30.860  -0.949  1.00  0.00     0.070 C 
HETATM   13  C   UNL     1      44.748 -30.255   0.424  1.00  0.00     0.138 C 
HETATM   14  O   UNL     1      45.138 -28.776   2.753  1.00  0.00    -0.267 OA
ENDROOT
BRANCH   1  15
HETATM   15  C   UNL     1      46.507 -30.485   3.544  1.00  0.00     0.090 C 
HETATM   16  C   UNL     1      47.766 -30.375   4.184  1.00  0.00     0.080 C 
HETATM   17  N   UNL     1      47.941 -31.376   5.061  1.00  0.00    -0.132 NA
HETATM   18  O   UNL     1      46.741 -32.048   5.121  1.00  0.00    -0.217 OA
HETATM   19  C   UNL     1      45.872 -31.493   4.241  1.00  0.00     0.092 C 
HETATM   20  C   UNL     1      44.500 -32.039   4.228  1.00  0.00     0.080 C 
BRANCH  16  21
HETATM   21  C   UNL     1      48.852 -29.373   3.987  1.00  0.00     0.058 C 
HETATM   22  C   UNL     1      50.211 -30.002   3.711  1.00  0.00     0.011 C 
ENDBRANCH  16  21
ENDBRANCH   1  15
BRANCH  12  23
HETATM   23  C   UNL     1      45.035 -29.914  -2.128  1.00  0.00    -0.048 A 
HETATM   24  C   UNL     1      44.752 -30.435  -3.405  1.00  0.00     0.044 A 
HETATM   25  C   UNL     1      44.727 -29.595  -4.515  1.00  0.00     0.066 A 
HETATM   26  C   UNL     1      44.969 -28.236  -4.388  1.00  0.00     0.036 A 
HETATM   27  C   UNL     1      45.214 -27.698  -3.128  1.00  0.00     0.003 A 
HETATM   28  C   UNL     1      45.246 -28.529  -2.005  1.00  0.00     0.008 A 
BRANCH  25  29
HETATM   29  O   UNL     1      44.478 -30.080  -5.762  1.00  0.00    -0.361 OA
HETATM   30  H   UNL     1      45.233 -30.615  -6.060  1.00  0.00     0.217 HD
ENDBRANCH  25  29
ENDBRANCH  12  23
TORSDOF 4
ENDMDL
MODEL 10
REMARK VINA RESULT:      -7.0      5.095      8.198
REMARK  4 active torsions:
REMARK  status: ('A' for Active; 'I' for Inactive)
REMARK    1  A    between atoms: C_2  and  C_3 
REMARK    2  A    between atoms: C_8  and  C_9 
REMARK       I    between atoms: C_9  and  N_10 
REMARK    3  A    between atoms: C_20  and  C_21 
REMARK    4  A    between atoms: C_23  and  O_24 
ROOT
HETATM    1  C   UNL     1      40.504 -12.383  -1.454  1.00  0.00     0.258 C 
HETATM    2  N   UNL     1      40.363 -12.862  -0.146  1.00  0.00    -0.340 N 
HETATM    3  C   UNL     1      39.808 -12.149   0.995  1.00  0.00     0.123 C 
HETATM    4  C   UNL     1      39.601 -13.224   2.096  1.00  0.00     0.221 C 
HETATM    5  N   UNL     1      40.278 -12.757   3.393  1.00  0.00    -0.064 N 
HETATM    6  H   UNL     1      40.129 -13.459   4.130  1.00  0.00     0.280 HD
HETATM    7  C   UNL     1      41.776 -12.503   3.297  1.00  0.00     0.236 C 
HETATM    8  C   UNL     1      42.037 -11.630   2.077  1.00  0.00     0.034 C 
HETATM    9  C   UNL     1      40.715 -11.031   1.563  1.00  0.00     0.014 C 
HETATM   10  C   UNL     1      39.984 -10.385   2.760  1.00  0.00     0.034 C 
HETATM   11  C   UNL     1      39.630 -11.440   3.819  1.00  0.00     0.236 C 
HETATM   12  C   UNL     1      40.015 -14.595   1.489  1.00  0.00     0.070 C 
HETATM   13  C   UNL     1      40.155 -14.296  -0.013  1.00  0.00     0.138 C 
HETATM   14  O   UNL     1      41.102 -13.029  -2.308  1.00  0.00    -0.267 OA
ENDROOT
BRANCH   1  15
HETATM   15  C   UNL     1      39.741 -11.209  -1.797  1.00  0.00     0.090 C 
HETATM   16  C   UNL     1      38.353 -10.986  -1.973  1.00  0.00     0.080 C 
HETATM   17  N   UNL     1      38.122  -9.725  -2.369  1.00  0.00    -0.132 NA
HETATM   18  O   UNL     1      39.333  -9.072  -2.294  1.00  0.00    -0.217 OA
HETATM   19  C   UNL     1      40.294  -9.951  -1.917  1.00  0.00     0.092 C 
HETATM   20  C   UNL     1      41.649  -9.403  -1.707  1.00  0.00     0.080 C 
BRANCH  16  21
HETATM   21  C   UNL     1      37.208 -11.928  -1.816  1.00  0.00     0.058 C 
HETATM   22  C   UNL     1      37.319 -13.165  -2.696  1.00  0.00     0.011 C 
ENDBRANCH  16  21
ENDBRANCH   1  15
BRANCH  12  23
HETATM   23  C   UNL     1      41.148 -15.367   2.127  1.00  0.00    -0.048 A 
HETATM   24  C   UNL     1      40.986 -15.853   3.439  1.00  0.00     0.044 A 
HETATM   25  C   UNL     1      42.023 -16.540   4.064  1.00  0.00     0.066 A 
HETATM   26  C   UNL     1      43.225 -16.768   3.412  1.00  0.00     0.036 A 
HETATM   27  C   UNL     1      43.390 -16.326   2.102  1.00  0.00     0.003 A 
HETATM   28  C   UNL     1      42.359 -15.632   1.463  1.00  0.00     0.008 A 
BRANCH  25  29
HETATM   29  O   UNL     1      41.897 -16.999   5.339  1.00  0.00    -0.361 OA
HETATM   30  H   UNL     1      42.258 -17.900   5.398  1.00  0.00     0.217 HD
ENDBRANCH  25  29
ENDBRANCH  12  23
TORSDOF 4
ENDMDL
