MODEL 1
REMARK VINA RESULT:      -8.7      0.000      0.000
REMARK  12 active torsions:
REMARK  status: ('A' for Active; 'I' for Inactive)
REMARK    1  A    between atoms: C_2  and  C_3 
REMARK    2  A    between atoms: C_3  and  N_4 
REMARK    3  A    between atoms: C_3  and  C_25 
REMARK    4  A    between atoms: N_4  and  C_6 
REMARK    5  A    between atoms: N_4  and  C_21 
REMARK    6  A    between atoms: C_6  and  C_7 
REMARK    7  A    between atoms: C_8  and  O_9 
REMARK    8  A    between atoms: C_21  and  C_22 
REMARK    9  A    between atoms: C_22  and  C_23 
REMARK   10  A    between atoms: C_23  and  O_24 
REMARK   11  A    between atoms: N_26  and  C_27 
REMARK   12  A    between atoms: C_27  and  C_28 
ROOT
HETATM    1  N   UNL     1      42.029 -13.015   2.950  1.00  0.00    -0.055 N 
HETATM    2  H   UNL     1      41.289 -12.836   3.635  1.00  0.00     0.281 HD
ENDROOT
BRANCH   1   3
HETATM    3  C   UNL     1      42.413 -14.495   3.162  1.00  0.00     0.263 C 
BRANCH   3   4
HETATM    4  C   UNL     1      42.184 -15.403   1.911  1.00  0.00     0.016 C 
HETATM    5  C   UNL     1      41.137 -16.499   2.147  1.00  0.00     0.012 C 
HETATM    6  C   UNL     1      43.424 -16.017   1.253  1.00  0.00     0.012 C 
ENDBRANCH   3   4
BRANCH   3   7
HETATM    7  C   UNL     1      41.952 -15.146   4.427  1.00  0.00     0.168 A 
HETATM    8  N   UNL     1      42.627 -16.118   5.131  1.00  0.00    -0.257 N 
HETATM    9  N   UNL     1      41.885 -16.512   6.178  1.00  0.00    -0.003 NA
HETATM   10  N   UNL     1      40.779 -15.791   6.120  1.00  0.00     0.018 NA
HETATM   11  N   UNL     1      40.803 -14.956   5.042  1.00  0.00    -0.145 NA
BRANCH   8  12
HETATM   12  C   UNL     1      43.927 -16.724   4.912  1.00  0.00     0.186 C 
BRANCH  12  13
HETATM   13  C   UNL     1      43.837 -18.194   4.569  1.00  0.00    -0.039 A 
HETATM   14  C   UNL     1      43.798 -18.647   3.238  1.00  0.00     0.009 A 
HETATM   15  C   UNL     1      43.799 -20.012   2.949  1.00  0.00     0.001 A 
HETATM   16  C   UNL     1      43.858 -20.945   3.979  1.00  0.00     0.000 A 
HETATM   17  C   UNL     1      43.919 -20.514   5.303  1.00  0.00     0.001 A 
HETATM   18  C   UNL     1      43.915 -19.148   5.597  1.00  0.00     0.009 A 
ENDBRANCH  12  13
ENDBRANCH   8  12
ENDBRANCH   3   7
ENDBRANCH   1   3
BRANCH   1  19
HETATM   19  C   UNL     1      43.041 -11.919   3.318  1.00  0.00     0.278 C 
BRANCH  19  20
HETATM   20  C   UNL     1      42.953 -11.195   4.624  1.00  0.00     0.021 A 
HETATM   21  C   UNL     1      42.224 -10.020   4.731  1.00  0.00     0.170 A 
HETATM   22  N   UNL     1      42.069  -9.271   5.832  1.00  0.00    -0.224 NA
HETATM   23  C   UNL     1      42.671  -9.690   6.954  1.00  0.00     0.072 A 
HETATM   24  C   UNL     1      43.490 -10.853   6.974  1.00  0.00    -0.004 A 
HETATM   25  C   UNL     1      42.500  -8.967   8.129  1.00  0.00     0.072 A 
HETATM   26  C   UNL     1      43.633 -11.581   5.782  1.00  0.00     0.027 A 
HETATM   27  C   UNL     1      44.129 -11.263   8.157  1.00  0.00     0.053 A 
HETATM   28  C   UNL     1      43.921 -10.515   9.293  1.00  0.00     0.106 A 
HETATM   29  C   UNL     1      43.126  -9.397   9.279  1.00  0.00     0.107 A 
HETATM   30  O   UNL     1      44.443 -10.770  10.520  1.00  0.00    -0.323 OA
HETATM   31  O   UNL     1      43.046  -8.805  10.500  1.00  0.00    -0.323 OA
HETATM   32  C   UNL     1      43.873  -9.687  11.289  1.00  0.00     0.352 A 
BRANCH  21  33
HETATM   33  O   UNL     1      41.576  -9.502   3.658  1.00  0.00    -0.344 OA
HETATM   34  H   UNL     1      40.664  -9.480   4.016  1.00  0.00     0.219 HD
ENDBRANCH  21  33
ENDBRANCH  19  20
ENDBRANCH   1  19
BRANCH   1  35
HETATM   35  C   UNL     1      41.349 -12.746   1.613  1.00  0.00     0.238 C 
BRANCH  35  36
HETATM   36  C   UNL     1      40.016 -12.021   1.808  1.00  0.00     0.054 C 
BRANCH  36  37
HETATM   37  C   UNL     1      39.323 -12.498   3.077  1.00  0.00     0.165 C 
BRANCH  37  38
HETATM   38  O   UNL     1      38.898 -13.837   2.872  1.00  0.00    -0.401 OA
HETATM   39  H   UNL     1      38.981 -14.302   3.727  1.00  0.00     0.209 HD
ENDBRANCH  37  38
ENDBRANCH  36  37
ENDBRANCH  35  36
ENDBRANCH   1  35
TORSDOF 12
ENDMDL
MODEL 2
REMARK VINA RESULT:      -8.6      1.720      2.524
REMARK  12 active torsions:
REMARK  status: ('A' for Active; 'I' for Inactive)
REMARK    1  A    between atoms: C_2  and  C_3 
REMARK    2  A    between atoms: C_3  and  N_4 
REMARK    3  A    between atoms: C_3  and  C_25 
REMARK    4  A    between atoms: N_4  and  C_6 
REMARK    5  A    between atoms: N_4  and  C_21 
REMARK    6  A    between atoms: C_6  and  C_7 
REMARK    7  A    between atoms: C_8  and  O_9 
REMARK    8  A    between atoms: C_21  and  C_22 
REMARK    9  A    between atoms: C_22  and  C_23 
REMARK   10  A    between atoms: C_23  and  O_24 
REMARK   11  A    between atoms: N_26  and  C_27 
REMARK   12  A    between atoms: C_27  and  C_28 
ROOT
HETATM    1  N   UNL     1      41.934 -12.427   4.737  1.00  0.00    -0.055 N 
HETATM    2  H   UNL     1      41.493 -12.546   5.653  1.00  0.00     0.281 HD
ENDROOT
BRANCH   1   3
HETATM    3  C   UNL     1      42.349 -13.851   4.311  1.00  0.00     0.263 C 
BRANCH   3   4
HETATM    4  C   UNL     1      42.089 -14.171   2.803  1.00  0.00     0.016 C 
HETATM    5  C   UNL     1      41.008 -15.239   2.593  1.00  0.00     0.012 C 
HETATM    6  C   UNL     1      43.308 -14.502   1.936  1.00  0.00     0.012 C 
ENDBRANCH   3   4
BRANCH   3   7
HETATM    7  C   UNL     1      41.946 -14.978   5.207  1.00  0.00     0.168 A 
HETATM    8  N   UNL     1      42.655 -16.138   5.420  1.00  0.00    -0.257 N 
HETATM    9  N   UNL     1      41.960 -16.947   6.235  1.00  0.00    -0.003 NA
HETATM   10  N   UNL     1      40.848 -16.292   6.521  1.00  0.00     0.018 NA
HETATM   11  N   UNL     1      40.822 -15.085   5.886  1.00  0.00    -0.145 NA
BRANCH   8  12
HETATM   12  C   UNL     1      43.948 -16.569   4.923  1.00  0.00     0.186 C 
BRANCH  12  13
HETATM   13  C   UNL     1      43.885 -17.897   4.202  1.00  0.00    -0.039 A 
HETATM   14  C   UNL     1      44.214 -19.106   4.839  1.00  0.00     0.009 A 
HETATM   15  C   UNL     1      44.067 -20.325   4.176  1.00  0.00     0.001 A 
HETATM   16  C   UNL     1      43.573 -20.358   2.876  1.00  0.00     0.000 A 
HETATM   17  C   UNL     1      43.221 -19.172   2.236  1.00  0.00     0.001 A 
HETATM   18  C   UNL     1      43.370 -17.949   2.896  1.00  0.00     0.009 A 
ENDBRANCH  12  13
ENDBRANCH   8  12
ENDBRANCH   3   7
ENDBRANCH   1   3
BRANCH   1  19
HETATM   19  C   UNL     1      43.024 -11.397   5.069  1.00  0.00     0.278 C 
BRANCH  19  20
HETATM   20  C   UNL     1      43.270 -10.959   6.478  1.00  0.00     0.021 A 
HETATM   21  C   UNL     1      44.255 -11.568   7.243  1.00  0.00     0.170 A 
HETATM   22  N   UNL     1      44.573 -11.280   8.513  1.00  0.00    -0.224 NA
HETATM   23  C   UNL     1      43.883 -10.303   9.118  1.00  0.00     0.072 A 
HETATM   24  C   UNL     1      42.813  -9.629   8.465  1.00  0.00    -0.004 A 
HETATM   25  C   UNL     1      44.210  -9.943  10.419  1.00  0.00     0.072 A 
HETATM   26  C   UNL     1      42.511  -9.993   7.143  1.00  0.00     0.027 A 
HETATM   27  C   UNL     1      42.088  -8.622   9.125  1.00  0.00     0.053 A 
HETATM   28  C   UNL     1      42.458  -8.300  10.411  1.00  0.00     0.106 A 
HETATM   29  C   UNL     1      43.493  -8.943  11.040  1.00  0.00     0.107 A 
HETATM   30  O   UNL     1      41.882  -7.349  11.189  1.00  0.00    -0.323 OA
HETATM   31  O   UNL     1      43.701  -8.476  12.299  1.00  0.00    -0.323 OA
HETATM   32  C   UNL     1      42.686  -7.454  12.386  1.00  0.00     0.352 A 
BRANCH  21  33
HETATM   33  O   UNL     1      45.013 -12.569   6.734  1.00  0.00    -0.344 OA
HETATM   34  H   UNL     1      44.865 -12.414   5.778  1.00  0.00     0.219 HD
ENDBRANCH  21  33
ENDBRANCH  19  20
ENDBRANCH   1  19
BRANCH   1  35
HETATM   35  C   UNL     1      40.821 -11.833   3.881  1.00  0.00     0.238 C 
BRANCH  35  36
HETATM   36  C   UNL     1      39.446 -12.129   4.481  1.00  0.00     0.054 C 
BRANCH  36  37
HETATM   37  C   UNL     1      39.333 -11.549   5.885  1.00  0.00     0.165 C 
BRANCH  37  38
HETATM   38  O   UNL     1      39.765 -12.536   6.808  1.00  0.00    -0.401 OA
HETATM   39  H   UNL     1      39.386 -12.306   7.679  1.00  0.00     0.209 HD
ENDBRANCH  37  38
ENDBRANCH  36  37
ENDBRANCH  35  36
ENDBRANCH   1  35
TORSDOF 12
ENDMDL
MODEL 3
REMARK VINA RESULT:      -8.4      2.056      3.013
REMARK  12 active torsions:
REMARK  status: ('A' for Active; 'I' for Inactive)
REMARK    1  A    between atoms: C_2  and  C_3 
REMARK    2  A    between atoms: C_3  and  N_4 
REMARK    3  A    between atoms: C_3  and  C_25 
REMARK    4  A    between atoms: N_4  and  C_6 
REMARK    5  A    between atoms: N_4  and  C_21 
REMARK    6  A    between atoms: C_6  and  C_7 
REMARK    7  A    between atoms: C_8  and  O_9 
REMARK    8  A    between atoms: C_21  and  C_22 
REMARK    9  A    between atoms: C_22  and  C_23 
REMARK   10  A    between atoms: C_23  and  O_24 
REMARK   11  A    between atoms: N_26  and  C_27 
REMARK   12  A    between atoms: C_27  and  C_28 
ROOT
HETATM    1  N   UNL     1      41.699 -11.683   5.340  1.00  0.00    -0.055 N 
HETATM    2  H   UNL     1      41.254 -11.846   6.247  1.00  0.00     0.281 HD
ENDROOT
BRANCH   1   3
HETATM    3  C   UNL     1      41.967 -13.094   4.772  1.00  0.00     0.263 C 
BRANCH   3   4
HETATM    4  C   UNL     1      41.660 -13.241   3.247  1.00  0.00     0.016 C 
HETATM    5  C   UNL     1      40.515 -14.220   2.957  1.00  0.00     0.012 C 
HETATM    6  C   UNL     1      42.840 -13.548   2.320  1.00  0.00     0.012 C 
ENDBRANCH   3   4
BRANCH   3   7
HETATM    7  C   UNL     1      41.466 -14.257   5.567  1.00  0.00     0.168 A 
HETATM    8  N   UNL     1      42.138 -15.437   5.789  1.00  0.00    -0.257 N 
HETATM    9  N   UNL     1      41.357 -16.274   6.490  1.00  0.00    -0.003 NA
HETATM   10  N   UNL     1      40.231 -15.617   6.699  1.00  0.00     0.018 NA
HETATM   11  N   UNL     1      40.280 -14.379   6.127  1.00  0.00    -0.145 NA
BRANCH   8  12
HETATM   12  C   UNL     1      43.469 -15.863   5.399  1.00  0.00     0.186 C 
BRANCH  12  13
HETATM   13  C   UNL     1      43.453 -17.065   4.480  1.00  0.00    -0.039 A 
HETATM   14  C   UNL     1      42.887 -17.011   3.194  1.00  0.00     0.009 A 
HETATM   15  C   UNL     1      42.960 -18.109   2.336  1.00  0.00     0.001 A 
HETATM   16  C   UNL     1      43.613 -19.270   2.740  1.00  0.00     0.000 A 
HETATM   17  C   UNL     1      44.197 -19.333   4.003  1.00  0.00     0.001 A 
HETATM   18  C   UNL     1      44.124 -18.237   4.865  1.00  0.00     0.009 A 
ENDBRANCH  12  13
ENDBRANCH   8  12
ENDBRANCH   3   7
ENDBRANCH   1   3
BRANCH   1  19
HETATM   19  C   UNL     1      42.889 -10.803   5.751  1.00  0.00     0.278 C 
BRANCH  19  20
HETATM   20  C   UNL     1      43.107 -10.418   7.180  1.00  0.00     0.021 A 
HETATM   21  C   UNL     1      43.988 -11.135   7.977  1.00  0.00     0.170 A 
HETATM   22  N   UNL     1      44.270 -10.904   9.266  1.00  0.00    -0.224 NA
HETATM   23  C   UNL     1      43.650  -9.874   9.860  1.00  0.00     0.072 A 
HETATM   24  C   UNL     1      42.686  -9.085   9.173  1.00  0.00    -0.004 A 
HETATM   25  C   UNL     1      43.946  -9.572  11.184  1.00  0.00     0.072 A 
HETATM   26  C   UNL     1      42.414  -9.393   7.830  1.00  0.00     0.027 A 
HETATM   27  C   UNL     1      42.031  -8.023   9.821  1.00  0.00     0.053 A 
HETATM   28  C   UNL     1      42.367  -7.763  11.130  1.00  0.00     0.106 A 
HETATM   29  C   UNL     1      43.301  -8.517  11.792  1.00  0.00     0.107 A 
HETATM   30  O   UNL     1      41.849  -6.774  11.902  1.00  0.00    -0.323 OA
HETATM   31  O   UNL     1      43.492  -8.096  13.071  1.00  0.00    -0.323 OA
HETATM   32  C   UNL     1      42.579  -6.980  13.133  1.00  0.00     0.352 A 
BRANCH  21  33
HETATM   33  O   UNL     1      44.668 -12.198   7.481  1.00  0.00    -0.344 OA
HETATM   34  H   UNL     1      44.115 -12.390   6.695  1.00  0.00     0.219 HD
ENDBRANCH  21  33
ENDBRANCH  19  20
ENDBRANCH   1  19
BRANCH   1  35
HETATM   35  C   UNL     1      40.646 -10.902   4.562  1.00  0.00     0.238 C 
BRANCH  35  36
HETATM   36  C   UNL     1      39.244 -11.167   5.113  1.00  0.00     0.054 C 
BRANCH  36  37
HETATM   37  C   UNL     1      39.141 -10.718   6.565  1.00  0.00     0.165 C 
BRANCH  37  38
HETATM   38  O   UNL     1      39.474 -11.821   7.394  1.00  0.00    -0.401 OA
HETATM   39  H   UNL     1      38.684 -12.033   7.927  1.00  0.00     0.209 HD
ENDBRANCH  37  38
ENDBRANCH  36  37
ENDBRANCH  35  36
ENDBRANCH   1  35
TORSDOF 12
ENDMDL
MODEL 4
REMARK VINA RESULT:      -8.2      2.786      7.688
REMARK  12 active torsions:
REMARK  status: ('A' for Active; 'I' for Inactive)
REMARK    1  A    between atoms: C_2  and  C_3 
REMARK    2  A    between atoms: C_3  and  N_4 
REMARK    3  A    between atoms: C_3  and  C_25 
REMARK    4  A    between atoms: N_4  and  C_6 
REMARK    5  A    between atoms: N_4  and  C_21 
REMARK    6  A    between atoms: C_6  and  C_7 
REMARK    7  A    between atoms: C_8  and  O_9 
REMARK    8  A    between atoms: C_21  and  C_22 
REMARK    9  A    between atoms: C_22  and  C_23 
REMARK   10  A    between atoms: C_23  and  O_24 
REMARK   11  A    between atoms: N_26  and  C_27 
REMARK   12  A    between atoms: C_27  and  C_28 
ROOT
HETATM    1  N   UNL     1      42.957 -12.843   6.312  1.00  0.00    -0.055 N 
HETATM    2  H   UNL     1      42.556 -12.133   6.930  1.00  0.00     0.281 HD
ENDROOT
BRANCH   1   3
HETATM    3  C   UNL     1      42.230 -12.649   4.964  1.00  0.00     0.263 C 
BRANCH   3   4
HETATM    4  C   UNL     1      43.186 -12.452   3.743  1.00  0.00     0.016 C 
HETATM    5  C   UNL     1      42.959 -11.123   3.011  1.00  0.00     0.012 C 
HETATM    6  C   UNL     1      43.262 -13.590   2.720  1.00  0.00     0.012 C 
ENDBRANCH   3   4
BRANCH   3   7
HETATM    7  C   UNL     1      41.076 -11.700   4.940  1.00  0.00     0.168 A 
HETATM    8  N   UNL     1      39.800 -11.986   4.511  1.00  0.00    -0.257 N 
HETATM    9  N   UNL     1      39.045 -10.877   4.573  1.00  0.00    -0.003 NA
HETATM   10  N   UNL     1      39.842  -9.932   5.037  1.00  0.00     0.018 NA
HETATM   11  N   UNL     1      41.096 -10.421   5.256  1.00  0.00    -0.145 NA
BRANCH   8  12
HETATM   12  C   UNL     1      39.208 -13.224   4.040  1.00  0.00     0.186 C 
BRANCH  12  13
HETATM   13  C   UNL     1      39.585 -13.546   2.611  1.00  0.00    -0.039 A 
HETATM   14  C   UNL     1      39.786 -12.540   1.650  1.00  0.00     0.009 A 
HETATM   15  C   UNL     1      40.214 -12.860   0.361  1.00  0.00     0.001 A 
HETATM   16  C   UNL     1      40.467 -14.184   0.017  1.00  0.00     0.000 A 
HETATM   17  C   UNL     1      40.294 -15.192   0.963  1.00  0.00     0.001 A 
HETATM   18  C   UNL     1      39.862 -14.876   2.253  1.00  0.00     0.009 A 
ENDBRANCH  12  13
ENDBRANCH   8  12
ENDBRANCH   3   7
ENDBRANCH   1   3
BRANCH   1  19
HETATM   19  C   UNL     1      42.697 -14.120   7.126  1.00  0.00     0.278 C 
BRANCH  19  20
HETATM   20  C   UNL     1      43.000 -15.471   6.561  1.00  0.00     0.021 A 
HETATM   21  C   UNL     1      43.396 -16.510   7.391  1.00  0.00     0.170 A 
HETATM   22  N   UNL     1      43.704 -17.760   7.019  1.00  0.00    -0.224 NA
HETATM   23  C   UNL     1      43.620 -18.055   5.713  1.00  0.00     0.072 A 
HETATM   24  C   UNL     1      43.272 -17.071   4.746  1.00  0.00    -0.004 A 
HETATM   25  C   UNL     1      43.887 -19.351   5.289  1.00  0.00     0.072 A 
HETATM   26  C   UNL     1      42.987 -15.772   5.196  1.00  0.00     0.027 A 
HETATM   27  C   UNL     1      43.211 -17.396   3.379  1.00  0.00     0.053 A 
HETATM   28  C   UNL     1      43.479 -18.695   3.014  1.00  0.00     0.106 A 
HETATM   29  C   UNL     1      43.806 -19.647   3.945  1.00  0.00     0.107 A 
HETATM   30  O   UNL     1      43.452 -19.187   1.750  1.00  0.00    -0.323 OA
HETATM   31  O   UNL     1      44.028 -20.865   3.383  1.00  0.00    -0.323 OA
HETATM   32  C   UNL     1      43.788 -20.573   1.990  1.00  0.00     0.352 A 
BRANCH  21  33
HETATM   33  O   UNL     1      43.518 -16.324   8.729  1.00  0.00    -0.344 OA
HETATM   34  H   UNL     1      44.470 -16.530   8.833  1.00  0.00     0.219 HD
ENDBRANCH  21  33
ENDBRANCH  19  20
ENDBRANCH   1  19
BRANCH   1  35
HETATM   35  C   UNL     1      44.436 -12.481   6.266  1.00  0.00     0.238 C 
BRANCH  35  36
HETATM   36  C   UNL     1      44.823 -11.589   7.448  1.00  0.00     0.054 C 
BRANCH  36  37
HETATM   37  C   UNL     1      44.040 -10.283   7.416  1.00  0.00     0.165 C 
BRANCH  37  38
HETATM   38  O   UNL     1      42.737 -10.535   7.917  1.00  0.00    -0.401 OA
HETATM   39  H   UNL     1      42.159 -10.713   7.149  1.00  0.00     0.209 HD
ENDBRANCH  37  38
ENDBRANCH  36  37
ENDBRANCH  35  36
ENDBRANCH   1  35
TORSDOF 12
ENDMDL
MODEL 5
REMARK VINA RESULT:      -8.2      3.000      8.721
REMARK  12 active torsions:
REMARK  status: ('A' for Active; 'I' for Inactive)
REMARK    1  A    between atoms: C_2  and  C_3 
REMARK    2  A    between atoms: C_3  and  N_4 
REMARK    3  A    between atoms: C_3  and  C_25 
REMARK    4  A    between atoms: N_4  and  C_6 
REMARK    5  A    between atoms: N_4  and  C_21 
REMARK    6  A    between atoms: C_6  and  C_7 
REMARK    7  A    between atoms: C_8  and  O_9 
REMARK    8  A    between atoms: C_21  and  C_22 
REMARK    9  A    between atoms: C_22  and  C_23 
REMARK   10  A    between atoms: C_23  and  O_24 
REMARK   11  A    between atoms: N_26  and  C_27 
REMARK   12  A    between atoms: C_27  and  C_28 
ROOT
HETATM    1  N   UNL     1      42.569 -12.748   6.019  1.00  0.00    -0.055 N 
HETATM    2  H   UNL     1      42.782 -13.154   5.104  1.00  0.00     0.281 HD
ENDROOT
BRANCH   1   3
HETATM    3  C   UNL     1      43.075 -11.292   5.933  1.00  0.00     0.263 C 
BRANCH   3   4
HETATM    4  C   UNL     1      43.089 -10.703   4.486  1.00  0.00     0.016 C 
HETATM    5  C   UNL     1      41.849  -9.857   4.169  1.00  0.00     0.012 C 
HETATM    6  C   UNL     1      43.349 -11.679   3.333  1.00  0.00     0.012 C 
ENDBRANCH   3   4
BRANCH   3   7
HETATM    7  C   UNL     1      44.314 -10.952   6.696  1.00  0.00     0.168 A 
HETATM    8  N   UNL     1      44.438  -9.961   7.643  1.00  0.00    -0.257 N 
HETATM    9  N   UNL     1      45.709  -9.904   8.071  1.00  0.00    -0.003 NA
HETATM   10  N   UNL     1      46.350 -10.846   7.403  1.00  0.00     0.018 NA
HETATM   11  N   UNL     1      45.507 -11.491   6.547  1.00  0.00    -0.145 NA
BRANCH   8  12
HETATM   12  C   UNL     1      43.458  -9.045   8.196  1.00  0.00     0.186 C 
BRANCH  12  13
HETATM   13  C   UNL     1      43.407  -9.087   9.707  1.00  0.00    -0.039 A 
HETATM   14  C   UNL     1      43.257  -7.921  10.479  1.00  0.00     0.009 A 
HETATM   15  C   UNL     1      43.129  -7.995  11.867  1.00  0.00     0.001 A 
HETATM   16  C   UNL     1      43.130  -9.233  12.503  1.00  0.00     0.000 A 
HETATM   17  C   UNL     1      43.256 -10.399  11.752  1.00  0.00     0.001 A 
HETATM   18  C   UNL     1      43.387 -10.328  10.363  1.00  0.00     0.009 A 
ENDBRANCH  12  13
ENDBRANCH   8  12
ENDBRANCH   3   7
ENDBRANCH   1   3
BRANCH   1  19
HETATM   19  C   UNL     1      43.286 -13.736   6.951  1.00  0.00     0.278 C 
BRANCH  19  20
HETATM   20  C   UNL     1      43.408 -15.184   6.595  1.00  0.00     0.021 A 
HETATM   21  C   UNL     1      43.426 -16.154   7.587  1.00  0.00     0.170 A 
HETATM   22  N   UNL     1      43.537 -17.478   7.410  1.00  0.00    -0.224 NA
HETATM   23  C   UNL     1      43.636 -17.927   6.150  1.00  0.00     0.072 A 
HETATM   24  C   UNL     1      43.678 -17.038   5.040  1.00  0.00    -0.004 A 
HETATM   25  C   UNL     1      43.707 -19.296   5.919  1.00  0.00     0.072 A 
HETATM   26  C   UNL     1      43.584 -15.660   5.294  1.00  0.00     0.027 A 
HETATM   27  C   UNL     1      43.803 -17.529   3.729  1.00  0.00     0.053 A 
HETATM   28  C   UNL     1      43.864 -18.892   3.556  1.00  0.00     0.106 A 
HETATM   29  C   UNL     1      43.816 -19.752   4.623  1.00  0.00     0.107 A 
HETATM   30  O   UNL     1      43.970 -19.539   2.367  1.00  0.00    -0.323 OA
HETATM   31  O   UNL     1      43.885 -21.055   4.240  1.00  0.00    -0.323 OA
HETATM   32  C   UNL     1      43.968 -20.916   2.806  1.00  0.00     0.352 A 
BRANCH  21  33
HETATM   33  O   UNL     1      43.336 -15.814   8.896  1.00  0.00    -0.344 OA
HETATM   34  H   UNL     1      43.068 -16.679   9.269  1.00  0.00     0.219 HD
ENDBRANCH  21  33
ENDBRANCH  19  20
ENDBRANCH   1  19
BRANCH   1  35
HETATM   35  C   UNL     1      41.052 -12.863   6.115  1.00  0.00     0.238 C 
BRANCH  35  36
HETATM   36  C   UNL     1      40.473 -13.563   4.884  1.00  0.00     0.054 C 
BRANCH  36  37
HETATM   37  C   UNL     1      40.121 -15.011   5.202  1.00  0.00     0.165 C 
BRANCH  37  38
HETATM   38  O   UNL     1      39.687 -15.073   6.551  1.00  0.00    -0.401 OA
HETATM   39  H   UNL     1      40.366 -15.564   7.054  1.00  0.00     0.209 HD
ENDBRANCH  37  38
ENDBRANCH  36  37
ENDBRANCH  35  36
ENDBRANCH   1  35
TORSDOF 12
ENDMDL
MODEL 6
REMARK VINA RESULT:      -8.1      2.614      6.323
REMARK  12 active torsions:
REMARK  status: ('A' for Active; 'I' for Inactive)
REMARK    1  A    between atoms: C_2  and  C_3 
REMARK    2  A    between atoms: C_3  and  N_4 
REMARK    3  A    between atoms: C_3  and  C_25 
REMARK    4  A    between atoms: N_4  and  C_6 
REMARK    5  A    between atoms: N_4  and  C_21 
REMARK    6  A    between atoms: C_6  and  C_7 
REMARK    7  A    between atoms: C_8  and  O_9 
REMARK    8  A    between atoms: C_21  and  C_22 
REMARK    9  A    between atoms: C_22  and  C_23 
REMARK   10  A    between atoms: C_23  and  O_24 
REMARK   11  A    between atoms: N_26  and  C_27 
REMARK   12  A    between atoms: C_27  and  C_28 
ROOT
HETATM    1  N   UNL     1      42.550 -12.831   4.852  1.00  0.00    -0.055 N 
HETATM    2  H   UNL     1      43.235 -12.323   4.286  1.00  0.00     0.281 HD
ENDROOT
BRANCH   1   3
HETATM    3  C   UNL     1      42.770 -14.317   4.500  1.00  0.00     0.263 C 
BRANCH   3   4
HETATM    4  C   UNL     1      42.229 -14.729   3.093  1.00  0.00     0.016 C 
HETATM    5  C   UNL     1      41.175 -15.842   3.156  1.00  0.00     0.012 C 
HETATM    6  C   UNL     1      43.263 -15.068   2.015  1.00  0.00     0.012 C 
ENDBRANCH   3   4
BRANCH   3   7
HETATM    7  C   UNL     1      42.439 -15.326   5.552  1.00  0.00     0.168 A 
HETATM    8  N   UNL     1      43.112 -16.503   5.788  1.00  0.00    -0.257 N 
HETATM    9  N   UNL     1      42.497 -17.185   6.766  1.00  0.00    -0.003 NA
HETATM   10  N   UNL     1      41.469 -16.438   7.127  1.00  0.00     0.018 NA
HETATM   11  N   UNL     1      41.416 -15.297   6.381  1.00  0.00    -0.145 NA
BRANCH   8  12
HETATM   12  C   UNL     1      44.302 -17.059   5.171  1.00  0.00     0.186 C 
BRANCH  12  13
HETATM   13  C   UNL     1      44.032 -18.361   4.449  1.00  0.00    -0.039 A 
HETATM   14  C   UNL     1      43.788 -18.408   3.066  1.00  0.00     0.009 A 
HETATM   15  C   UNL     1      43.624 -19.629   2.411  1.00  0.00     0.001 A 
HETATM   16  C   UNL     1      43.722 -20.821   3.121  1.00  0.00     0.000 A 
HETATM   17  C   UNL     1      43.985 -20.795   4.489  1.00  0.00     0.001 A 
HETATM   18  C   UNL     1      44.146 -19.574   5.148  1.00  0.00     0.009 A 
ENDBRANCH  12  13
ENDBRANCH   8  12
ENDBRANCH   3   7
ENDBRANCH   1   3
BRANCH   1  19
HETATM   19  C   UNL     1      41.246 -12.143   4.420  1.00  0.00     0.278 C 
BRANCH  19  20
HETATM   20  C   UNL     1      41.056 -11.660   3.017  1.00  0.00     0.021 A 
HETATM   21  C   UNL     1      42.048 -10.923   2.386  1.00  0.00     0.170 A 
HETATM   22  N   UNL     1      42.005 -10.425   1.142  1.00  0.00    -0.224 NA
HETATM   23  C   UNL     1      40.901 -10.660   0.419  1.00  0.00     0.072 A 
HETATM   24  C   UNL     1      39.788 -11.361   0.961  1.00  0.00    -0.004 A 
HETATM   25  C   UNL     1      40.833 -10.200  -0.891  1.00  0.00     0.072 A 
HETATM   26  C   UNL     1      39.883 -11.835   2.279  1.00  0.00     0.027 A 
HETATM   27  C   UNL     1      38.630 -11.578   0.193  1.00  0.00     0.053 A 
HETATM   28  C   UNL     1      38.619 -11.107  -1.100  1.00  0.00     0.106 A 
HETATM   29  C   UNL     1      39.693 -10.437  -1.628  1.00  0.00     0.107 A 
HETATM   30  O   UNL     1      37.598 -11.238  -1.985  1.00  0.00    -0.323 OA
HETATM   31  O   UNL     1      39.484 -10.061  -2.917  1.00  0.00    -0.323 OA
HETATM   32  C   UNL     1      38.158 -10.583  -3.146  1.00  0.00     0.352 A 
BRANCH  21  33
HETATM   33  O   UNL     1      43.206 -10.624   3.023  1.00  0.00    -0.344 OA
HETATM   34  H   UNL     1      42.845 -10.338   3.887  1.00  0.00     0.219 HD
ENDBRANCH  21  33
ENDBRANCH  19  20
ENDBRANCH   1  19
BRANCH   1  35
HETATM   35  C   UNL     1      42.941 -12.478   6.282  1.00  0.00     0.238 C 
BRANCH  35  36
HETATM   36  C   UNL     1      44.394 -12.861   6.568  1.00  0.00     0.054 C 
BRANCH  36  37
HETATM   37  C   UNL     1      45.325 -11.687   6.293  1.00  0.00     0.165 C 
BRANCH  37  38
HETATM   38  O   UNL     1      44.941 -11.098   5.060  1.00  0.00    -0.401 OA
HETATM   39  H   UNL     1      45.486 -11.508   4.360  1.00  0.00     0.209 HD
ENDBRANCH  37  38
ENDBRANCH  36  37
ENDBRANCH  35  36
ENDBRANCH   1  35
TORSDOF 12
ENDMDL
MODEL 7
REMARK VINA RESULT:      -8.1      3.502      7.234
REMARK  12 active torsions:
REMARK  status: ('A' for Active; 'I' for Inactive)
REMARK    1  A    between atoms: C_2  and  C_3 
REMARK    2  A    between atoms: C_3  and  N_4 
REMARK    3  A    between atoms: C_3  and  C_25 
REMARK    4  A    between atoms: N_4  and  C_6 
REMARK    5  A    between atoms: N_4  and  C_21 
REMARK    6  A    between atoms: C_6  and  C_7 
REMARK    7  A    between atoms: C_8  and  O_9 
REMARK    8  A    between atoms: C_21  and  C_22 
REMARK    9  A    between atoms: C_22  and  C_23 
REMARK   10  A    between atoms: C_23  and  O_24 
REMARK   11  A    between atoms: N_26  and  C_27 
REMARK   12  A    between atoms: C_27  and  C_28 
ROOT
HETATM    1  N   UNL     1      40.415 -13.355  -0.949  1.00  0.00    -0.055 N 
HETATM    2  H   UNL     1      41.429 -13.345  -0.814  1.00  0.00     0.281 HD
ENDROOT
BRANCH   1   3
HETATM    3  C   UNL     1      39.948 -11.942  -0.538  1.00  0.00     0.263 C 
BRANCH   3   4
HETATM    4  C   UNL     1      38.599 -11.498  -1.190  1.00  0.00     0.016 C 
HETATM    5  C   UNL     1      38.751 -10.287  -2.119  1.00  0.00     0.012 C 
HETATM    6  C   UNL     1      37.406 -11.276  -0.254  1.00  0.00     0.012 C 
ENDBRANCH   3   4
BRANCH   3   7
HETATM    7  C   UNL     1      40.971 -10.853  -0.554  1.00  0.00     0.168 A 
HETATM    8  N   UNL     1      41.268 -10.005   0.489  1.00  0.00    -0.257 N 
HETATM    9  N   UNL     1      42.192  -9.114   0.095  1.00  0.00    -0.003 NA
HETATM   10  N   UNL     1      42.460  -9.414  -1.163  1.00  0.00     0.018 NA
HETATM   11  N   UNL     1      41.708 -10.474  -1.577  1.00  0.00    -0.145 NA
BRANCH   8  12
HETATM   12  C   UNL     1      40.759  -9.950   1.847  1.00  0.00     0.186 C 
BRANCH  12  13
HETATM   13  C   UNL     1      41.690 -10.599   2.847  1.00  0.00    -0.039 A 
HETATM   14  C   UNL     1      42.611 -11.593   2.470  1.00  0.00     0.009 A 
HETATM   15  C   UNL     1      43.515 -12.116   3.396  1.00  0.00     0.001 A 
HETATM   16  C   UNL     1      43.527 -11.643   4.704  1.00  0.00     0.000 A 
HETATM   17  C   UNL     1      42.636 -10.644   5.090  1.00  0.00     0.001 A 
HETATM   18  C   UNL     1      41.728 -10.120   4.167  1.00  0.00     0.009 A 
ENDBRANCH  12  13
ENDBRANCH   8  12
ENDBRANCH   3   7
ENDBRANCH   1   3
BRANCH   1  19
HETATM   19  C   UNL     1      40.016 -14.558  -0.080  1.00  0.00     0.278 C 
BRANCH  19  20
HETATM   20  C   UNL     1      40.516 -14.696   1.323  1.00  0.00     0.021 A 
HETATM   21  C   UNL     1      39.850 -14.080   2.372  1.00  0.00     0.170 A 
HETATM   22  N   UNL     1      40.192 -14.116   3.668  1.00  0.00    -0.224 NA
HETATM   23  C   UNL     1      41.283 -14.821   4.001  1.00  0.00     0.072 A 
HETATM   24  C   UNL     1      42.087 -15.463   3.018  1.00  0.00    -0.004 A 
HETATM   25  C   UNL     1      41.648 -14.921   5.338  1.00  0.00     0.072 A 
HETATM   26  C   UNL     1      41.691 -15.367   1.674  1.00  0.00     0.027 A 
HETATM   27  C   UNL     1      43.239 -16.178   3.386  1.00  0.00     0.053 A 
HETATM   28  C   UNL     1      43.551 -16.252   4.724  1.00  0.00     0.106 A 
HETATM   29  C   UNL     1      42.774 -15.640   5.674  1.00  0.00     0.107 A 
HETATM   30  O   UNL     1      44.612 -16.908   5.259  1.00  0.00    -0.323 OA
HETATM   31  O   UNL     1      43.249 -15.836   6.933  1.00  0.00    -0.323 OA
HETATM   32  C   UNL     1      44.408 -16.653   6.667  1.00  0.00     0.352 A 
BRANCH  21  33
HETATM   33  O   UNL     1      38.736 -13.340   2.152  1.00  0.00    -0.344 OA
HETATM   34  H   UNL     1      39.118 -12.640   1.583  1.00  0.00     0.219 HD
ENDBRANCH  21  33
ENDBRANCH  19  20
ENDBRANCH   1  19
BRANCH   1  35
HETATM   35  C   UNL     1      40.257 -13.642  -2.437  1.00  0.00     0.238 C 
BRANCH  35  36
HETATM   36  C   UNL     1      39.289 -14.802  -2.676  1.00  0.00     0.054 C 
BRANCH  36  37
HETATM   37  C   UNL     1      38.058 -14.329  -3.437  1.00  0.00     0.165 C 
BRANCH  37  38
HETATM   38  O   UNL     1      38.033 -14.990  -4.693  1.00  0.00    -0.401 OA
HETATM   39  H   UNL     1      37.555 -14.411  -5.318  1.00  0.00     0.209 HD
ENDBRANCH  37  38
ENDBRANCH  36  37
ENDBRANCH  35  36
ENDBRANCH   1  35
TORSDOF 12
ENDMDL
MODEL 8
REMARK VINA RESULT:      -8.1      2.687      6.479
REMARK  12 active torsions:
REMARK  status: ('A' for Active; 'I' for Inactive)
REMARK    1  A    between atoms: C_2  and  C_3 
REMARK    2  A    between atoms: C_3  and  N_4 
REMARK    3  A    between atoms: C_3  and  C_25 
REMARK    4  A    between atoms: N_4  and  C_6 
REMARK    5  A    between atoms: N_4  and  C_21 
REMARK    6  A    between atoms: C_6  and  C_7 
REMARK    7  A    between atoms: C_8  and  O_9 
REMARK    8  A    between atoms: C_21  and  C_22 
REMARK    9  A    between atoms: C_22  and  C_23 
REMARK   10  A    between atoms: C_23  and  O_24 
REMARK   11  A    between atoms: N_26  and  C_27 
REMARK   12  A    between atoms: C_27  and  C_28 
ROOT
HETATM    1  N   UNL     1      42.491 -12.993   4.259  1.00  0.00    -0.055 N 
HETATM    2  H   UNL     1      43.041 -12.573   3.504  1.00  0.00     0.281 HD
ENDROOT
BRANCH   1   3
HETATM    3  C   UNL     1      42.734 -14.511   4.128  1.00  0.00     0.263 C 
BRANCH   3   4
HETATM    4  C   UNL     1      42.192 -15.135   2.801  1.00  0.00     0.016 C 
HETATM    5  C   UNL     1      41.241 -16.315   3.036  1.00  0.00     0.012 C 
HETATM    6  C   UNL     1      43.222 -15.516   1.733  1.00  0.00     0.012 C 
ENDBRANCH   3   4
BRANCH   3   7
HETATM    7  C   UNL     1      42.426 -15.359   5.320  1.00  0.00     0.168 A 
HETATM    8  N   UNL     1      43.131 -16.467   5.732  1.00  0.00    -0.257 N 
HETATM    9  N   UNL     1      42.530 -17.012   6.801  1.00  0.00    -0.003 NA
HETATM   10  N   UNL     1      41.479 -16.249   7.043  1.00  0.00     0.018 NA
HETATM   11  N   UNL     1      41.397 -15.236   6.133  1.00  0.00    -0.145 NA
BRANCH   8  12
HETATM   12  C   UNL     1      44.341 -17.075   5.208  1.00  0.00     0.186 C 
BRANCH  12  13
HETATM   13  C   UNL     1      44.085 -18.411   4.548  1.00  0.00    -0.039 A 
HETATM   14  C   UNL     1      43.945 -18.538   3.155  1.00  0.00     0.009 A 
HETATM   15  C   UNL     1      43.793 -19.794   2.565  1.00  0.00     0.001 A 
HETATM   16  C   UNL     1      43.797 -20.941   3.352  1.00  0.00     0.000 A 
HETATM   17  C   UNL     1      43.956 -20.836   4.732  1.00  0.00     0.001 A 
HETATM   18  C   UNL     1      44.105 -19.580   5.326  1.00  0.00     0.009 A 
ENDBRANCH  12  13
ENDBRANCH   8  12
ENDBRANCH   3   7
ENDBRANCH   1   3
BRANCH   1  19
HETATM   19  C   UNL     1      41.096 -12.428   3.954  1.00  0.00     0.278 C 
BRANCH  19  20
HETATM   20  C   UNL     1      40.679 -12.115   2.552  1.00  0.00     0.021 A 
HETATM   21  C   UNL     1      39.578 -12.743   1.987  1.00  0.00     0.170 A 
HETATM   22  N   UNL     1      39.103 -12.562   0.747  1.00  0.00    -0.224 NA
HETATM   23  C   UNL     1      39.742 -11.683  -0.039  1.00  0.00     0.072 A 
HETATM   24  C   UNL     1      40.914 -11.005   0.398  1.00  0.00    -0.004 A 
HETATM   25  C   UNL     1      39.256 -11.433  -1.316  1.00  0.00     0.072 A 
HETATM   26  C   UNL     1      41.378 -11.257   1.699  1.00  0.00     0.027 A 
HETATM   27  C   UNL     1      41.582 -10.104  -0.450  1.00  0.00     0.053 A 
HETATM   28  C   UNL     1      41.055  -9.888  -1.702  1.00  0.00     0.106 A 
HETATM   29  C   UNL     1      39.921 -10.534  -2.123  1.00  0.00     0.107 A 
HETATM   30  O   UNL     1      41.556  -9.046  -2.641  1.00  0.00    -0.323 OA
HETATM   31  O   UNL     1      39.563 -10.180  -3.385  1.00  0.00    -0.323 OA
HETATM   32  C   UNL     1      40.595  -9.223  -3.707  1.00  0.00     0.352 A 
BRANCH  21  33
HETATM   33  O   UNL     1      38.858 -13.652   2.689  1.00  0.00    -0.344 OA
HETATM   34  H   UNL     1      38.212 -13.050   3.115  1.00  0.00     0.219 HD
ENDBRANCH  21  33
ENDBRANCH  19  20
ENDBRANCH   1  19
BRANCH   1  35
HETATM   35  C   UNL     1      43.096 -12.384   5.519  1.00  0.00     0.238 C 
BRANCH  35  36
HETATM   36  C   UNL     1      44.339 -11.556   5.190  1.00  0.00     0.054 C 
BRANCH  36  37
HETATM   37  C   UNL     1      45.262 -11.464   6.398  1.00  0.00     0.165 C 
BRANCH  37  38
HETATM   38  O   UNL     1      46.571 -11.177   5.934  1.00  0.00    -0.401 OA
HETATM   39  H   UNL     1      46.519 -10.357   5.405  1.00  0.00     0.209 HD
ENDBRANCH  37  38
ENDBRANCH  36  37
ENDBRANCH  35  36
ENDBRANCH   1  35
TORSDOF 12
ENDMDL
MODEL 9
REMARK VINA RESULT:      -7.9      2.226      3.461
REMARK  12 active torsions:
REMARK  status: ('A' for Active; 'I' for Inactive)
REMARK    1  A    between atoms: C_2  and  C_3 
REMARK    2  A    between atoms: C_3  and  N_4 
REMARK    3  A    between atoms: C_3  and  C_25 
REMARK    4  A    between atoms: N_4  and  C_6 
REMARK    5  A    between atoms: N_4  and  C_21 
REMARK    6  A    between atoms: C_6  and  C_7 
REMARK    7  A    between atoms: C_8  and  O_9 
REMARK    8  A    between atoms: C_21  and  C_22 
REMARK    9  A    between atoms: C_22  and  C_23 
REMARK   10  A    between atoms: C_23  and  O_24 
REMARK   11  A    between atoms: N_26  and  C_27 
REMARK   12  A    between atoms: C_27  and  C_28 
ROOT
HETATM    1  N   UNL     1      42.583 -12.904   4.402  1.00  0.00    -0.055 N 
HETATM    2  H   UNL     1      43.152 -12.571   3.619  1.00  0.00     0.281 HD
ENDROOT
BRANCH   1   3
HETATM    3  C   UNL     1      42.435 -14.422   4.166  1.00  0.00     0.263 C 
BRANCH   3   4
HETATM    4  C   UNL     1      41.451 -14.799   3.012  1.00  0.00     0.016 C 
HETATM    5  C   UNL     1      40.580 -16.019   3.339  1.00  0.00     0.012 C 
HETATM    6  C   UNL     1      42.042 -14.957   1.608  1.00  0.00     0.012 C 
ENDBRANCH   3   4
BRANCH   3   7
HETATM    7  C   UNL     1      42.253 -15.287   5.371  1.00  0.00     0.168 A 
HETATM    8  N   UNL     1      43.028 -16.370   5.717  1.00  0.00    -0.257 N 
HETATM    9  N   UNL     1      42.534 -16.942   6.826  1.00  0.00    -0.003 NA
HETATM   10  N   UNL     1      41.479 -16.220   7.157  1.00  0.00     0.018 NA
HETATM   11  N   UNL     1      41.289 -15.205   6.265  1.00  0.00    -0.145 NA
BRANCH   8  12
HETATM   12  C   UNL     1      44.213 -16.931   5.094  1.00  0.00     0.186 C 
BRANCH  12  13
HETATM   13  C   UNL     1      43.913 -18.164   4.271  1.00  0.00    -0.039 A 
HETATM   14  C   UNL     1      43.483 -18.082   2.935  1.00  0.00     0.009 A 
HETATM   15  C   UNL     1      43.294 -19.236   2.174  1.00  0.00     0.001 A 
HETATM   16  C   UNL     1      43.548 -20.487   2.726  1.00  0.00     0.000 A 
HETATM   17  C   UNL     1      43.995 -20.587   4.042  1.00  0.00     0.001 A 
HETATM   18  C   UNL     1      44.183 -19.434   4.808  1.00  0.00     0.009 A 
ENDBRANCH  12  13
ENDBRANCH   8  12
ENDBRANCH   3   7
ENDBRANCH   1   3
BRANCH   1  19
HETATM   19  C   UNL     1      41.347 -12.001   4.269  1.00  0.00     0.278 C 
BRANCH  19  20
HETATM   20  C   UNL     1      40.747 -11.333   5.466  1.00  0.00     0.021 A 
HETATM   21  C   UNL     1      39.729 -11.949   6.180  1.00  0.00     0.170 A 
HETATM   22  N   UNL     1      39.101 -11.462   7.260  1.00  0.00    -0.224 NA
HETATM   23  C   UNL     1      39.489 -10.260   7.712  1.00  0.00     0.072 A 
HETATM   24  C   UNL     1      40.489  -9.498   7.045  1.00  0.00    -0.004 A 
HETATM   25  C   UNL     1      38.896  -9.739   8.854  1.00  0.00     0.072 A 
HETATM   26  C   UNL     1      41.091 -10.052   5.904  1.00  0.00     0.027 A 
HETATM   27  C   UNL     1      40.866  -8.231   7.524  1.00  0.00     0.053 A 
HETATM   28  C   UNL     1      40.251  -7.764   8.662  1.00  0.00     0.106 A 
HETATM   29  C   UNL     1      39.293  -8.500   9.311  1.00  0.00     0.107 A 
HETATM   30  O   UNL     1      40.499  -6.576   9.270  1.00  0.00    -0.323 OA
HETATM   31  O   UNL     1      38.814  -7.866  10.414  1.00  0.00    -0.323 OA
HETATM   32  C   UNL     1      39.593  -6.651  10.394  1.00  0.00     0.352 A 
BRANCH  21  33
HETATM   33  O   UNL     1      39.256 -13.164   5.812  1.00  0.00    -0.344 OA
HETATM   34  H   UNL     1      38.379 -12.897   5.466  1.00  0.00     0.219 HD
ENDBRANCH  21  33
ENDBRANCH  19  20
ENDBRANCH   1  19
BRANCH   1  35
HETATM   35  C   UNL     1      43.423 -12.554   5.625  1.00  0.00     0.238 C 
BRANCH  35  36
HETATM   36  C   UNL     1      44.503 -11.528   5.277  1.00  0.00     0.054 C 
BRANCH  36  37
HETATM   37  C   UNL     1      45.335 -11.185   6.506  1.00  0.00     0.165 C 
BRANCH  37  38
HETATM   38  O   UNL     1      44.844 -11.943   7.599  1.00  0.00    -0.401 OA
HETATM   39  H   UNL     1      45.456 -11.806   8.348  1.00  0.00     0.209 HD
ENDBRANCH  37  38
ENDBRANCH  36  37
ENDBRANCH  35  36
ENDBRANCH   1  35
TORSDOF 12
ENDMDL
MODEL 10
REMARK VINA RESULT:      -7.8      1.312      2.227
REMARK  12 active torsions:
REMARK  status: ('A' for Active; 'I' for Inactive)
REMARK    1  A    between atoms: C_2  and  C_3 
REMARK    2  A    between atoms: C_3  and  N_4 
REMARK    3  A    between atoms: C_3  and  C_25 
REMARK    4  A    between atoms: N_4  and  C_6 
REMARK    5  A    between atoms: N_4  and  C_21 
REMARK    6  A    between atoms: C_6  and  C_7 
REMARK    7  A    between atoms: C_8  and  O_9 
REMARK    8  A    between atoms: C_21  and  C_22 
REMARK    9  A    between atoms: C_22  and  C_23 
REMARK   10  A    between atoms: C_23  and  O_24 
REMARK   11  A    between atoms: N_26  and  C_27 
REMARK   12  A    between atoms: C_27  and  C_28 
ROOT
HETATM    1  N   UNL     1      42.133 -13.413   3.850  1.00  0.00    -0.055 N 
HETATM    2  H   UNL     1      41.280 -12.849   3.894  1.00  0.00     0.281 HD
ENDROOT
BRANCH   1   3
HETATM    3  C   UNL     1      41.890 -14.573   4.840  1.00  0.00     0.263 C 
BRANCH   3   4
HETATM    4  C   UNL     1      40.839 -14.257   5.953  1.00  0.00     0.016 C 
HETATM    5  C   UNL     1      40.126 -15.509   6.478  1.00  0.00     0.012 C 
HETATM    6  C   UNL     1      39.803 -13.169   5.651  1.00  0.00     0.012 C 
ENDBRANCH   3   4
BRANCH   3   7
HETATM    7  C   UNL     1      43.095 -15.273   5.381  1.00  0.00     0.168 A 
HETATM    8  N   UNL     1      43.767 -16.313   4.780  1.00  0.00    -0.257 N 
HETATM    9  N   UNL     1      44.759 -16.731   5.582  1.00  0.00    -0.003 NA
HETATM   10  N   UNL     1      44.700 -15.958   6.651  1.00  0.00     0.018 NA
HETATM   11  N   UNL     1      43.675 -15.065   6.546  1.00  0.00    -0.145 NA
BRANCH   8  12
HETATM   12  C   UNL     1      43.563 -16.965   3.500  1.00  0.00     0.186 C 
BRANCH  12  13
HETATM   13  C   UNL     1      43.758 -18.463   3.569  1.00  0.00    -0.039 A 
HETATM   14  C   UNL     1      44.009 -19.126   4.783  1.00  0.00     0.009 A 
HETATM   15  C   UNL     1      44.103 -20.517   4.830  1.00  0.00     0.001 A 
HETATM   16  C   UNL     1      43.928 -21.269   3.673  1.00  0.00     0.000 A 
HETATM   17  C   UNL     1      43.657 -20.631   2.464  1.00  0.00     0.001 A 
HETATM   18  C   UNL     1      43.566 -19.238   2.413  1.00  0.00     0.009 A 
ENDBRANCH  12  13
ENDBRANCH   8  12
ENDBRANCH   3   7
ENDBRANCH   1   3
BRANCH   1  19
HETATM   19  C   UNL     1      43.199 -12.358   4.179  1.00  0.00     0.278 C 
BRANCH  19  20
HETATM   20  C   UNL     1      43.023 -11.414   5.327  1.00  0.00     0.021 A 
HETATM   21  C   UNL     1      42.191 -10.310   5.210  1.00  0.00     0.170 A 
HETATM   22  N   UNL     1      41.950  -9.387   6.151  1.00  0.00    -0.224 NA
HETATM   23  C   UNL     1      42.563  -9.534   7.334  1.00  0.00     0.072 A 
HETATM   24  C   UNL     1      43.480 -10.595   7.574  1.00  0.00    -0.004 A 
HETATM   25  C   UNL     1      42.307  -8.624   8.352  1.00  0.00     0.072 A 
HETATM   26  C   UNL     1      43.711 -11.516   6.539  1.00  0.00     0.027 A 
HETATM   27  C   UNL     1      44.129 -10.719   8.814  1.00  0.00     0.053 A 
HETATM   28  C   UNL     1      43.835  -9.795   9.790  1.00  0.00     0.106 A 
HETATM   29  C   UNL     1      42.945  -8.776   9.565  1.00  0.00     0.107 A 
HETATM   30  O   UNL     1      44.353  -9.770  11.044  1.00  0.00    -0.323 OA
HETATM   31  O   UNL     1      42.790  -7.976  10.653  1.00  0.00    -0.323 OA
HETATM   32  C   UNL     1      43.674  -8.619  11.596  1.00  0.00     0.352 A 
BRANCH  21  33
HETATM   33  O   UNL     1      41.522 -10.061   4.058  1.00  0.00    -0.344 OA
HETATM   34  H   UNL     1      40.621 -10.329   4.334  1.00  0.00     0.219 HD
ENDBRANCH  21  33
ENDBRANCH  19  20
ENDBRANCH   1  19
BRANCH   1  35
HETATM   35  C   UNL     1      42.191 -13.857   2.393  1.00  0.00     0.238 C 
BRANCH  35  36
HETATM   36  C   UNL     1      40.820 -13.741   1.725  1.00  0.00     0.054 C 
BRANCH  36  37
HETATM   37  C   UNL     1      40.147 -15.104   1.635  1.00  0.00     0.165 C 
BRANCH  37  38
HETATM   38  O   UNL     1      39.118 -15.155   2.610  1.00  0.00    -0.401 OA
HETATM   39  H   UNL     1      38.514 -14.406   2.436  1.00  0.00     0.209 HD
ENDBRANCH  37  38
ENDBRANCH  36  37
ENDBRANCH  35  36
ENDBRANCH   1  35
TORSDOF 12
ENDMDL
