MODEL 1
REMARK VINA RESULT:      -7.9      0.000      0.000
REMARK  8 active torsions:
REMARK  status: ('A' for Active; 'I' for Inactive)
REMARK    1  A    between atoms: C_2  and  C_3 
REMARK    2  A    between atoms: C_3  and  C_4 
REMARK    3  A    between atoms: C_8  and  C_9 
REMARK       I    between atoms: C_9  and  N_10 
REMARK    4  A    between atoms: N_10  and  C_11 
REMARK    5  A    between atoms: N_10  and  C_17 
REMARK    6  A    between atoms: C_17  and  C_18 
REMARK    7  A    between atoms: C_18  and  O_19 
REMARK    8  A    between atoms: C_18  and  C_20 
ROOT
HETATM    1  C   UNL     1      42.813 -14.450   6.547  1.00  0.00     0.272 C 
HETATM    2  N   UNL     1      42.473 -14.938   5.269  1.00  0.00    -0.339 N 
HETATM    3  O   UNL     1      43.031 -15.239   7.468  1.00  0.00    -0.266 OA
ENDROOT
BRANCH   2   4
HETATM    4  C   UNL     1      42.055 -14.076   4.130  1.00  0.00     0.087 C 
HETATM    5  C   UNL     1      43.199 -13.842   3.129  1.00  0.00     0.025 C 
HETATM    6  C   UNL     1      43.217 -14.801   1.945  1.00  0.00     0.002 C 
HETATM    7  C   UNL     1      41.865 -14.847   1.250  1.00  0.00     0.000 C 
HETATM    8  C   UNL     1      40.784 -15.315   2.209  1.00  0.00     0.002 C 
HETATM    9  C   UNL     1      40.709 -14.450   3.469  1.00  0.00     0.025 C 
ENDBRANCH   2   4
BRANCH   2  10
HETATM   10  C   UNL     1      42.422 -16.410   5.145  1.00  0.00     0.163 C 
BRANCH  10  11
HETATM   11  C   UNL     1      43.802 -17.107   5.013  1.00  0.00     0.169 C 
BRANCH  11  12
HETATM   12  O   UNL     1      44.363 -17.523   6.258  1.00  0.00    -0.389 OA
HETATM   13  H   UNL     1      43.717 -18.105   6.706  1.00  0.00     0.210 HD
ENDBRANCH  11  12
BRANCH  11  14
HETATM   14  C   UNL     1      43.709 -18.343   4.138  1.00  0.00    -0.028 A 
HETATM   15  C   UNL     1      44.068 -19.602   4.637  1.00  0.00     0.010 A 
HETATM   16  C   UNL     1      43.988 -20.737   3.825  1.00  0.00     0.001 A 
HETATM   17  C   UNL     1      43.549 -20.627   2.506  1.00  0.00     0.000 A 
HETATM   18  C   UNL     1      43.179 -19.384   2.000  1.00  0.00     0.001 A 
HETATM   19  C   UNL     1      43.251 -18.250   2.812  1.00  0.00     0.010 A 
ENDBRANCH  11  14
ENDBRANCH  10  11
ENDBRANCH   2  10
BRANCH   1  20
HETATM   20  C   UNL     1      42.885 -13.033   6.779  1.00  0.00     0.119 A 
HETATM   21  N   UNL     1      41.930 -12.110   6.460  1.00  0.00    -0.273 N 
HETATM   22  N   UNL     1      42.260 -10.847   6.780  1.00  0.00    -0.179 NA
HETATM   23  H   UNL     1      41.030 -12.270   6.022  1.00  0.00     0.189 HD
HETATM   24  C   UNL     1      43.520 -10.947   7.224  1.00  0.00     0.057 A 
HETATM   25  C   UNL     1      43.959 -12.289   7.228  1.00  0.00     0.065 A 
BRANCH  24  26
HETATM   26  C   UNL     1      44.292  -9.736   7.625  1.00  0.00     0.061 C 
BRANCH  26  27
HETATM   27  C   UNL     1      45.522 -10.090   8.464  1.00  0.00     0.002 C 
HETATM   28  C   UNL     1      45.340  -9.689   9.919  1.00  0.00     0.005 C 
ENDBRANCH  26  27
ENDBRANCH  24  26
ENDBRANCH   1  20
TORSDOF 8
ENDMDL
MODEL 2
REMARK VINA RESULT:      -7.7      1.830      2.483
REMARK  8 active torsions:
REMARK  status: ('A' for Active; 'I' for Inactive)
REMARK    1  A    between atoms: C_2  and  C_3 
REMARK    2  A    between atoms: C_3  and  C_4 
REMARK    3  A    between atoms: C_8  and  C_9 
REMARK       I    between atoms: C_9  and  N_10 
REMARK    4  A    between atoms: N_10  and  C_11 
REMARK    5  A    between atoms: N_10  and  C_17 
REMARK    6  A    between atoms: C_17  and  C_18 
REMARK    7  A    between atoms: C_18  and  O_19 
REMARK    8  A    between atoms: C_18  and  C_20 
ROOT
HETATM    1  C   UNL     1      42.553 -14.072   6.262  1.00  0.00     0.272 C 
HETATM    2  N   UNL     1      42.319 -14.887   5.135  1.00  0.00    -0.339 N 
HETATM    3  O   UNL     1      42.906 -14.584   7.326  1.00  0.00    -0.266 OA
ENDROOT
BRANCH   2   4
HETATM    4  C   UNL     1      41.757 -14.391   3.849  1.00  0.00     0.087 C 
HETATM    5  C   UNL     1      42.856 -13.945   2.869  1.00  0.00     0.025 C 
HETATM    6  C   UNL     1      43.290 -15.010   1.869  1.00  0.00     0.002 C 
HETATM    7  C   UNL     1      42.095 -15.602   1.139  1.00  0.00     0.000 C 
HETATM    8  C   UNL     1      41.134 -16.252   2.120  1.00  0.00     0.002 C 
HETATM    9  C   UNL     1      40.669 -15.283   3.209  1.00  0.00     0.025 C 
ENDBRANCH   2   4
BRANCH   2  10
HETATM   10  C   UNL     1      42.542 -16.333   5.340  1.00  0.00     0.163 C 
BRANCH  10  11
HETATM   11  C   UNL     1      43.961 -16.839   4.964  1.00  0.00     0.169 C 
BRANCH  11  12
HETATM   12  O   UNL     1      44.892 -16.812   6.045  1.00  0.00    -0.389 OA
HETATM   13  H   UNL     1      45.540 -17.531   5.908  1.00  0.00     0.210 HD
ENDBRANCH  11  12
BRANCH  11  14
HETATM   14  C   UNL     1      43.914 -18.269   4.459  1.00  0.00    -0.028 A 
HETATM   15  C   UNL     1      44.010 -19.346   5.351  1.00  0.00     0.010 A 
HETATM   16  C   UNL     1      43.974 -20.662   4.881  1.00  0.00     0.001 A 
HETATM   17  C   UNL     1      43.842 -20.917   3.517  1.00  0.00     0.000 A 
HETATM   18  C   UNL     1      43.736 -19.857   2.620  1.00  0.00     0.001 A 
HETATM   19  C   UNL     1      43.764 -18.543   3.088  1.00  0.00     0.010 A 
ENDBRANCH  11  14
ENDBRANCH  10  11
ENDBRANCH   2  10
BRANCH   1  20
HETATM   20  C   UNL     1      42.359 -12.651   6.174  1.00  0.00     0.119 A 
HETATM   21  N   UNL     1      43.328 -11.693   6.267  1.00  0.00    -0.273 N 
HETATM   22  N   UNL     1      42.867 -10.435   6.160  1.00  0.00    -0.179 NA
HETATM   23  H   UNL     1      44.323 -11.825   6.405  1.00  0.00     0.189 HD
HETATM   24  C   UNL     1      41.538 -10.583   6.103  1.00  0.00     0.057 A 
HETATM   25  C   UNL     1      41.171 -11.947   6.123  1.00  0.00     0.065 A 
BRANCH  24  26
HETATM   26  C   UNL     1      40.633  -9.399   6.045  1.00  0.00     0.061 C 
BRANCH  26  27
HETATM   27  C   UNL     1      39.187  -9.763   6.388  1.00  0.00     0.002 C 
HETATM   28  C   UNL     1      38.267  -9.584   5.192  1.00  0.00     0.005 C 
ENDBRANCH  26  27
ENDBRANCH  24  26
ENDBRANCH   1  20
TORSDOF 8
ENDMDL
MODEL 3
REMARK VINA RESULT:      -7.5      3.819      7.379
REMARK  8 active torsions:
REMARK  status: ('A' for Active; 'I' for Inactive)
REMARK    1  A    between atoms: C_2  and  C_3 
REMARK    2  A    between atoms: C_3  and  C_4 
REMARK    3  A    between atoms: C_8  and  C_9 
REMARK       I    between atoms: C_9  and  N_10 
REMARK    4  A    between atoms: N_10  and  C_11 
REMARK    5  A    between atoms: N_10  and  C_17 
REMARK    6  A    between atoms: C_17  and  C_18 
REMARK    7  A    between atoms: C_18  and  O_19 
REMARK    8  A    between atoms: C_18  and  C_20 
ROOT
HETATM    1  C   UNL     1      41.281 -12.275   1.191  1.00  0.00     0.272 C 
HETATM    2  N   UNL     1      41.976 -13.320   1.833  1.00  0.00    -0.339 N 
HETATM    3  O   UNL     1      41.185 -11.174   1.737  1.00  0.00    -0.266 OA
ENDROOT
BRANCH   2   4
HETATM    4  C   UNL     1      42.031 -14.719   1.329  1.00  0.00     0.087 C 
HETATM    5  C   UNL     1      43.377 -15.395   1.638  1.00  0.00     0.025 C 
HETATM    6  C   UNL     1      43.397 -16.222   2.917  1.00  0.00     0.002 C 
HETATM    7  C   UNL     1      42.249 -17.219   2.949  1.00  0.00     0.000 C 
HETATM    8  C   UNL     1      40.912 -16.501   2.882  1.00  0.00     0.002 C 
HETATM    9  C   UNL     1      40.799 -15.594   1.655  1.00  0.00     0.025 C 
ENDBRANCH   2   4
BRANCH   2  10
HETATM   10  C   UNL     1      42.561 -12.979   3.146  1.00  0.00     0.163 C 
BRANCH  10  11
HETATM   11  C   UNL     1      41.553 -12.941   4.325  1.00  0.00     0.169 C 
BRANCH  11  12
HETATM   12  O   UNL     1      40.196 -13.147   3.935  1.00  0.00    -0.389 OA
HETATM   13  H   UNL     1      40.012 -12.582   3.159  1.00  0.00     0.210 HD
ENDBRANCH  11  12
BRANCH  11  14
HETATM   14  C   UNL     1      41.880 -14.004   5.358  1.00  0.00    -0.028 A 
HETATM   15  C   UNL     1      40.878 -14.843   5.863  1.00  0.00     0.010 A 
HETATM   16  C   UNL     1      41.182 -15.816   6.820  1.00  0.00     0.001 A 
HETATM   17  C   UNL     1      42.489 -15.961   7.282  1.00  0.00     0.000 A 
HETATM   18  C   UNL     1      43.497 -15.141   6.782  1.00  0.00     0.001 A 
HETATM   19  C   UNL     1      43.197 -14.174   5.821  1.00  0.00     0.010 A 
ENDBRANCH  11  14
ENDBRANCH  10  11
ENDBRANCH   2  10
BRANCH   1  20
HETATM   20  C   UNL     1      40.666 -12.501  -0.089  1.00  0.00     0.119 A 
HETATM   21  N   UNL     1      41.250 -12.323  -1.311  1.00  0.00    -0.273 N 
HETATM   22  N   UNL     1      40.442 -12.598  -2.350  1.00  0.00    -0.179 NA
HETATM   23  H   UNL     1      42.194 -12.014  -1.512  1.00  0.00     0.189 HD
HETATM   24  C   UNL     1      39.260 -12.860  -1.777  1.00  0.00     0.057 A 
HETATM   25  C   UNL     1      39.346 -12.797  -0.368  1.00  0.00     0.065 A 
BRANCH  24  26
HETATM   26  C   UNL     1      38.053 -13.155  -2.602  1.00  0.00     0.061 C 
BRANCH  26  27
HETATM   27  C   UNL     1      38.217 -14.434  -3.425  1.00  0.00     0.002 C 
HETATM   28  C   UNL     1      38.637 -15.608  -2.554  1.00  0.00     0.005 C 
ENDBRANCH  26  27
ENDBRANCH  24  26
ENDBRANCH   1  20
TORSDOF 8
ENDMDL
MODEL 4
REMARK VINA RESULT:      -7.3      3.582      7.050
REMARK  8 active torsions:
REMARK  status: ('A' for Active; 'I' for Inactive)
REMARK    1  A    between atoms: C_2  and  C_3 
REMARK    2  A    between atoms: C_3  and  C_4 
REMARK    3  A    between atoms: C_8  and  C_9 
REMARK       I    between atoms: C_9  and  N_10 
REMARK    4  A    between atoms: N_10  and  C_11 
REMARK    5  A    between atoms: N_10  and  C_17 
REMARK    6  A    between atoms: C_17  and  C_18 
REMARK    7  A    between atoms: C_18  and  O_19 
REMARK    8  A    between atoms: C_18  and  C_20 
ROOT
HETATM    1  C   UNL     1      40.559 -15.353   2.703  1.00  0.00     0.272 C 
HETATM    2  N   UNL     1      40.463 -13.949   2.784  1.00  0.00    -0.339 N 
HETATM    3  O   UNL     1      39.914 -15.965   1.850  1.00  0.00    -0.266 OA
ENDROOT
BRANCH   2   4
HETATM    4  C   UNL     1      41.085 -13.130   3.860  1.00  0.00     0.087 C 
HETATM    5  C   UNL     1      42.519 -12.702   3.508  1.00  0.00     0.025 C 
HETATM    6  C   UNL     1      42.636 -11.324   2.869  1.00  0.00     0.002 C 
HETATM    7  C   UNL     1      41.925 -10.268   3.700  1.00  0.00     0.000 C 
HETATM    8  C   UNL     1      40.447 -10.594   3.832  1.00  0.00     0.002 C 
HETATM    9  C   UNL     1      40.207 -11.987   4.419  1.00  0.00     0.025 C 
ENDBRANCH   2   4
BRANCH   2  10
HETATM   10  C   UNL     1      39.573 -13.316   1.788  1.00  0.00     0.163 C 
BRANCH  10  11
HETATM   11  C   UNL     1      40.258 -12.924   0.451  1.00  0.00     0.169 C 
BRANCH  11  12
HETATM   12  O   UNL     1      41.517 -13.560   0.236  1.00  0.00    -0.389 OA
HETATM   13  H   UNL     1      41.875 -13.831   1.105  1.00  0.00     0.210 HD
ENDBRANCH  11  12
BRANCH  11  14
HETATM   14  C   UNL     1      39.379 -13.275  -0.736  1.00  0.00    -0.028 A 
HETATM   15  C   UNL     1      39.572 -14.473  -1.439  1.00  0.00     0.010 A 
HETATM   16  C   UNL     1      38.765 -14.789  -2.536  1.00  0.00     0.001 A 
HETATM   17  C   UNL     1      37.759 -13.914  -2.943  1.00  0.00     0.000 A 
HETATM   18  C   UNL     1      37.550 -12.726  -2.248  1.00  0.00     0.001 A 
HETATM   19  C   UNL     1      38.349 -12.412  -1.147  1.00  0.00     0.010 A 
ENDBRANCH  11  14
ENDBRANCH  10  11
ENDBRANCH   2  10
BRANCH   1  20
HETATM   20  C   UNL     1      41.392 -16.071   3.630  1.00  0.00     0.119 A 
HETATM   21  N   UNL     1      41.170 -16.223   4.969  1.00  0.00    -0.273 N 
HETATM   22  N   UNL     1      42.118 -16.935   5.604  1.00  0.00    -0.179 NA
HETATM   23  H   UNL     1      40.395 -15.867   5.517  1.00  0.00     0.189 HD
HETATM   24  C   UNL     1      43.039 -17.159   4.658  1.00  0.00     0.057 A 
HETATM   25  C   UNL     1      42.639 -16.626   3.413  1.00  0.00     0.065 A 
BRANCH  24  26
HETATM   26  C   UNL     1      44.308 -17.875   4.975  1.00  0.00     0.061 C 
BRANCH  26  27
HETATM   27  C   UNL     1      44.336 -19.285   4.382  1.00  0.00     0.002 C 
HETATM   28  C   UNL     1      43.948 -20.332   5.413  1.00  0.00     0.005 C 
ENDBRANCH  26  27
ENDBRANCH  24  26
ENDBRANCH   1  20
TORSDOF 8
ENDMDL
MODEL 5
REMARK VINA RESULT:      -7.2      3.248      5.457
REMARK  8 active torsions:
REMARK  status: ('A' for Active; 'I' for Inactive)
REMARK    1  A    between atoms: C_2  and  C_3 
REMARK    2  A    between atoms: C_3  and  C_4 
REMARK    3  A    between atoms: C_8  and  C_9 
REMARK       I    between atoms: C_9  and  N_10 
REMARK    4  A    between atoms: N_10  and  C_11 
REMARK    5  A    between atoms: N_10  and  C_17 
REMARK    6  A    between atoms: C_17  and  C_18 
REMARK    7  A    between atoms: C_18  and  O_19 
REMARK    8  A    between atoms: C_18  and  C_20 
ROOT
HETATM    1  C   UNL     1      42.337 -11.552   3.284  1.00  0.00     0.272 C 
HETATM    2  N   UNL     1      42.188 -12.781   2.610  1.00  0.00    -0.339 N 
HETATM    3  O   UNL     1      41.935 -10.511   2.760  1.00  0.00    -0.266 OA
ENDROOT
BRANCH   2   4
HETATM    4  C   UNL     1      42.761 -14.070   3.086  1.00  0.00     0.087 C 
HETATM    5  C   UNL     1      41.780 -14.846   3.980  1.00  0.00     0.025 C 
HETATM    6  C   UNL     1      40.940 -15.888   3.251  1.00  0.00     0.002 C 
HETATM    7  C   UNL     1      41.811 -16.825   2.431  1.00  0.00     0.000 C 
HETATM    8  C   UNL     1      42.597 -16.051   1.386  1.00  0.00     0.002 C 
HETATM    9  C   UNL     1      43.444 -14.935   2.003  1.00  0.00     0.025 C 
ENDBRANCH   2   4
BRANCH   2  10
HETATM   10  C   UNL     1      41.522 -12.705   1.292  1.00  0.00     0.163 C 
BRANCH  10  11
HETATM   11  C   UNL     1      39.990 -12.954   1.313  1.00  0.00     0.169 C 
BRANCH  11  12
HETATM   12  O   UNL     1      39.227 -11.835   1.762  1.00  0.00    -0.389 OA
HETATM   13  H   UNL     1      39.680 -11.019   1.470  1.00  0.00     0.210 HD
ENDBRANCH  11  12
BRANCH  11  14
HETATM   14  C   UNL     1      39.477 -13.313  -0.068  1.00  0.00    -0.028 A 
HETATM   15  C   UNL     1      38.754 -12.382  -0.827  1.00  0.00     0.010 A 
HETATM   16  C   UNL     1      38.276 -12.719  -2.097  1.00  0.00     0.001 A 
HETATM   17  C   UNL     1      38.512 -13.988  -2.622  1.00  0.00     0.000 A 
HETATM   18  C   UNL     1      39.236 -14.920  -1.883  1.00  0.00     0.001 A 
HETATM   19  C   UNL     1      39.722 -14.583  -0.619  1.00  0.00     0.010 A 
ENDBRANCH  11  14
ENDBRANCH  10  11
ENDBRANCH   2  10
BRANCH   1  20
HETATM   20  C   UNL     1      42.977 -11.511   4.570  1.00  0.00     0.119 A 
HETATM   21  N   UNL     1      42.356 -11.394   5.781  1.00  0.00    -0.273 N 
HETATM   22  N   UNL     1      43.198 -11.370   6.829  1.00  0.00    -0.179 NA
HETATM   23  H   UNL     1      41.362 -11.323   5.968  1.00  0.00     0.189 HD
HETATM   24  C   UNL     1      44.412 -11.365   6.265  1.00  0.00     0.057 A 
HETATM   25  C   UNL     1      44.326 -11.437   4.857  1.00  0.00     0.065 A 
BRANCH  24  26
HETATM   26  C   UNL     1      45.647 -11.274   7.097  1.00  0.00     0.061 C 
BRANCH  26  27
HETATM   27  C   UNL     1      45.781  -9.912   7.780  1.00  0.00     0.002 C 
HETATM   28  C   UNL     1      45.441  -9.992   9.259  1.00  0.00     0.005 C 
ENDBRANCH  26  27
ENDBRANCH  24  26
ENDBRANCH   1  20
TORSDOF 8
ENDMDL
MODEL 6
REMARK VINA RESULT:      -7.2     15.319     17.015
REMARK  8 active torsions:
REMARK  status: ('A' for Active; 'I' for Inactive)
REMARK    1  A    between atoms: C_2  and  C_3 
REMARK    2  A    between atoms: C_3  and  C_4 
REMARK    3  A    between atoms: C_8  and  C_9 
REMARK       I    between atoms: C_9  and  N_10 
REMARK    4  A    between atoms: N_10  and  C_11 
REMARK    5  A    between atoms: N_10  and  C_17 
REMARK    6  A    between atoms: C_17  and  C_18 
REMARK    7  A    between atoms: C_18  and  O_19 
REMARK    8  A    between atoms: C_18  and  C_20 
ROOT
HETATM    1  C   UNL     1      47.382 -29.028   2.254  1.00  0.00     0.272 C 
HETATM    2  N   UNL     1      47.454 -29.242   0.862  1.00  0.00    -0.339 N 
HETATM    3  O   UNL     1      46.592 -28.197   2.707  1.00  0.00    -0.266 OA
ENDROOT
BRANCH   2   4
HETATM    4  C   UNL     1      48.465 -30.113   0.203  1.00  0.00     0.087 C 
HETATM    5  C   UNL     1      48.011 -31.580   0.136  1.00  0.00     0.025 C 
HETATM    6  C   UNL     1      47.328 -31.978  -1.167  1.00  0.00     0.002 C 
HETATM    7  C   UNL     1      48.172 -31.598  -2.373  1.00  0.00     0.000 C 
HETATM    8  C   UNL     1      48.407 -30.097  -2.411  1.00  0.00     0.002 C 
HETATM    9  C   UNL     1      49.046 -29.573  -1.124  1.00  0.00     0.025 C 
ENDBRANCH   2   4
BRANCH   2  10
HETATM   10  C   UNL     1      46.528 -28.428   0.046  1.00  0.00     0.163 C 
BRANCH  10  11
HETATM   11  C   UNL     1      45.169 -29.105  -0.277  1.00  0.00     0.169 C 
BRANCH  11  12
HETATM   12  O   UNL     1      44.039 -28.428   0.272  1.00  0.00    -0.389 OA
HETATM   13  H   UNL     1      43.284 -29.049   0.279  1.00  0.00     0.210 HD
ENDBRANCH  11  12
BRANCH  11  14
HETATM   14  C   UNL     1      44.945 -29.192  -1.775  1.00  0.00    -0.028 A 
HETATM   15  C   UNL     1      45.348 -28.149  -2.620  1.00  0.00     0.010 A 
HETATM   16  C   UNL     1      45.133 -28.229  -3.999  1.00  0.00     0.001 A 
HETATM   17  C   UNL     1      44.514 -29.351  -4.549  1.00  0.00     0.000 A 
HETATM   18  C   UNL     1      44.118 -30.399  -3.722  1.00  0.00     0.001 A 
HETATM   19  C   UNL     1      44.338 -30.324  -2.346  1.00  0.00     0.010 A 
ENDBRANCH  11  14
ENDBRANCH  10  11
ENDBRANCH   2  10
BRANCH   1  20
HETATM   20  C   UNL     1      48.244 -29.762   3.139  1.00  0.00     0.119 A 
HETATM   21  N   UNL     1      47.876 -30.792   3.958  1.00  0.00    -0.273 N 
HETATM   22  N   UNL     1      48.885 -31.294   4.692  1.00  0.00    -0.179 NA
HETATM   23  H   UNL     1      46.957 -31.202   4.070  1.00  0.00     0.189 HD
HETATM   24  C   UNL     1      49.917 -30.488   4.414  1.00  0.00     0.057 A 
HETATM   25  C   UNL     1      49.563 -29.507   3.462  1.00  0.00     0.065 A 
BRANCH  24  26
HETATM   26  C   UNL     1      51.236 -30.666   5.088  1.00  0.00     0.061 C 
BRANCH  26  27
HETATM   27  C   UNL     1      51.309 -31.980   5.869  1.00  0.00     0.002 C 
HETATM   28  C   UNL     1      52.435 -31.961   6.890  1.00  0.00     0.005 C 
ENDBRANCH  26  27
ENDBRANCH  24  26
ENDBRANCH   1  20
TORSDOF 8
ENDMDL
MODEL 7
REMARK VINA RESULT:      -7.1      3.852      9.605
REMARK  8 active torsions:
REMARK  status: ('A' for Active; 'I' for Inactive)
REMARK    1  A    between atoms: C_2  and  C_3 
REMARK    2  A    between atoms: C_3  and  C_4 
REMARK    3  A    between atoms: C_8  and  C_9 
REMARK       I    between atoms: C_9  and  N_10 
REMARK    4  A    between atoms: N_10  and  C_11 
REMARK    5  A    between atoms: N_10  and  C_17 
REMARK    6  A    between atoms: C_17  and  C_18 
REMARK    7  A    between atoms: C_18  and  O_19 
REMARK    8  A    between atoms: C_18  and  C_20 
ROOT
HETATM    1  C   UNL     1      43.800 -10.977   7.997  1.00  0.00     0.272 C 
HETATM    2  N   UNL     1      43.308  -9.860   8.702  1.00  0.00    -0.339 N 
HETATM    3  O   UNL     1      44.696 -11.667   8.487  1.00  0.00    -0.266 OA
ENDROOT
BRANCH   2   4
HETATM    4  C   UNL     1      42.332  -8.884   8.144  1.00  0.00     0.087 C 
HETATM    5  C   UNL     1      40.907  -9.125   8.666  1.00  0.00     0.025 C 
HETATM    6  C   UNL     1      40.521  -8.289   9.880  1.00  0.00     0.002 C 
HETATM    7  C   UNL     1      40.787  -6.812   9.641  1.00  0.00     0.000 C 
HETATM    8  C   UNL     1      42.261  -6.570   9.360  1.00  0.00     0.002 C 
HETATM    9  C   UNL     1      42.774  -7.403   8.184  1.00  0.00     0.025 C 
ENDBRANCH   2   4
BRANCH   2  10
HETATM   10  C   UNL     1      43.928  -9.620  10.022  1.00  0.00     0.163 C 
BRANCH  10  11
HETATM   11  C   UNL     1      43.289 -10.403  11.200  1.00  0.00     0.169 C 
BRANCH  11  12
HETATM   12  O   UNL     1      44.130 -11.420  11.744  1.00  0.00    -0.389 OA
HETATM   13  H   UNL     1      43.628 -11.894  12.436  1.00  0.00     0.210 HD
ENDBRANCH  11  12
BRANCH  11  14
HETATM   14  C   UNL     1      42.928  -9.472  12.343  1.00  0.00    -0.028 A 
HETATM   15  C   UNL     1      41.929  -9.821  13.261  1.00  0.00     0.010 A 
HETATM   16  C   UNL     1      41.594  -8.957  14.308  1.00  0.00     0.001 A 
HETATM   17  C   UNL     1      42.253  -7.737  14.449  1.00  0.00     0.000 A 
HETATM   18  C   UNL     1      43.255  -7.381  13.549  1.00  0.00     0.001 A 
HETATM   19  C   UNL     1      43.596  -8.246  12.508  1.00  0.00     0.010 A 
ENDBRANCH  11  14
ENDBRANCH  10  11
ENDBRANCH   2  10
BRANCH   1  20
HETATM   20  C   UNL     1      43.271 -11.297   6.699  1.00  0.00     0.119 A 
HETATM   21  N   UNL     1      42.051 -11.852   6.435  1.00  0.00    -0.273 N 
HETATM   22  N   UNL     1      41.813 -12.057   5.128  1.00  0.00    -0.179 NA
HETATM   23  H   UNL     1      41.331 -12.119   7.097  1.00  0.00     0.189 HD
HETATM   24  C   UNL     1      42.966 -11.721   4.535  1.00  0.00     0.057 A 
HETATM   25  C   UNL     1      43.911 -11.255   5.475  1.00  0.00     0.065 A 
BRANCH  24  26
HETATM   26  C   UNL     1      43.146 -11.870   3.062  1.00  0.00     0.061 C 
BRANCH  26  27
HETATM   27  C   UNL     1      43.110 -13.335   2.623  1.00  0.00     0.002 C 
HETATM   28  C   UNL     1      41.954 -13.605   1.673  1.00  0.00     0.005 C 
ENDBRANCH  26  27
ENDBRANCH  24  26
ENDBRANCH   1  20
TORSDOF 8
ENDMDL
MODEL 8
REMARK VINA RESULT:      -7.0      3.425      4.696
REMARK  8 active torsions:
REMARK  status: ('A' for Active; 'I' for Inactive)
REMARK    1  A    between atoms: C_2  and  C_3 
REMARK    2  A    between atoms: C_3  and  C_4 
REMARK    3  A    between atoms: C_8  and  C_9 
REMARK       I    between atoms: C_9  and  N_10 
REMARK    4  A    between atoms: N_10  and  C_11 
REMARK    5  A    between atoms: N_10  and  C_17 
REMARK    6  A    between atoms: C_17  and  C_18 
REMARK    7  A    between atoms: C_18  and  O_19 
REMARK    8  A    between atoms: C_18  and  C_20 
ROOT
HETATM    1  C   UNL     1      41.812 -13.040   2.785  1.00  0.00     0.272 C 
HETATM    2  N   UNL     1      42.258 -13.943   3.772  1.00  0.00    -0.339 N 
HETATM    3  O   UNL     1      42.262 -13.112   1.640  1.00  0.00    -0.266 OA
ENDROOT
BRANCH   2   4
HETATM    4  C   UNL     1      41.889 -13.856   5.211  1.00  0.00     0.087 C 
HETATM    5  C   UNL     1      40.779 -14.851   5.587  1.00  0.00     0.025 C 
HETATM    6  C   UNL     1      41.274 -16.176   6.152  1.00  0.00     0.002 C 
HETATM    7  C   UNL     1      42.244 -15.959   7.303  1.00  0.00     0.000 C 
HETATM    8  C   UNL     1      43.457 -15.169   6.840  1.00  0.00     0.002 C 
HETATM    9  C   UNL     1      43.074 -13.832   6.203  1.00  0.00     0.025 C 
ENDBRANCH   2   4
BRANCH   2  10
HETATM   10  C   UNL     1      43.250 -14.940   3.318  1.00  0.00     0.163 C 
BRANCH  10  11
HETATM   11  C   UNL     1      42.681 -16.071   2.420  1.00  0.00     0.169 C 
BRANCH  11  12
HETATM   12  O   UNL     1      43.036 -15.952   1.043  1.00  0.00    -0.389 OA
HETATM   13  H   UNL     1      43.409 -16.806   0.748  1.00  0.00     0.210 HD
ENDBRANCH  11  12
BRANCH  11  14
HETATM   14  C   UNL     1      43.167 -17.432   2.884  1.00  0.00    -0.028 A 
HETATM   15  C   UNL     1      43.813 -17.578   4.119  1.00  0.00     0.010 A 
HETATM   16  C   UNL     1      44.266 -18.832   4.539  1.00  0.00     0.001 A 
HETATM   17  C   UNL     1      44.079 -19.953   3.731  1.00  0.00     0.000 A 
HETATM   18  C   UNL     1      43.431 -19.824   2.506  1.00  0.00     0.001 A 
HETATM   19  C   UNL     1      42.971 -18.574   2.088  1.00  0.00     0.010 A 
ENDBRANCH  11  14
ENDBRANCH  10  11
ENDBRANCH   2  10
BRANCH   1  20
HETATM   20  C   UNL     1      40.852 -12.025   3.121  1.00  0.00     0.119 A 
HETATM   21  N   UNL     1      39.494 -12.125   3.011  1.00  0.00    -0.273 N 
HETATM   22  N   UNL     1      38.831 -11.017   3.386  1.00  0.00    -0.179 NA
HETATM   23  H   UNL     1      38.952 -12.917   2.687  1.00  0.00     0.189 HD
HETATM   24  C   UNL     1      39.803 -10.133   3.645  1.00  0.00     0.057 A 
HETATM   25  C   UNL     1      41.081 -10.710   3.480  1.00  0.00     0.065 A 
BRANCH  24  26
HETATM   26  C   UNL     1      39.482  -8.730   4.037  1.00  0.00     0.061 C 
BRANCH  26  27
HETATM   27  C   UNL     1      38.010  -8.562   4.418  1.00  0.00     0.002 C 
HETATM   28  C   UNL     1      37.286  -7.637   3.452  1.00  0.00     0.005 C 
ENDBRANCH  26  27
ENDBRANCH  24  26
ENDBRANCH   1  20
TORSDOF 8
ENDMDL
MODEL 9
REMARK VINA RESULT:      -7.0      1.764      7.418
REMARK  8 active torsions:
REMARK  status: ('A' for Active; 'I' for Inactive)
REMARK    1  A    between atoms: C_2  and  C_3 
REMARK    2  A    between atoms: C_3  and  C_4 
REMARK    3  A    between atoms: C_8  and  C_9 
REMARK       I    between atoms: C_9  and  N_10 
REMARK    4  A    between atoms: N_10  and  C_11 
REMARK    5  A    between atoms: N_10  and  C_17 
REMARK    6  A    between atoms: C_17  and  C_18 
REMARK    7  A    between atoms: C_18  and  O_19 
REMARK    8  A    between atoms: C_18  and  C_20 
ROOT
HETATM    1  C   UNL     1      43.456 -14.839   6.440  1.00  0.00     0.272 C 
HETATM    2  N   UNL     1      42.838 -13.967   5.521  1.00  0.00    -0.339 N 
HETATM    3  O   UNL     1      43.998 -14.384   7.449  1.00  0.00    -0.266 OA
ENDROOT
BRANCH   2   4
HETATM    4  C   UNL     1      42.281 -14.395   4.209  1.00  0.00     0.087 C 
HETATM    5  C   UNL     1      40.744 -14.373   4.196  1.00  0.00     0.025 C 
HETATM    6  C   UNL     1      40.127 -13.092   3.648  1.00  0.00     0.002 C 
HETATM    7  C   UNL     1      40.703 -12.741   2.286  1.00  0.00     0.000 C 
HETATM    8  C   UNL     1      42.206 -12.531   2.376  1.00  0.00     0.002 C 
HETATM    9  C   UNL     1      42.929 -13.743   2.966  1.00  0.00     0.025 C 
ENDBRANCH   2   4
BRANCH   2  10
HETATM   10  C   UNL     1      42.887 -12.533   5.876  1.00  0.00     0.163 C 
BRANCH  10  11
HETATM   11  C   UNL     1      44.289 -11.877   5.771  1.00  0.00     0.169 C 
BRANCH  11  12
HETATM   12  O   UNL     1      44.522 -11.202   4.535  1.00  0.00    -0.389 OA
HETATM   13  H   UNL     1      43.966 -11.622   3.848  1.00  0.00     0.210 HD
ENDBRANCH  11  12
BRANCH  11  14
HETATM   14  C   UNL     1      44.499 -10.857   6.875  1.00  0.00    -0.028 A 
HETATM   15  C   UNL     1      43.405 -10.240   7.497  1.00  0.00     0.010 A 
HETATM   16  C   UNL     1      43.603  -9.296   8.508  1.00  0.00     0.001 A 
HETATM   17  C   UNL     1      44.894  -8.957   8.909  1.00  0.00     0.000 A 
HETATM   18  C   UNL     1      45.991  -9.569   8.307  1.00  0.00     0.001 A 
HETATM   19  C   UNL     1      45.795 -10.518   7.302  1.00  0.00     0.010 A 
ENDBRANCH  11  14
ENDBRANCH  10  11
ENDBRANCH   2  10
BRANCH   1  20
HETATM   20  C   UNL     1      43.472 -16.254   6.188  1.00  0.00     0.119 A 
HETATM   21  N   UNL     1      43.072 -17.235   7.050  1.00  0.00    -0.273 N 
HETATM   22  N   UNL     1      43.204 -18.481   6.562  1.00  0.00    -0.179 NA
HETATM   23  H   UNL     1      42.701 -17.129   7.987  1.00  0.00     0.189 HD
HETATM   24  C   UNL     1      43.812 -18.301   5.382  1.00  0.00     0.057 A 
HETATM   25  C   UNL     1      44.014 -16.929   5.112  1.00  0.00     0.065 A 
BRANCH  24  26
HETATM   26  C   UNL     1      44.207 -19.463   4.534  1.00  0.00     0.061 C 
BRANCH  26  27
HETATM   27  C   UNL     1      44.119 -19.141   3.041  1.00  0.00     0.002 C 
HETATM   28  C   UNL     1      43.361 -20.218   2.281  1.00  0.00     0.005 C 
ENDBRANCH  26  27
ENDBRANCH  24  26
ENDBRANCH   1  20
TORSDOF 8
ENDMDL
MODEL 10
REMARK VINA RESULT:      -6.8      5.576      9.060
REMARK  8 active torsions:
REMARK  status: ('A' for Active; 'I' for Inactive)
REMARK    1  A    between atoms: C_2  and  C_3 
REMARK    2  A    between atoms: C_3  and  C_4 
REMARK    3  A    between atoms: C_8  and  C_9 
REMARK       I    between atoms: C_9  and  N_10 
REMARK    4  A    between atoms: N_10  and  C_11 
REMARK    5  A    between atoms: N_10  and  C_17 
REMARK    6  A    between atoms: C_17  and  C_18 
REMARK    7  A    between atoms: C_18  and  O_19 
REMARK    8  A    between atoms: C_18  and  C_20 
ROOT
HETATM    1  C   UNL     1      39.707 -14.534  -0.006  1.00  0.00     0.272 C 
HETATM    2  N   UNL     1      39.603 -13.128  -0.025  1.00  0.00    -0.339 N 
HETATM    3  O   UNL     1      39.371 -15.187  -0.996  1.00  0.00    -0.266 OA
ENDROOT
BRANCH   2   4
HETATM    4  C   UNL     1      39.847 -12.257   1.157  1.00  0.00     0.087 C 
HETATM    5  C   UNL     1      41.289 -11.725   1.199  1.00  0.00     0.025 C 
HETATM    6  C   UNL     1      41.479 -10.346   0.579  1.00  0.00     0.002 C 
HETATM    7  C   UNL     1      40.494  -9.341   1.155  1.00  0.00     0.000 C 
HETATM    8  C   UNL     1      39.063  -9.777   0.887  1.00  0.00     0.002 C 
HETATM    9  C   UNL     1      38.771 -11.179   1.424  1.00  0.00     0.025 C 
ENDBRANCH   2   4
BRANCH   2  10
HETATM   10  C   UNL     1      39.096 -12.546  -1.285  1.00  0.00     0.163 C 
BRANCH  10  11
HETATM   11  C   UNL     1      40.185 -12.196  -2.333  1.00  0.00     0.169 C 
BRANCH  11  12
HETATM   12  O   UNL     1      40.371 -13.196  -3.334  1.00  0.00    -0.389 OA
HETATM   13  H   UNL     1      41.305 -13.485  -3.308  1.00  0.00     0.210 HD
ENDBRANCH  11  12
BRANCH  11  14
HETATM   14  C   UNL     1      39.851 -10.905  -3.058  1.00  0.00    -0.028 A 
HETATM   15  C   UNL     1      40.866 -10.104  -3.598  1.00  0.00     0.010 A 
HETATM   16  C   UNL     1      40.554  -8.912  -4.258  1.00  0.00     0.001 A 
HETATM   17  C   UNL     1      39.226  -8.507  -4.386  1.00  0.00     0.000 A 
HETATM   18  C   UNL     1      38.207  -9.297  -3.863  1.00  0.00     0.001 A 
HETATM   19  C   UNL     1      38.515 -10.492  -3.210  1.00  0.00     0.010 A 
ENDBRANCH  11  14
ENDBRANCH  10  11
ENDBRANCH   2  10
BRANCH   1  20
HETATM   20  C   UNL     1      40.183 -15.203   1.173  1.00  0.00     0.119 A 
HETATM   21  N   UNL     1      39.470 -15.443   2.313  1.00  0.00    -0.273 N 
HETATM   22  N   UNL     1      40.166 -16.081   3.271  1.00  0.00    -0.179 NA
HETATM   23  H   UNL     1      38.506 -15.197   2.509  1.00  0.00     0.189 HD
HETATM   24  C   UNL     1      41.404 -16.161   2.769  1.00  0.00     0.057 A 
HETATM   25  C   UNL     1      41.469 -15.613   1.469  1.00  0.00     0.065 A 
BRANCH  24  26
HETATM   26  C   UNL     1      42.519 -16.754   3.563  1.00  0.00     0.061 C 
BRANCH  26  27
HETATM   27  C   UNL     1      43.536 -17.475   2.676  1.00  0.00     0.002 C 
HETATM   28  C   UNL     1      43.061 -18.869   2.300  1.00  0.00     0.005 C 
ENDBRANCH  26  27
ENDBRANCH  24  26
ENDBRANCH   1  20
TORSDOF 8
ENDMDL
