MODEL 1
REMARK VINA RESULT:      -9.1      0.000      0.000
REMARK  7 active torsions:
REMARK  status: ('A' for Active; 'I' for Inactive)
REMARK    1  A    between atoms: O_2  and  C_3 
REMARK    2  A    between atoms: C_6  and  C_7 
REMARK    3  A    between atoms: C_11  and  C_12 
REMARK       I    between atoms: C_12  and  N_13 
REMARK    4  A    between atoms: N_13  and  N_14 
REMARK       I    between atoms: N_14  and  C_15 
REMARK    5  A    between atoms: C_15  and  C_16 
REMARK    6  A    between atoms: C_16  and  C_17 
REMARK    7  A    between atoms: C_17  and  C_18 
ROOT
HETATM    1  C   UNL     1      44.354 -11.299   7.716  1.00  0.00     0.288 C 
HETATM    2  N   UNL     1      43.559 -12.422   7.644  1.00  0.00    -0.262 N 
HETATM    3  O   UNL     1      45.229 -11.071   6.882  1.00  0.00    -0.264 OA
HETATM    4  H   UNL     1      42.805 -12.632   8.294  1.00  0.00     0.190 HD
ENDROOT
BRANCH   1   5
HETATM    5  C   UNL     1      44.083 -10.414   8.815  1.00  0.00     0.121 A 
HETATM    6  N   UNL     1      44.226  -9.061   8.698  1.00  0.00    -0.272 N 
HETATM    7  N   UNL     1      43.888  -8.374   9.798  1.00  0.00    -0.174 NA
HETATM    8  H   UNL     1      44.539  -8.549   7.878  1.00  0.00     0.189 HD
HETATM    9  C   UNL     1      43.525  -9.312  10.686  1.00  0.00     0.089 A 
HETATM   10  C   UNL     1      43.645 -10.608  10.110  1.00  0.00     0.071 A 
BRANCH   9  11
HETATM   11  C   UNL     1      43.051  -8.961  12.028  1.00  0.00    -0.005 A 
HETATM   12  C   UNL     1      43.590  -7.857  12.703  1.00  0.00     0.016 A 
HETATM   13  C   UNL     1      43.117  -7.479  13.966  1.00  0.00     0.037 A 
HETATM   14  C   UNL     1      42.098  -8.206  14.577  1.00  0.00     0.068 A 
HETATM   15  C   UNL     1      41.574  -9.324  13.923  1.00  0.00     0.037 A 
HETATM   16  C   UNL     1      42.041  -9.698  12.658  1.00  0.00     0.016 A 
BRANCH  14  17
HETATM   17  O   UNL     1      41.539  -7.940  15.796  1.00  0.00    -0.356 OA
HETATM   18  C   UNL     1      41.971  -6.753  16.449  1.00  0.00     0.210 C 
ENDBRANCH  14  17
ENDBRANCH   9  11
ENDBRANCH   1   5
BRANCH   2  19
HETATM   19  N   UNL     1      43.718 -13.294   6.564  1.00  0.00    -0.267 N 
HETATM   20  C   UNL     1      43.292 -14.595   6.711  1.00  0.00     0.236 C 
HETATM   21  O   UNL     1      42.866 -15.040   7.775  1.00  0.00    -0.272 OA
HETATM   22  H   UNL     1      43.943 -12.870   5.665  1.00  0.00     0.190 HD
BRANCH  20  23
HETATM   23  C   UNL     1      43.400 -15.429   5.458  1.00  0.00     0.109 C 
BRANCH  23  24
HETATM   24  C   UNL     1      44.059 -16.774   5.753  1.00  0.00     0.048 C 
BRANCH  24  25
HETATM   25  C   UNL     1      43.856 -17.757   4.627  1.00  0.00    -0.058 A 
HETATM   26  C   UNL     1      44.190 -19.111   4.795  1.00  0.00     0.010 A 
HETATM   27  C   UNL     1      44.010 -20.015   3.747  1.00  0.00     0.043 A 
HETATM   28  C   UNL     1      43.501 -19.568   2.534  1.00  0.00     0.116 A 
HETATM   29  F   UNL     1      43.330 -20.437   1.530  1.00  0.00    -0.206 F 
HETATM   30  C   UNL     1      43.167 -18.232   2.347  1.00  0.00     0.043 A 
HETATM   31  C   UNL     1      43.343 -17.326   3.394  1.00  0.00     0.010 A 
ENDBRANCH  24  25
ENDBRANCH  23  24
ENDBRANCH  20  23
ENDBRANCH   2  19
TORSDOF 7
ENDMDL
MODEL 2
REMARK VINA RESULT:      -8.9      4.079     11.556
REMARK  7 active torsions:
REMARK  status: ('A' for Active; 'I' for Inactive)
REMARK    1  A    between atoms: O_2  and  C_3 
REMARK    2  A    between atoms: C_6  and  C_7 
REMARK    3  A    between atoms: C_11  and  C_12 
REMARK       I    between atoms: C_12  and  N_13 
REMARK    4  A    between atoms: N_13  and  N_14 
REMARK       I    between atoms: N_14  and  C_15 
REMARK    5  A    between atoms: C_15  and  C_16 
REMARK    6  A    between atoms: C_16  and  C_17 
REMARK    7  A    between atoms: C_17  and  C_18 
ROOT
HETATM    1  C   UNL     1      42.485 -11.462   5.773  1.00  0.00     0.288 C 
HETATM    2  N   UNL     1      42.682 -11.606   7.129  1.00  0.00    -0.262 N 
HETATM    3  O   UNL     1      42.277 -10.361   5.263  1.00  0.00    -0.264 OA
HETATM    4  H   UNL     1      42.886 -12.491   7.586  1.00  0.00     0.190 HD
ENDROOT
BRANCH   1   5
HETATM    5  C   UNL     1      42.552 -12.672   5.002  1.00  0.00     0.121 A 
HETATM    6  N   UNL     1      42.176 -12.708   3.690  1.00  0.00    -0.272 N 
HETATM    7  N   UNL     1      42.344 -13.900   3.102  1.00  0.00    -0.174 NA
HETATM    8  H   UNL     1      41.809 -11.937   3.139  1.00  0.00     0.189 HD
HETATM    9  C   UNL     1      42.833 -14.691   4.069  1.00  0.00     0.089 A 
HETATM   10  C   UNL     1      42.967 -13.959   5.282  1.00  0.00     0.071 A 
BRANCH   9  11
HETATM   11  C   UNL     1      43.186 -16.091   3.815  1.00  0.00    -0.005 A 
HETATM   12  C   UNL     1      43.815 -16.854   4.809  1.00  0.00     0.016 A 
HETATM   13  C   UNL     1      44.119 -18.205   4.600  1.00  0.00     0.037 A 
HETATM   14  C   UNL     1      43.801 -18.813   3.388  1.00  0.00     0.068 A 
HETATM   15  C   UNL     1      43.198 -18.054   2.382  1.00  0.00     0.037 A 
HETATM   16  C   UNL     1      42.889 -16.705   2.592  1.00  0.00     0.016 A 
BRANCH  14  17
HETATM   17  O   UNL     1      44.030 -20.121   3.060  1.00  0.00    -0.356 OA
HETATM   18  C   UNL     1      43.586 -20.542   1.776  1.00  0.00     0.210 C 
ENDBRANCH  14  17
ENDBRANCH   9  11
ENDBRANCH   1   5
BRANCH   2  19
HETATM   19  N   UNL     1      42.700 -10.464   7.935  1.00  0.00    -0.267 N 
HETATM   20  C   UNL     1      43.786 -10.265   8.756  1.00  0.00     0.236 C 
HETATM   21  O   UNL     1      44.691 -11.090   8.877  1.00  0.00    -0.272 OA
HETATM   22  H   UNL     1      42.015  -9.742   7.717  1.00  0.00     0.190 HD
BRANCH  20  23
HETATM   23  C   UNL     1      43.769  -8.954   9.502  1.00  0.00     0.109 C 
BRANCH  23  24
HETATM   24  C   UNL     1      44.466  -9.085  10.853  1.00  0.00     0.048 C 
BRANCH  24  25
HETATM   25  C   UNL     1      43.489  -9.008  12.000  1.00  0.00    -0.058 A 
HETATM   26  C   UNL     1      43.538  -7.938  12.907  1.00  0.00     0.010 A 
HETATM   27  C   UNL     1      42.638  -7.876  13.972  1.00  0.00     0.043 A 
HETATM   28  C   UNL     1      41.692  -8.882  14.132  1.00  0.00     0.116 A 
HETATM   29  F   UNL     1      40.830  -8.821  15.154  1.00  0.00    -0.206 F 
HETATM   30  C   UNL     1      41.629  -9.951  13.245  1.00  0.00     0.043 A 
HETATM   31  C   UNL     1      42.526 -10.014  12.178  1.00  0.00     0.010 A 
ENDBRANCH  24  25
ENDBRANCH  23  24
ENDBRANCH  20  23
ENDBRANCH   2  19
TORSDOF 7
ENDMDL
MODEL 3
REMARK VINA RESULT:      -8.9      1.224      1.792
REMARK  7 active torsions:
REMARK  status: ('A' for Active; 'I' for Inactive)
REMARK    1  A    between atoms: O_2  and  C_3 
REMARK    2  A    between atoms: C_6  and  C_7 
REMARK    3  A    between atoms: C_11  and  C_12 
REMARK       I    between atoms: C_12  and  N_13 
REMARK    4  A    between atoms: N_13  and  N_14 
REMARK       I    between atoms: N_14  and  C_15 
REMARK    5  A    between atoms: C_15  and  C_16 
REMARK    6  A    between atoms: C_16  and  C_17 
REMARK    7  A    between atoms: C_17  and  C_18 
ROOT
HETATM    1  C   UNL     1      44.291 -11.937   7.355  1.00  0.00     0.288 C 
HETATM    2  N   UNL     1      43.303 -12.870   7.581  1.00  0.00    -0.262 N 
HETATM    3  O   UNL     1      45.089 -12.053   6.426  1.00  0.00    -0.264 OA
HETATM    4  H   UNL     1      42.605 -12.797   8.318  1.00  0.00     0.190 HD
ENDROOT
BRANCH   1   5
HETATM    5  C   UNL     1      44.314 -10.823   8.262  1.00  0.00     0.121 A 
HETATM    6  N   UNL     1      45.341  -9.923   8.266  1.00  0.00    -0.272 N 
HETATM    7  N   UNL     1      45.188  -8.918   9.138  1.00  0.00    -0.174 NA
HETATM    8  H   UNL     1      46.170  -9.941   7.679  1.00  0.00     0.189 HD
HETATM    9  C   UNL     1      44.021  -9.172   9.750  1.00  0.00     0.089 A 
HETATM   10  C   UNL     1      43.446 -10.368   9.235  1.00  0.00     0.071 A 
BRANCH   9  11
HETATM   11  C   UNL     1      43.473  -8.272  10.769  1.00  0.00    -0.005 A 
HETATM   12  C   UNL     1      43.611  -8.576  12.131  1.00  0.00     0.016 A 
HETATM   13  C   UNL     1      43.134  -7.706  13.119  1.00  0.00     0.037 A 
HETATM   14  C   UNL     1      42.504  -6.518  12.758  1.00  0.00     0.068 A 
HETATM   15  C   UNL     1      42.337  -6.219  11.404  1.00  0.00     0.037 A 
HETATM   16  C   UNL     1      42.820  -7.085  10.415  1.00  0.00     0.016 A 
BRANCH  14  17
HETATM   17  O   UNL     1      42.005  -5.579  13.618  1.00  0.00    -0.356 OA
HETATM   18  C   UNL     1      41.313  -6.066  14.761  1.00  0.00     0.210 C 
ENDBRANCH  14  17
ENDBRANCH   9  11
ENDBRANCH   1   5
BRANCH   2  19
HETATM   19  N   UNL     1      43.175 -13.946   6.699  1.00  0.00    -0.267 N 
HETATM   20  C   UNL     1      43.091 -15.214   7.227  1.00  0.00     0.236 C 
HETATM   21  O   UNL     1      43.216 -15.445   8.429  1.00  0.00    -0.272 OA
HETATM   22  H   UNL     1      42.940 -13.719   5.734  1.00  0.00     0.190 HD
BRANCH  20  23
HETATM   23  C   UNL     1      42.841 -16.298   6.207  1.00  0.00     0.109 C 
BRANCH  23  24
HETATM   24  C   UNL     1      44.156 -16.838   5.652  1.00  0.00     0.048 C 
BRANCH  24  25
HETATM   25  C   UNL     1      43.929 -17.833   4.540  1.00  0.00    -0.058 A 
HETATM   26  C   UNL     1      43.391 -17.419   3.312  1.00  0.00     0.010 A 
HETATM   27  C   UNL     1      43.174 -18.344   2.290  1.00  0.00     0.043 A 
HETATM   28  C   UNL     1      43.492 -19.681   2.496  1.00  0.00     0.116 A 
HETATM   29  F   UNL     1      43.282 -20.568   1.514  1.00  0.00    -0.206 F 
HETATM   30  C   UNL     1      44.024 -20.112   3.705  1.00  0.00     0.043 A 
HETATM   31  C   UNL     1      44.244 -19.188   4.728  1.00  0.00     0.010 A 
ENDBRANCH  24  25
ENDBRANCH  23  24
ENDBRANCH  20  23
ENDBRANCH   2  19
TORSDOF 7
ENDMDL
MODEL 4
REMARK VINA RESULT:      -8.1      9.235     12.325
REMARK  7 active torsions:
REMARK  status: ('A' for Active; 'I' for Inactive)
REMARK    1  A    between atoms: O_2  and  C_3 
REMARK    2  A    between atoms: C_6  and  C_7 
REMARK    3  A    between atoms: C_11  and  C_12 
REMARK       I    between atoms: C_12  and  N_13 
REMARK    4  A    between atoms: N_13  and  N_14 
REMARK       I    between atoms: N_14  and  C_15 
REMARK    5  A    between atoms: C_15  and  C_16 
REMARK    6  A    between atoms: C_16  and  C_17 
REMARK    7  A    between atoms: C_17  and  C_18 
ROOT
HETATM    1  C   UNL     1      40.383 -13.036   0.276  1.00  0.00     0.288 C 
HETATM    2  N   UNL     1      41.356 -12.666  -0.627  1.00  0.00    -0.262 N 
HETATM    3  O   UNL     1      39.325 -12.415   0.376  1.00  0.00    -0.264 OA
HETATM    4  H   UNL     1      42.230 -13.169  -0.763  1.00  0.00     0.190 HD
ENDROOT
BRANCH   1   5
HETATM    5  C   UNL     1      40.679 -14.193   1.073  1.00  0.00     0.121 A 
HETATM    6  N   UNL     1      39.699 -15.048   1.488  1.00  0.00    -0.272 N 
HETATM    7  N   UNL     1      40.147 -16.103   2.182  1.00  0.00    -0.174 NA
HETATM    8  H   UNL     1      38.702 -14.965   1.310  1.00  0.00     0.189 HD
HETATM    9  C   UNL     1      41.476 -15.929   2.247  1.00  0.00     0.089 A 
HETATM   10  C   UNL     1      41.849 -14.733   1.571  1.00  0.00     0.071 A 
BRANCH   9  11
HETATM   11  C   UNL     1      42.349 -16.902   2.909  1.00  0.00    -0.005 A 
HETATM   12  C   UNL     1      42.667 -16.759   4.267  1.00  0.00     0.016 A 
HETATM   13  C   UNL     1      43.464 -17.704   4.927  1.00  0.00     0.037 A 
HETATM   14  C   UNL     1      43.959 -18.806   4.235  1.00  0.00     0.068 A 
HETATM   15  C   UNL     1      43.670 -18.942   2.875  1.00  0.00     0.037 A 
HETATM   16  C   UNL     1      42.869 -18.003   2.215  1.00  0.00     0.016 A 
BRANCH  14  17
HETATM   17  O   UNL     1      44.734 -19.803   4.759  1.00  0.00    -0.356 OA
HETATM   18  C   UNL     1      44.047 -20.911   5.327  1.00  0.00     0.210 C 
ENDBRANCH  14  17
ENDBRANCH   9  11
ENDBRANCH   1   5
BRANCH   2  19
HETATM   19  N   UNL     1      41.110 -11.591  -1.485  1.00  0.00    -0.267 N 
HETATM   20  C   UNL     1      41.015 -11.846  -2.835  1.00  0.00     0.236 C 
HETATM   21  O   UNL     1      41.227 -12.956  -3.320  1.00  0.00    -0.272 OA
HETATM   22  H   UNL     1      40.807 -10.721  -1.051  1.00  0.00     0.190 HD
BRANCH  20  23
HETATM   23  C   UNL     1      40.636 -10.647  -3.668  1.00  0.00     0.109 C 
BRANCH  23  24
HETATM   24  C   UNL     1      40.226  -9.474  -2.783  1.00  0.00     0.048 C 
BRANCH  24  25
HETATM   25  C   UNL     1      41.363  -8.505  -2.572  1.00  0.00    -0.058 A 
HETATM   26  C   UNL     1      41.923  -7.815  -3.659  1.00  0.00     0.010 A 
HETATM   27  C   UNL     1      42.981  -6.927  -3.460  1.00  0.00     0.043 A 
HETATM   28  C   UNL     1      43.481  -6.730  -2.178  1.00  0.00     0.116 A 
HETATM   29  F   UNL     1      44.496  -5.878  -1.990  1.00  0.00    -0.206 F 
HETATM   30  C   UNL     1      42.942  -7.405  -1.090  1.00  0.00     0.043 A 
HETATM   31  C   UNL     1      41.882  -8.292  -1.285  1.00  0.00     0.010 A 
ENDBRANCH  24  25
ENDBRANCH  23  24
ENDBRANCH  20  23
ENDBRANCH   2  19
TORSDOF 7
ENDMDL
MODEL 5
REMARK VINA RESULT:      -7.9      4.314     11.584
REMARK  7 active torsions:
REMARK  status: ('A' for Active; 'I' for Inactive)
REMARK    1  A    between atoms: O_2  and  C_3 
REMARK    2  A    between atoms: C_6  and  C_7 
REMARK    3  A    between atoms: C_11  and  C_12 
REMARK       I    between atoms: C_12  and  N_13 
REMARK    4  A    between atoms: N_13  and  N_14 
REMARK       I    between atoms: N_14  and  C_15 
REMARK    5  A    between atoms: C_15  and  C_16 
REMARK    6  A    between atoms: C_16  and  C_17 
REMARK    7  A    between atoms: C_17  and  C_18 
ROOT
HETATM    1  C   UNL     1      42.258 -11.250   5.905  1.00  0.00     0.288 C 
HETATM    2  N   UNL     1      42.263 -10.799   7.207  1.00  0.00    -0.262 N 
HETATM    3  O   UNL     1      42.225 -10.472   4.952  1.00  0.00    -0.264 OA
HETATM    4  H   UNL     1      42.320 -11.406   8.022  1.00  0.00     0.190 HD
ENDROOT
BRANCH   1   5
HETATM    5  C   UNL     1      42.306 -12.675   5.739  1.00  0.00     0.121 A 
HETATM    6  N   UNL     1      41.462 -13.506   6.418  1.00  0.00    -0.272 N 
HETATM    7  N   UNL     1      41.604 -14.803   6.115  1.00  0.00    -0.174 NA
HETATM    8  H   UNL     1      40.754 -13.235   7.095  1.00  0.00     0.189 HD
HETATM    9  C   UNL     1      42.596 -14.836   5.212  1.00  0.00     0.089 A 
HETATM   10  C   UNL     1      43.073 -13.518   4.958  1.00  0.00     0.071 A 
BRANCH   9  11
HETATM   11  C   UNL     1      43.040 -16.091   4.599  1.00  0.00    -0.005 A 
HETATM   12  C   UNL     1      43.978 -16.904   5.251  1.00  0.00     0.016 A 
HETATM   13  C   UNL     1      44.379 -18.128   4.702  1.00  0.00     0.037 A 
HETATM   14  C   UNL     1      43.851 -18.555   3.486  1.00  0.00     0.068 A 
HETATM   15  C   UNL     1      42.937 -17.739   2.816  1.00  0.00     0.037 A 
HETATM   16  C   UNL     1      42.530 -16.518   3.367  1.00  0.00     0.016 A 
BRANCH  14  17
HETATM   17  O   UNL     1      44.147 -19.728   2.848  1.00  0.00    -0.356 OA
HETATM   18  C   UNL     1      43.213 -20.175   1.872  1.00  0.00     0.210 C 
ENDBRANCH  14  17
ENDBRANCH   9  11
ENDBRANCH   1   5
BRANCH   2  19
HETATM   19  N   UNL     1      42.287  -9.423   7.447  1.00  0.00    -0.267 N 
HETATM   20  C   UNL     1      41.205  -8.854   8.080  1.00  0.00     0.236 C 
HETATM   21  O   UNL     1      40.188  -9.486   8.359  1.00  0.00    -0.272 OA
HETATM   22  H   UNL     1      43.185  -8.956   7.331  1.00  0.00     0.190 HD
BRANCH  20  23
HETATM   23  C   UNL     1      41.370  -7.388   8.396  1.00  0.00     0.109 C 
BRANCH  23  24
HETATM   24  C   UNL     1      42.768  -7.099   8.936  1.00  0.00     0.048 C 
BRANCH  24  25
HETATM   25  C   UNL     1      42.831  -7.246  10.436  1.00  0.00    -0.058 A 
HETATM   26  C   UNL     1      43.439  -8.370  11.017  1.00  0.00     0.010 A 
HETATM   27  C   UNL     1      43.487  -8.506  12.405  1.00  0.00     0.043 A 
HETATM   28  C   UNL     1      42.925  -7.523  13.211  1.00  0.00     0.116 A 
HETATM   29  F   UNL     1      42.972  -7.656  14.543  1.00  0.00    -0.206 F 
HETATM   30  C   UNL     1      42.317  -6.404  12.655  1.00  0.00     0.043 A 
HETATM   31  C   UNL     1      42.271  -6.264  11.267  1.00  0.00     0.010 A 
ENDBRANCH  24  25
ENDBRANCH  23  24
ENDBRANCH  20  23
ENDBRANCH   2  19
TORSDOF 7
ENDMDL
MODEL 6
REMARK VINA RESULT:      -7.8      4.502     11.375
REMARK  7 active torsions:
REMARK  status: ('A' for Active; 'I' for Inactive)
REMARK    1  A    between atoms: O_2  and  C_3 
REMARK    2  A    between atoms: C_6  and  C_7 
REMARK    3  A    between atoms: C_11  and  C_12 
REMARK       I    between atoms: C_12  and  N_13 
REMARK    4  A    between atoms: N_13  and  N_14 
REMARK       I    between atoms: N_14  and  C_15 
REMARK    5  A    between atoms: C_15  and  C_16 
REMARK    6  A    between atoms: C_16  and  C_17 
REMARK    7  A    between atoms: C_17  and  C_18 
ROOT
HETATM    1  C   UNL     1      42.743 -11.579   6.173  1.00  0.00     0.288 C 
HETATM    2  N   UNL     1      43.134 -11.787   7.477  1.00  0.00    -0.262 N 
HETATM    3  O   UNL     1      42.486 -10.453   5.747  1.00  0.00    -0.264 OA
HETATM    4  H   UNL     1      43.385 -12.695   7.861  1.00  0.00     0.190 HD
ENDROOT
BRANCH   1   5
HETATM    5  C   UNL     1      42.671 -12.753   5.349  1.00  0.00     0.121 A 
HETATM    6  N   UNL     1      42.116 -12.722   4.102  1.00  0.00    -0.272 N 
HETATM    7  N   UNL     1      42.170 -13.889   3.446  1.00  0.00    -0.174 NA
HETATM    8  H   UNL     1      41.697 -11.919   3.641  1.00  0.00     0.189 HD
HETATM    9  C   UNL     1      42.766 -14.733   4.302  1.00  0.00     0.089 A 
HETATM   10  C   UNL     1      43.086 -14.060   5.515  1.00  0.00     0.071 A 
BRANCH   9  11
HETATM   11  C   UNL     1      43.043 -16.127   3.942  1.00  0.00    -0.005 A 
HETATM   12  C   UNL     1      42.781 -16.589   2.645  1.00  0.00     0.016 A 
HETATM   13  C   UNL     1      43.081 -17.905   2.271  1.00  0.00     0.037 A 
HETATM   14  C   UNL     1      43.645 -18.782   3.194  1.00  0.00     0.068 A 
HETATM   15  C   UNL     1      43.885 -18.339   4.497  1.00  0.00     0.037 A 
HETATM   16  C   UNL     1      43.591 -17.022   4.870  1.00  0.00     0.016 A 
BRANCH  14  17
HETATM   17  O   UNL     1      43.996 -20.083   2.958  1.00  0.00    -0.356 OA
HETATM   18  C   UNL     1      43.949 -20.967   4.071  1.00  0.00     0.210 C 
ENDBRANCH  14  17
ENDBRANCH   9  11
ENDBRANCH   1   5
BRANCH   2  19
HETATM   19  N   UNL     1      43.294 -10.683   8.320  1.00  0.00    -0.267 N 
HETATM   20  C   UNL     1      44.543 -10.443   8.845  1.00  0.00     0.236 C 
HETATM   21  O   UNL     1      45.494 -11.205   8.680  1.00  0.00    -0.272 OA
HETATM   22  H   UNL     1      42.535 -10.003   8.329  1.00  0.00     0.190 HD
BRANCH  20  23
HETATM   23  C   UNL     1      44.644  -9.169   9.650  1.00  0.00     0.109 C 
BRANCH  23  24
HETATM   24  C   UNL     1      44.505  -7.944   8.751  1.00  0.00     0.048 C 
BRANCH  24  25
HETATM   25  C   UNL     1      43.202  -7.221   8.986  1.00  0.00    -0.058 A 
HETATM   26  C   UNL     1      42.855  -6.776  10.271  1.00  0.00     0.010 A 
HETATM   27  C   UNL     1      41.644  -6.116  10.484  1.00  0.00     0.043 A 
HETATM   28  C   UNL     1      40.780  -5.903   9.417  1.00  0.00     0.116 A 
HETATM   29  F   UNL     1      39.618  -5.270   9.624  1.00  0.00    -0.206 F 
HETATM   30  C   UNL     1      41.104  -6.338   8.137  1.00  0.00     0.043 A 
HETATM   31  C   UNL     1      42.316  -6.996   7.920  1.00  0.00     0.010 A 
ENDBRANCH  24  25
ENDBRANCH  23  24
ENDBRANCH  20  23
ENDBRANCH   2  19
TORSDOF 7
ENDMDL
MODEL 7
REMARK VINA RESULT:      -7.8     19.065     20.281
REMARK  7 active torsions:
REMARK  status: ('A' for Active; 'I' for Inactive)
REMARK    1  A    between atoms: O_2  and  C_3 
REMARK    2  A    between atoms: C_6  and  C_7 
REMARK    3  A    between atoms: C_11  and  C_12 
REMARK       I    between atoms: C_12  and  N_13 
REMARK    4  A    between atoms: N_13  and  N_14 
REMARK       I    between atoms: N_14  and  C_15 
REMARK    5  A    between atoms: C_15  and  C_16 
REMARK    6  A    between atoms: C_16  and  C_17 
REMARK    7  A    between atoms: C_17  and  C_18 
ROOT
HETATM    1  C   UNL     1      43.643 -29.454   1.358  1.00  0.00     0.288 C 
HETATM    2  N   UNL     1      44.876 -28.966   1.730  1.00  0.00    -0.262 N 
HETATM    3  O   UNL     1      43.163 -29.220   0.249  1.00  0.00    -0.264 OA
HETATM    4  H   UNL     1      45.322 -29.160   2.624  1.00  0.00     0.190 HD
ENDROOT
BRANCH   1   5
HETATM    5  C   UNL     1      42.969 -30.259   2.339  1.00  0.00     0.121 A 
HETATM    6  N   UNL     1      43.630 -30.784   3.412  1.00  0.00    -0.272 N 
HETATM    7  N   UNL     1      42.850 -31.469   4.258  1.00  0.00    -0.174 NA
HETATM    8  H   UNL     1      44.620 -30.690   3.624  1.00  0.00     0.189 HD
HETATM    9  C   UNL     1      41.625 -31.413   3.712  1.00  0.00     0.089 A 
HETATM   10  C   UNL     1      41.661 -30.671   2.498  1.00  0.00     0.071 A 
BRANCH   9  11
HETATM   11  C   UNL     1      40.463 -32.028   4.361  1.00  0.00    -0.005 A 
HETATM   12  C   UNL     1      40.342 -32.012   5.758  1.00  0.00     0.016 A 
HETATM   13  C   UNL     1      39.217 -32.554   6.393  1.00  0.00     0.037 A 
HETATM   14  C   UNL     1      38.197 -33.127   5.637  1.00  0.00     0.068 A 
HETATM   15  C   UNL     1      38.322 -33.171   4.246  1.00  0.00     0.037 A 
HETATM   16  C   UNL     1      39.442 -32.624   3.611  1.00  0.00     0.016 A 
BRANCH  14  17
HETATM   17  O   UNL     1      37.045 -33.678   6.127  1.00  0.00    -0.356 OA
HETATM   18  C   UNL     1      37.139 -34.336   7.384  1.00  0.00     0.210 C 
ENDBRANCH  14  17
ENDBRANCH   9  11
ENDBRANCH   1   5
BRANCH   2  19
HETATM   19  N   UNL     1      45.621 -28.232   0.803  1.00  0.00    -0.267 N 
HETATM   20  C   UNL     1      46.911 -28.635   0.541  1.00  0.00     0.236 C 
HETATM   21  O   UNL     1      47.460 -29.551   1.152  1.00  0.00    -0.272 OA
HETATM   22  H   UNL     1      45.105 -27.574   0.221  1.00  0.00     0.190 HD
BRANCH  20  23
HETATM   23  C   UNL     1      47.596 -27.854  -0.553  1.00  0.00     0.109 C 
BRANCH  23  24
HETATM   24  C   UNL     1      47.972 -28.762  -1.720  1.00  0.00     0.048 C 
BRANCH  24  25
HETATM   25  C   UNL     1      46.786 -29.060  -2.604  1.00  0.00    -0.058 A 
HETATM   26  C   UNL     1      45.851 -28.057  -2.905  1.00  0.00     0.010 A 
HETATM   27  C   UNL     1      44.751 -28.340  -3.715  1.00  0.00     0.043 A 
HETATM   28  C   UNL     1      44.582 -29.623  -4.221  1.00  0.00     0.116 A 
HETATM   29  F   UNL     1      43.525 -29.893  -4.998  1.00  0.00    -0.206 F 
HETATM   30  C   UNL     1      45.495 -30.631  -3.933  1.00  0.00     0.043 A 
HETATM   31  C   UNL     1      46.598 -30.350  -3.125  1.00  0.00     0.010 A 
ENDBRANCH  24  25
ENDBRANCH  23  24
ENDBRANCH  20  23
ENDBRANCH   2  19
TORSDOF 7
ENDMDL
MODEL 8
REMARK VINA RESULT:      -7.7      8.916     12.068
REMARK  7 active torsions:
REMARK  status: ('A' for Active; 'I' for Inactive)
REMARK    1  A    between atoms: O_2  and  C_3 
REMARK    2  A    between atoms: C_6  and  C_7 
REMARK    3  A    between atoms: C_11  and  C_12 
REMARK       I    between atoms: C_12  and  N_13 
REMARK    4  A    between atoms: N_13  and  N_14 
REMARK       I    between atoms: N_14  and  C_15 
REMARK    5  A    between atoms: C_15  and  C_16 
REMARK    6  A    between atoms: C_16  and  C_17 
REMARK    7  A    between atoms: C_17  and  C_18 
ROOT
HETATM    1  C   UNL     1      40.935 -11.846   0.469  1.00  0.00     0.288 C 
HETATM    2  N   UNL     1      41.505 -13.024   0.037  1.00  0.00    -0.262 N 
HETATM    3  O   UNL     1      40.616 -11.676   1.645  1.00  0.00    -0.264 OA
HETATM    4  H   UNL     1      41.812 -13.194  -0.919  1.00  0.00     0.190 HD
ENDROOT
BRANCH   1   5
HETATM    5  C   UNL     1      40.755 -10.836  -0.536  1.00  0.00     0.121 A 
HETATM    6  N   UNL     1      39.657 -10.024  -0.548  1.00  0.00    -0.272 N 
HETATM    7  N   UNL     1      39.664  -9.104  -1.522  1.00  0.00    -0.174 NA
HETATM    8  H   UNL     1      38.876 -10.046   0.101  1.00  0.00     0.189 HD
HETATM    9  C   UNL     1      40.802  -9.329  -2.196  1.00  0.00     0.089 A 
HETATM   10  C   UNL     1      41.511 -10.418  -1.614  1.00  0.00     0.071 A 
BRANCH   9  11
HETATM   11  C   UNL     1      41.200  -8.499  -3.336  1.00  0.00    -0.005 A 
HETATM   12  C   UNL     1      40.399  -8.445  -4.486  1.00  0.00     0.016 A 
HETATM   13  C   UNL     1      40.740  -7.622  -5.567  1.00  0.00     0.037 A 
HETATM   14  C   UNL     1      41.893  -6.844  -5.516  1.00  0.00     0.068 A 
HETATM   15  C   UNL     1      42.712  -6.912  -4.386  1.00  0.00     0.037 A 
HETATM   16  C   UNL     1      42.369  -7.728  -3.302  1.00  0.00     0.016 A 
BRANCH  14  17
HETATM   17  O   UNL     1      42.334  -5.993  -6.492  1.00  0.00    -0.356 OA
HETATM   18  C   UNL     1      42.809  -6.591  -7.691  1.00  0.00     0.210 C 
ENDBRANCH  14  17
ENDBRANCH   9  11
ENDBRANCH   1   5
BRANCH   2  19
HETATM   19  N   UNL     1      41.776 -14.027   0.971  1.00  0.00    -0.267 N 
HETATM   20  C   UNL     1      40.940 -15.120   1.012  1.00  0.00     0.236 C 
HETATM   21  O   UNL     1      39.921 -15.206   0.329  1.00  0.00    -0.272 OA
HETATM   22  H   UNL     1      42.689 -13.996   1.422  1.00  0.00     0.190 HD
BRANCH  20  23
HETATM   23  C   UNL     1      41.375 -16.200   1.972  1.00  0.00     0.109 C 
BRANCH  23  24
HETATM   24  C   UNL     1      42.870 -16.477   1.841  1.00  0.00     0.048 C 
BRANCH  24  25
HETATM   25  C   UNL     1      43.311 -17.610   2.734  1.00  0.00    -0.058 A 
HETATM   26  C   UNL     1      43.330 -18.929   2.254  1.00  0.00     0.010 A 
HETATM   27  C   UNL     1      43.730 -19.976   3.087  1.00  0.00     0.043 A 
HETATM   28  C   UNL     1      44.108 -19.705   4.397  1.00  0.00     0.116 A 
HETATM   29  F   UNL     1      44.490 -20.710   5.194  1.00  0.00    -0.206 F 
HETATM   30  C   UNL     1      44.093 -18.406   4.891  1.00  0.00     0.043 A 
HETATM   31  C   UNL     1      43.697 -17.358   4.060  1.00  0.00     0.010 A 
ENDBRANCH  24  25
ENDBRANCH  23  24
ENDBRANCH  20  23
ENDBRANCH   2  19
TORSDOF 7
ENDMDL
MODEL 9
REMARK VINA RESULT:      -7.6      2.595      3.357
REMARK  7 active torsions:
REMARK  status: ('A' for Active; 'I' for Inactive)
REMARK    1  A    between atoms: O_2  and  C_3 
REMARK    2  A    between atoms: C_6  and  C_7 
REMARK    3  A    between atoms: C_11  and  C_12 
REMARK       I    between atoms: C_12  and  N_13 
REMARK    4  A    between atoms: N_13  and  N_14 
REMARK       I    between atoms: N_14  and  C_15 
REMARK    5  A    between atoms: C_15  and  C_16 
REMARK    6  A    between atoms: C_16  and  C_17 
REMARK    7  A    between atoms: C_17  and  C_18 
ROOT
HETATM    1  C   UNL     1      43.526 -12.418   5.931  1.00  0.00     0.288 C 
HETATM    2  N   UNL     1      42.997 -12.612   4.674  1.00  0.00    -0.262 N 
HETATM    3  O   UNL     1      44.246 -13.259   6.467  1.00  0.00    -0.264 OA
HETATM    4  H   UNL     1      42.424 -11.930   4.182  1.00  0.00     0.190 HD
ENDROOT
BRANCH   1   5
HETATM    5  C   UNL     1      43.192 -11.170   6.560  1.00  0.00     0.121 A 
HETATM    6  N   UNL     1      42.418 -10.236   5.935  1.00  0.00    -0.272 N 
HETATM    7  N   UNL     1      42.160  -9.150   6.675  1.00  0.00    -0.174 NA
HETATM    8  H   UNL     1      42.023 -10.298   5.001  1.00  0.00     0.189 HD
HETATM    9  C   UNL     1      42.807  -9.364   7.831  1.00  0.00     0.089 A 
HETATM   10  C   UNL     1      43.478 -10.619   7.794  1.00  0.00     0.071 A 
BRANCH   9  11
HETATM   11  C   UNL     1      42.748  -8.404   8.937  1.00  0.00    -0.005 A 
HETATM   12  C   UNL     1      43.057  -7.054   8.720  1.00  0.00     0.016 A 
HETATM   13  C   UNL     1      42.962  -6.114   9.755  1.00  0.00     0.037 A 
HETATM   14  C   UNL     1      42.561  -6.514  11.027  1.00  0.00     0.068 A 
HETATM   15  C   UNL     1      42.278  -7.862  11.259  1.00  0.00     0.037 A 
HETATM   16  C   UNL     1      42.366  -8.801  10.225  1.00  0.00     0.016 A 
BRANCH  14  17
HETATM   17  O   UNL     1      42.416  -5.702  12.117  1.00  0.00    -0.356 OA
HETATM   18  C   UNL     1      42.269  -4.311  11.860  1.00  0.00     0.210 C 
ENDBRANCH  14  17
ENDBRANCH   9  11
ENDBRANCH   1   5
BRANCH   2  19
HETATM   19  N   UNL     1      43.334 -13.772   3.970  1.00  0.00    -0.267 N 
HETATM   20  C   UNL     1      42.804 -13.947   2.713  1.00  0.00     0.236 C 
HETATM   21  O   UNL     1      41.980 -13.176   2.224  1.00  0.00    -0.272 OA
HETATM   22  H   UNL     1      44.113 -14.317   4.337  1.00  0.00     0.190 HD
BRANCH  20  23
HETATM   23  C   UNL     1      43.312 -15.169   1.988  1.00  0.00     0.109 C 
BRANCH  23  24
HETATM   24  C   UNL     1      42.356 -16.345   2.165  1.00  0.00     0.048 C 
BRANCH  24  25
HETATM   25  C   UNL     1      43.004 -17.489   2.905  1.00  0.00    -0.058 A 
HETATM   26  C   UNL     1      43.180 -18.734   2.280  1.00  0.00     0.010 A 
HETATM   27  C   UNL     1      43.771 -19.792   2.972  1.00  0.00     0.043 A 
HETATM   28  C   UNL     1      44.182 -19.608   4.287  1.00  0.00     0.116 A 
HETATM   29  F   UNL     1      44.748 -20.625   4.950  1.00  0.00    -0.206 F 
HETATM   30  C   UNL     1      44.014 -18.385   4.924  1.00  0.00     0.043 A 
HETATM   31  C   UNL     1      43.426 -17.324   4.233  1.00  0.00     0.010 A 
ENDBRANCH  24  25
ENDBRANCH  23  24
ENDBRANCH  20  23
ENDBRANCH   2  19
TORSDOF 7
ENDMDL
MODEL 10
REMARK VINA RESULT:      -7.6     18.721     20.316
REMARK  7 active torsions:
REMARK  status: ('A' for Active; 'I' for Inactive)
REMARK    1  A    between atoms: O_2  and  C_3 
REMARK    2  A    between atoms: C_6  and  C_7 
REMARK    3  A    between atoms: C_11  and  C_12 
REMARK       I    between atoms: C_12  and  N_13 
REMARK    4  A    between atoms: N_13  and  N_14 
REMARK       I    between atoms: N_14  and  C_15 
REMARK    5  A    between atoms: C_15  and  C_16 
REMARK    6  A    between atoms: C_16  and  C_17 
REMARK    7  A    between atoms: C_17  and  C_18 
ROOT
HETATM    1  C   UNL     1      43.106 -29.999   2.397  1.00  0.00     0.288 C 
HETATM    2  N   UNL     1      44.169 -29.307   2.935  1.00  0.00    -0.262 N 
HETATM    3  O   UNL     1      42.857 -29.968   1.192  1.00  0.00    -0.264 OA
HETATM    4  H   UNL     1      44.427 -29.330   3.919  1.00  0.00     0.190 HD
ENDROOT
BRANCH   1   5
HETATM    5  C   UNL     1      42.324 -30.762   3.329  1.00  0.00     0.121 A 
HETATM    6  N   UNL     1      42.831 -31.162   4.532  1.00  0.00    -0.272 N 
HETATM    7  N   UNL     1      41.960 -31.824   5.305  1.00  0.00    -0.174 NA
HETATM    8  H   UNL     1      43.770 -30.994   4.885  1.00  0.00     0.189 HD
HETATM    9  C   UNL     1      40.835 -31.883   4.576  1.00  0.00     0.089 A 
HETATM   10  C   UNL     1      41.027 -31.237   3.322  1.00  0.00     0.071 A 
BRANCH   9  11
HETATM   11  C   UNL     1      39.615 -32.512   5.090  1.00  0.00    -0.005 A 
HETATM   12  C   UNL     1      39.458 -32.734   6.465  1.00  0.00     0.016 A 
HETATM   13  C   UNL     1      38.281 -33.293   6.979  1.00  0.00     0.037 A 
HETATM   14  C   UNL     1      37.242 -33.644   6.120  1.00  0.00     0.068 A 
HETATM   15  C   UNL     1      37.400 -33.452   4.746  1.00  0.00     0.037 A 
HETATM   16  C   UNL     1      38.573 -32.888   4.232  1.00  0.00     0.016 A 
BRANCH  14  17
HETATM   17  O   UNL     1      36.041 -34.184   6.489  1.00  0.00    -0.356 OA
HETATM   18  C   UNL     1      35.974 -34.760   7.788  1.00  0.00     0.210 C 
ENDBRANCH  14  17
ENDBRANCH   9  11
ENDBRANCH   1   5
BRANCH   2  19
HETATM   19  N   UNL     1      45.016 -28.597   2.079  1.00  0.00    -0.267 N 
HETATM   20  C   UNL     1      46.334 -28.985   2.002  1.00  0.00     0.236 C 
HETATM   21  O   UNL     1      46.814 -29.863   2.716  1.00  0.00    -0.272 OA
HETATM   22  H   UNL     1      44.569 -27.974   1.409  1.00  0.00     0.190 HD
BRANCH  20  23
HETATM   23  C   UNL     1      47.143 -28.235   0.971  1.00  0.00     0.109 C 
BRANCH  23  24
HETATM   24  C   UNL     1      47.443 -29.118  -0.236  1.00  0.00     0.048 C 
BRANCH  24  25
HETATM   25  C   UNL     1      46.299 -29.132  -1.220  1.00  0.00    -0.058 A 
HETATM   26  C   UNL     1      45.384 -30.196  -1.234  1.00  0.00     0.010 A 
HETATM   27  C   UNL     1      44.333 -30.209  -2.153  1.00  0.00     0.043 A 
HETATM   28  C   UNL     1      44.198 -29.163  -3.057  1.00  0.00     0.116 A 
HETATM   29  F   UNL     1      43.190 -29.177  -3.938  1.00  0.00    -0.206 F 
HETATM   30  C   UNL     1      45.095 -28.101  -3.060  1.00  0.00     0.043 A 
HETATM   31  C   UNL     1      46.145 -28.084  -2.141  1.00  0.00     0.010 A 
ENDBRANCH  24  25
ENDBRANCH  23  24
ENDBRANCH  20  23
ENDBRANCH   2  19
TORSDOF 7
ENDMDL
