MODEL 1
REMARK VINA RESULT:      -8.8      0.000      0.000
REMARK  4 active torsions:
REMARK  status: ('A' for Active; 'I' for Inactive)
REMARK    1  A    between atoms: O_2  and  C_3 
REMARK    2  A    between atoms: C_7  and  C_8 
REMARK       I    between atoms: C_8  and  N_9 
REMARK    3  A    between atoms: N_9  and  C_10 
REMARK    4  A    between atoms: C_12  and  C_13 
ROOT
HETATM    1  C   UNL     1      42.519 -13.794   5.646  1.00  0.00     0.254 C 
HETATM    2  N   UNL     1      43.352 -14.183   4.617  1.00  0.00    -0.323 N 
HETATM    3  O   UNL     1      41.558 -14.422   6.076  1.00  0.00    -0.268 OA
HETATM    4  H   UNL     1      44.144 -13.589   4.412  1.00  0.00     0.169 HD
ENDROOT
BRANCH   1   5
HETATM    5  C   UNL     1      42.912 -12.514   6.320  1.00  0.00     0.035 C 
HETATM    6  C   UNL     1      44.131 -12.282   6.828  1.00  0.00     0.029 C 
HETATM    7  C   UNL     1      44.353 -11.006   7.500  1.00  0.00     0.001 A 
HETATM    8  C   UNL     1      43.407  -9.980   7.389  1.00  0.00     0.112 A 
HETATM    9  C   UNL     1      45.520 -10.791   8.241  1.00  0.00     0.014 A 
HETATM   10  C   UNL     1      43.636  -8.730   7.989  1.00  0.00     0.102 A 
HETATM   11  O   UNL     1      42.259 -10.128   6.654  1.00  0.00    -0.343 OA
HETATM   12  C   UNL     1      44.798  -8.535   8.740  1.00  0.00     0.040 A 
HETATM   13  C   UNL     1      45.735  -9.563   8.867  1.00  0.00     0.004 A 
HETATM   14  C   UNL     1      41.832 -11.467   6.358  1.00  0.00     0.220 C 
BRANCH  10  15
HETATM   15  O   UNL     1      42.661  -7.780   7.808  1.00  0.00    -0.353 OA
HETATM   16  C   UNL     1      42.635  -6.699   8.730  1.00  0.00     0.210 C 
ENDBRANCH  10  15
ENDBRANCH   1   5
BRANCH   2  17
HETATM   17  C   UNL     1      43.264 -15.353   3.830  1.00  0.00     0.035 A 
HETATM   18  C   UNL     1      43.516 -16.644   4.308  1.00  0.00     0.042 A 
HETATM   19  C   UNL     1      43.441 -17.765   3.462  1.00  0.00    -0.021 A 
HETATM   20  C   UNL     1      43.080 -17.570   2.122  1.00  0.00     0.012 A 
HETATM   21  C   UNL     1      42.814 -16.290   1.637  1.00  0.00     0.003 A 
HETATM   22  C   UNL     1      42.913 -15.187   2.486  1.00  0.00     0.029 A 
BRANCH  19  23
HETATM   23  C   UNL     1      43.743 -19.107   3.949  1.00  0.00     0.010 A 
HETATM   24  C   UNL     1      44.025 -19.579   5.255  1.00  0.00     0.152 A 
HETATM   25  N   UNL     1      44.230 -20.898   5.303  1.00  0.00    -0.187 NA
HETATM   26  N   UNL     1      44.082 -21.282   4.025  1.00  0.00    -0.289 N 
HETATM   27  H   UNL     1      44.192 -22.264   3.800  1.00  0.00     0.188 HD
HETATM   28  C   UNL     1      43.786 -20.251   3.179  1.00  0.00     0.123 A 
ENDBRANCH  19  23
ENDBRANCH   2  17
TORSDOF 4
ENDMDL
MODEL 2
REMARK VINA RESULT:      -8.7      3.265      9.485
REMARK  4 active torsions:
REMARK  status: ('A' for Active; 'I' for Inactive)
REMARK    1  A    between atoms: O_2  and  C_3 
REMARK    2  A    between atoms: C_7  and  C_8 
REMARK       I    between atoms: C_8  and  N_9 
REMARK    3  A    between atoms: N_9  and  C_10 
REMARK    4  A    between atoms: C_12  and  C_13 
ROOT
HETATM    1  C   UNL     1      43.395 -13.119   6.243  1.00  0.00     0.254 C 
HETATM    2  N   UNL     1      44.546 -12.749   6.907  1.00  0.00    -0.323 N 
HETATM    3  O   UNL     1      42.385 -12.438   6.108  1.00  0.00    -0.268 OA
HETATM    4  H   UNL     1      45.323 -13.395   6.884  1.00  0.00     0.169 HD
ENDROOT
BRANCH   1   5
HETATM    5  C   UNL     1      43.461 -14.461   5.575  1.00  0.00     0.035 C 
HETATM    6  C   UNL     1      43.041 -14.692   4.323  1.00  0.00     0.029 C 
HETATM    7  C   UNL     1      43.122 -16.061   3.824  1.00  0.00     0.001 A 
HETATM    8  C   UNL     1      43.842 -17.027   4.537  1.00  0.00     0.112 A 
HETATM    9  C   UNL     1      42.501 -16.411   2.621  1.00  0.00     0.014 A 
HETATM   10  C   UNL     1      43.970 -18.334   4.037  1.00  0.00     0.102 A 
HETATM   11  O   UNL     1      44.492 -16.730   5.707  1.00  0.00    -0.343 OA
HETATM   12  C   UNL     1      43.330 -18.675   2.843  1.00  0.00     0.040 A 
HETATM   13  C   UNL     1      42.597 -17.717   2.139  1.00  0.00     0.004 A 
HETATM   14  C   UNL     1      44.078 -15.549   6.412  1.00  0.00     0.220 C 
BRANCH  10  15
HETATM   15  O   UNL     1      44.711 -19.206   4.796  1.00  0.00    -0.353 OA
HETATM   16  C   UNL     1      44.078 -20.414   5.194  1.00  0.00     0.210 C 
ENDBRANCH  10  15
ENDBRANCH   1   5
BRANCH   2  17
HETATM   17  C   UNL     1      44.798 -11.537   7.588  1.00  0.00     0.035 A 
HETATM   18  C   UNL     1      43.998 -11.033   8.619  1.00  0.00     0.042 A 
HETATM   19  C   UNL     1      44.287  -9.801   9.235  1.00  0.00    -0.021 A 
HETATM   20  C   UNL     1      45.419  -9.091   8.812  1.00  0.00     0.012 A 
HETATM   21  C   UNL     1      46.231  -9.590   7.794  1.00  0.00     0.003 A 
HETATM   22  C   UNL     1      45.917 -10.802   7.181  1.00  0.00     0.029 A 
BRANCH  19  23
HETATM   23  C   UNL     1      43.431  -9.255  10.282  1.00  0.00     0.010 A 
HETATM   24  C   UNL     1      43.726  -8.854  11.608  1.00  0.00     0.152 A 
HETATM   25  N   UNL     1      42.663  -8.376  12.261  1.00  0.00    -0.187 NA
HETATM   26  N   UNL     1      41.676  -8.469  11.356  1.00  0.00    -0.289 N 
HETATM   27  H   UNL     1      40.747  -8.160  11.621  1.00  0.00     0.188 HD
HETATM   28  C   UNL     1      42.084  -8.983  10.158  1.00  0.00     0.123 A 
ENDBRANCH  19  23
ENDBRANCH   2  17
TORSDOF 4
ENDMDL
MODEL 3
REMARK VINA RESULT:      -8.4      5.459      9.273
REMARK  4 active torsions:
REMARK  status: ('A' for Active; 'I' for Inactive)
REMARK    1  A    between atoms: O_2  and  C_3 
REMARK    2  A    between atoms: C_7  and  C_8 
REMARK       I    between atoms: C_8  and  N_9 
REMARK    3  A    between atoms: N_9  and  C_10 
REMARK    4  A    between atoms: C_12  and  C_13 
ROOT
HETATM    1  C   UNL     1      40.678 -14.441   1.447  1.00  0.00     0.254 C 
HETATM    2  N   UNL     1      40.931 -14.473   0.091  1.00  0.00    -0.323 N 
HETATM    3  O   UNL     1      39.791 -13.803   2.004  1.00  0.00    -0.268 OA
HETATM    4  H   UNL     1      41.660 -15.094  -0.230  1.00  0.00     0.169 HD
ENDROOT
BRANCH   1   5
HETATM    5  C   UNL     1      41.547 -15.346   2.268  1.00  0.00     0.035 C 
HETATM    6  C   UNL     1      42.082 -16.486   1.807  1.00  0.00     0.029 C 
HETATM    7  C   UNL     1      42.868 -17.289   2.738  1.00  0.00     0.001 A 
HETATM    8  C   UNL     1      43.249 -16.758   3.975  1.00  0.00     0.112 A 
HETATM    9  C   UNL     1      43.263 -18.586   2.391  1.00  0.00     0.014 A 
HETATM   10  C   UNL     1      44.050 -17.505   4.857  1.00  0.00     0.102 A 
HETATM   11  O   UNL     1      42.911 -15.485   4.353  1.00  0.00    -0.343 OA
HETATM   12  C   UNL     1      44.423 -18.805   4.505  1.00  0.00     0.040 A 
HETATM   13  C   UNL     1      44.029 -19.344   3.278  1.00  0.00     0.004 A 
HETATM   14  C   UNL     1      41.816 -14.860   3.667  1.00  0.00     0.220 C 
BRANCH  10  15
HETATM   15  O   UNL     1      44.390 -16.894   6.037  1.00  0.00    -0.353 OA
HETATM   16  C   UNL     1      43.657 -17.273   7.194  1.00  0.00     0.210 C 
ENDBRANCH  10  15
ENDBRANCH   1   5
BRANCH   2  17
HETATM   17  C   UNL     1      40.254 -13.769  -0.930  1.00  0.00     0.035 A 
HETATM   18  C   UNL     1      40.598 -12.484  -1.362  1.00  0.00     0.042 A 
HETATM   19  C   UNL     1      39.861 -11.826  -2.363  1.00  0.00    -0.021 A 
HETATM   20  C   UNL     1      38.779 -12.497  -2.948  1.00  0.00     0.012 A 
HETATM   21  C   UNL     1      38.433 -13.783  -2.535  1.00  0.00     0.003 A 
HETATM   22  C   UNL     1      39.163 -14.412  -1.526  1.00  0.00     0.029 A 
BRANCH  19  23
HETATM   23  C   UNL     1      40.195 -10.470  -2.786  1.00  0.00     0.010 A 
HETATM   24  C   UNL     1      39.701  -9.682  -3.855  1.00  0.00     0.152 A 
HETATM   25  N   UNL     1      40.245  -8.463  -3.903  1.00  0.00    -0.187 NA
HETATM   26  N   UNL     1      41.095  -8.461  -2.864  1.00  0.00    -0.289 N 
HETATM   27  H   UNL     1      41.639  -7.624  -2.686  1.00  0.00     0.188 HD
HETATM   28  C   UNL     1      41.098  -9.633  -2.163  1.00  0.00     0.123 A 
ENDBRANCH  19  23
ENDBRANCH   2  17
TORSDOF 4
ENDMDL
MODEL 4
REMARK VINA RESULT:      -8.3      4.882      8.154
REMARK  4 active torsions:
REMARK  status: ('A' for Active; 'I' for Inactive)
REMARK    1  A    between atoms: O_2  and  C_3 
REMARK    2  A    between atoms: C_7  and  C_8 
REMARK       I    between atoms: C_8  and  N_9 
REMARK    3  A    between atoms: N_9  and  C_10 
REMARK    4  A    between atoms: C_12  and  C_13 
ROOT
HETATM    1  C   UNL     1      41.727 -14.483   1.632  1.00  0.00     0.254 C 
HETATM    2  N   UNL     1      41.654 -15.829   1.927  1.00  0.00    -0.323 N 
HETATM    3  O   UNL     1      42.492 -13.671   2.140  1.00  0.00    -0.268 OA
HETATM    4  H   UNL     1      41.014 -16.389   1.382  1.00  0.00     0.169 HD
ENDROOT
BRANCH   1   5
HETATM    5  C   UNL     1      40.819 -14.034   0.527  1.00  0.00     0.035 C 
HETATM    6  C   UNL     1      40.135 -14.873  -0.264  1.00  0.00     0.029 C 
HETATM    7  C   UNL     1      39.328 -14.291  -1.331  1.00  0.00     0.001 A 
HETATM    8  C   UNL     1      39.085 -12.912  -1.356  1.00  0.00     0.112 A 
HETATM    9  C   UNL     1      38.773 -15.107  -2.323  1.00  0.00     0.014 A 
HETATM   10  C   UNL     1      38.265 -12.349  -2.349  1.00  0.00     0.102 A 
HETATM   11  O   UNL     1      39.582 -12.071  -0.394  1.00  0.00    -0.343 OA
HETATM   12  C   UNL     1      37.732 -13.174  -3.343  1.00  0.00     0.040 A 
HETATM   13  C   UNL     1      37.987 -14.547  -3.330  1.00  0.00     0.004 A 
HETATM   14  C   UNL     1      40.694 -12.540   0.384  1.00  0.00     0.220 C 
BRANCH  10  15
HETATM   15  O   UNL     1      38.069 -10.992  -2.280  1.00  0.00    -0.353 OA
HETATM   16  C   UNL     1      36.736 -10.542  -2.085  1.00  0.00     0.210 C 
ENDBRANCH  10  15
ENDBRANCH   1   5
BRANCH   2  17
HETATM   17  C   UNL     1      42.411 -16.546   2.881  1.00  0.00     0.035 A 
HETATM   18  C   UNL     1      42.485 -16.215   4.238  1.00  0.00     0.042 A 
HETATM   19  C   UNL     1      43.284 -16.953   5.129  1.00  0.00    -0.021 A 
HETATM   20  C   UNL     1      43.993 -18.056   4.636  1.00  0.00     0.012 A 
HETATM   21  C   UNL     1      43.917 -18.405   3.287  1.00  0.00     0.003 A 
HETATM   22  C   UNL     1      43.136 -17.648   2.414  1.00  0.00     0.029 A 
BRANCH  19  23
HETATM   23  C   UNL     1      43.394 -16.584   6.536  1.00  0.00     0.010 A 
HETATM   24  C   UNL     1      42.930 -15.443   7.236  1.00  0.00     0.152 A 
HETATM   25  N   UNL     1      43.208 -15.479   8.542  1.00  0.00    -0.187 NA
HETATM   26  N   UNL     1      43.857 -16.645   8.689  1.00  0.00    -0.289 N 
HETATM   27  H   UNL     1      44.180 -16.905   9.614  1.00  0.00     0.188 HD
HETATM   28  C   UNL     1      43.989 -17.343   7.523  1.00  0.00     0.123 A 
ENDBRANCH  19  23
ENDBRANCH   2  17
TORSDOF 4
ENDMDL
MODEL 5
REMARK VINA RESULT:      -8.2      5.489      9.279
REMARK  4 active torsions:
REMARK  status: ('A' for Active; 'I' for Inactive)
REMARK    1  A    between atoms: O_2  and  C_3 
REMARK    2  A    between atoms: C_7  and  C_8 
REMARK       I    between atoms: C_8  and  N_9 
REMARK    3  A    between atoms: N_9  and  C_10 
REMARK    4  A    between atoms: C_12  and  C_13 
ROOT
HETATM    1  C   UNL     1      40.234 -14.622   1.445  1.00  0.00     0.254 C 
HETATM    2  N   UNL     1      40.278 -14.866   0.088  1.00  0.00    -0.323 N 
HETATM    3  O   UNL     1      39.450 -13.877   2.022  1.00  0.00    -0.268 OA
HETATM    4  H   UNL     1      40.942 -15.554  -0.237  1.00  0.00     0.169 HD
ENDROOT
BRANCH   1   5
HETATM    5  C   UNL     1      41.206 -15.424   2.258  1.00  0.00     0.035 C 
HETATM    6  C   UNL     1      41.830 -16.521   1.805  1.00  0.00     0.029 C 
HETATM    7  C   UNL     1      42.713 -17.227   2.728  1.00  0.00     0.001 A 
HETATM    8  C   UNL     1      43.080 -16.633   3.942  1.00  0.00     0.112 A 
HETATM    9  C   UNL     1      43.216 -18.490   2.398  1.00  0.00     0.014 A 
HETATM   10  C   UNL     1      43.972 -17.282   4.813  1.00  0.00     0.102 A 
HETATM   11  O   UNL     1      42.638 -15.386   4.302  1.00  0.00    -0.343 OA
HETATM   12  C   UNL     1      44.452 -18.551   4.478  1.00  0.00     0.040 A 
HETATM   13  C   UNL     1      44.074 -19.152   3.276  1.00  0.00     0.004 A 
HETATM   14  C   UNL     1      41.470 -14.881   3.638  1.00  0.00     0.220 C 
BRANCH  10  15
HETATM   15  O   UNL     1      44.288 -16.613   5.969  1.00  0.00    -0.353 OA
HETATM   16  C   UNL     1      43.669 -17.064   7.166  1.00  0.00     0.210 C 
ENDBRANCH  10  15
ENDBRANCH   1   5
BRANCH   2  17
HETATM   17  C   UNL     1      39.463 -14.300  -0.918  1.00  0.00     0.035 A 
HETATM   18  C   UNL     1      39.005 -12.978  -0.909  1.00  0.00     0.042 A 
HETATM   19  C   UNL     1      38.168 -12.486  -1.927  1.00  0.00    -0.021 A 
HETATM   20  C   UNL     1      37.818 -13.344  -2.978  1.00  0.00     0.012 A 
HETATM   21  C   UNL     1      38.278 -14.661  -3.004  1.00  0.00     0.003 A 
HETATM   22  C   UNL     1      39.090 -15.137  -1.975  1.00  0.00     0.029 A 
BRANCH  19  23
HETATM   23  C   UNL     1      37.658 -11.120  -1.898  1.00  0.00     0.010 A 
HETATM   24  C   UNL     1      37.276 -10.294  -0.812  1.00  0.00     0.152 A 
HETATM   25  N   UNL     1      36.876  -9.078  -1.193  1.00  0.00    -0.187 NA
HETATM   26  N   UNL     1      36.997  -9.117  -2.530  1.00  0.00    -0.289 N 
HETATM   27  H   UNL     1      36.747  -8.290  -3.061  1.00  0.00     0.188 HD
HETATM   28  C   UNL     1      37.464 -10.311  -2.999  1.00  0.00     0.123 A 
ENDBRANCH  19  23
ENDBRANCH   2  17
TORSDOF 4
ENDMDL
MODEL 6
REMARK VINA RESULT:      -8.0      4.315      7.240
REMARK  4 active torsions:
REMARK  status: ('A' for Active; 'I' for Inactive)
REMARK    1  A    between atoms: O_2  and  C_3 
REMARK    2  A    between atoms: C_7  and  C_8 
REMARK       I    between atoms: C_8  and  N_9 
REMARK    3  A    between atoms: N_9  and  C_10 
REMARK    4  A    between atoms: C_12  and  C_13 
ROOT
HETATM    1  C   UNL     1      43.495 -10.241  10.733  1.00  0.00     0.254 C 
HETATM    2  N   UNL     1      43.590  -9.726   9.457  1.00  0.00    -0.323 N 
HETATM    3  O   UNL     1      44.031 -11.264  11.143  1.00  0.00    -0.268 OA
HETATM    4  H   UNL     1      43.142  -8.838   9.281  1.00  0.00     0.169 HD
ENDROOT
BRANCH   1   5
HETATM    5  C   UNL     1      42.716  -9.393  11.694  1.00  0.00     0.035 C 
HETATM    6  C   UNL     1      43.281  -8.565  12.586  1.00  0.00     0.029 C 
HETATM    7  C   UNL     1      42.395  -7.840  13.490  1.00  0.00     0.001 A 
HETATM    8  C   UNL     1      41.014  -7.823  13.258  1.00  0.00     0.112 A 
HETATM    9  C   UNL     1      42.920  -7.139  14.581  1.00  0.00     0.014 A 
HETATM   10  C   UNL     1      40.159  -7.084  14.094  1.00  0.00     0.102 A 
HETATM   11  O   UNL     1      40.451  -8.471  12.190  1.00  0.00    -0.343 OA
HETATM   12  C   UNL     1      40.696  -6.403  15.190  1.00  0.00     0.040 A 
HETATM   13  C   UNL     1      42.071  -6.432  15.433  1.00  0.00     0.004 A 
HETATM   14  C   UNL     1      41.221  -9.508  11.564  1.00  0.00     0.220 C 
BRANCH  10  15
HETATM   15  O   UNL     1      38.824  -7.112  13.776  1.00  0.00    -0.353 OA
HETATM   16  C   UNL     1      38.122  -5.878  13.831  1.00  0.00     0.210 C 
ENDBRANCH  10  15
ENDBRANCH   1   5
BRANCH   2  17
HETATM   17  C   UNL     1      44.288 -10.272   8.356  1.00  0.00     0.035 A 
HETATM   18  C   UNL     1      43.673 -10.871   7.252  1.00  0.00     0.042 A 
HETATM   19  C   UNL     1      44.429 -11.424   6.202  1.00  0.00    -0.021 A 
HETATM   20  C   UNL     1      45.826 -11.340   6.268  1.00  0.00     0.012 A 
HETATM   21  C   UNL     1      46.451 -10.733   7.358  1.00  0.00     0.003 A 
HETATM   22  C   UNL     1      45.686 -10.209   8.399  1.00  0.00     0.029 A 
BRANCH  19  23
HETATM   23  C   UNL     1      43.790 -12.085   5.070  1.00  0.00     0.010 A 
HETATM   24  C   UNL     1      43.003 -13.262   5.004  1.00  0.00     0.152 A 
HETATM   25  N   UNL     1      42.571 -13.535   3.771  1.00  0.00    -0.187 NA
HETATM   26  N   UNL     1      43.079 -12.535   3.035  1.00  0.00    -0.289 N 
HETATM   27  H   UNL     1      42.885 -12.520   2.040  1.00  0.00     0.188 HD
HETATM   28  C   UNL     1      43.810 -11.641   3.764  1.00  0.00     0.123 A 
ENDBRANCH  19  23
ENDBRANCH   2  17
TORSDOF 4
ENDMDL
MODEL 7
REMARK VINA RESULT:      -8.0      1.895      2.602
REMARK  4 active torsions:
REMARK  status: ('A' for Active; 'I' for Inactive)
REMARK    1  A    between atoms: O_2  and  C_3 
REMARK    2  A    between atoms: C_7  and  C_8 
REMARK       I    between atoms: C_8  and  N_9 
REMARK    3  A    between atoms: N_9  and  C_10 
REMARK    4  A    between atoms: C_12  and  C_13 
ROOT
HETATM    1  C   UNL     1      43.742 -11.994   4.945  1.00  0.00     0.254 C 
HETATM    2  N   UNL     1      43.096 -13.213   4.968  1.00  0.00    -0.323 N 
HETATM    3  O   UNL     1      44.317 -11.497   3.983  1.00  0.00    -0.268 OA
HETATM    4  H   UNL     1      42.612 -13.465   5.818  1.00  0.00     0.169 HD
ENDROOT
BRANCH   1   5
HETATM    5  C   UNL     1      43.639 -11.206   6.217  1.00  0.00     0.035 C 
HETATM    6  C   UNL     1      42.868 -10.118   6.360  1.00  0.00     0.029 C 
HETATM    7  C   UNL     1      42.908  -9.425   7.643  1.00  0.00     0.001 A 
HETATM    8  C   UNL     1      43.529 -10.024   8.746  1.00  0.00     0.112 A 
HETATM    9  C   UNL     1      42.308  -8.170   7.787  1.00  0.00     0.014 A 
HETATM   10  C   UNL     1      43.526  -9.388   9.999  1.00  0.00     0.102 A 
HETATM   11  O   UNL     1      44.109 -11.264   8.667  1.00  0.00    -0.343 OA
HETATM   12  C   UNL     1      42.939  -8.126  10.124  1.00  0.00     0.040 A 
HETATM   13  C   UNL     1      42.334  -7.519   9.020  1.00  0.00     0.004 A 
HETATM   14  C   UNL     1      44.451 -11.752   7.361  1.00  0.00     0.220 C 
BRANCH  10  15
HETATM   15  O   UNL     1      44.142 -10.061  11.025  1.00  0.00    -0.353 OA
HETATM   16  C   UNL     1      43.302 -10.630  12.019  1.00  0.00     0.210 C 
ENDBRANCH  10  15
ENDBRANCH   1   5
BRANCH   2  17
HETATM   17  C   UNL     1      42.982 -14.149   3.916  1.00  0.00     0.035 A 
HETATM   18  C   UNL     1      43.236 -15.518   4.050  1.00  0.00     0.042 A 
HETATM   19  C   UNL     1      43.135 -16.393   2.952  1.00  0.00    -0.021 A 
HETATM   20  C   UNL     1      42.743 -15.869   1.713  1.00  0.00     0.012 A 
HETATM   21  C   UNL     1      42.475 -14.508   1.570  1.00  0.00     0.003 A 
HETATM   22  C   UNL     1      42.601 -13.652   2.664  1.00  0.00     0.029 A 
BRANCH  19  23
HETATM   23  C   UNL     1      43.439 -17.814   3.082  1.00  0.00     0.010 A 
HETATM   24  C   UNL     1      44.098 -18.533   4.109  1.00  0.00     0.152 A 
HETATM   25  N   UNL     1      44.164 -19.846   3.871  1.00  0.00    -0.187 NA
HETATM   26  N   UNL     1      43.547 -19.977   2.686  1.00  0.00    -0.289 N 
HETATM   27  H   UNL     1      43.467 -20.905   2.284  1.00  0.00     0.188 HD
HETATM   28  C   UNL     1      43.092 -18.795   2.176  1.00  0.00     0.123 A 
ENDBRANCH  19  23
ENDBRANCH   2  17
TORSDOF 4
ENDMDL
MODEL 8
REMARK VINA RESULT:      -7.9      5.553      9.152
REMARK  4 active torsions:
REMARK  status: ('A' for Active; 'I' for Inactive)
REMARK    1  A    between atoms: O_2  and  C_3 
REMARK    2  A    between atoms: C_7  and  C_8 
REMARK       I    between atoms: C_8  and  N_9 
REMARK    3  A    between atoms: N_9  and  C_10 
REMARK    4  A    between atoms: C_12  and  C_13 
ROOT
HETATM    1  C   UNL     1      40.759 -13.700   1.634  1.00  0.00     0.254 C 
HETATM    2  N   UNL     1      41.237 -13.334   0.393  1.00  0.00    -0.323 N 
HETATM    3  O   UNL     1      39.719 -13.312   2.154  1.00  0.00    -0.268 OA
HETATM    4  H   UNL     1      42.081 -13.784   0.070  1.00  0.00     0.169 HD
ENDROOT
BRANCH   1   5
HETATM    5  C   UNL     1      41.586 -14.730   2.345  1.00  0.00     0.035 C 
HETATM    6  C   UNL     1      41.974 -15.887   1.791  1.00  0.00     0.029 C 
HETATM    7  C   UNL     1      42.735 -16.814   2.622  1.00  0.00     0.001 A 
HETATM    8  C   UNL     1      43.248 -16.393   3.855  1.00  0.00     0.112 A 
HETATM    9  C   UNL     1      42.975 -18.121   2.184  1.00  0.00     0.014 A 
HETATM   10  C   UNL     1      44.026 -17.263   4.638  1.00  0.00     0.102 A 
HETATM   11  O   UNL     1      43.064 -15.117   4.319  1.00  0.00    -0.343 OA
HETATM   12  C   UNL     1      44.244 -18.570   4.196  1.00  0.00     0.040 A 
HETATM   13  C   UNL     1      43.718 -18.998   2.974  1.00  0.00     0.004 A 
HETATM   14  C   UNL     1      41.993 -14.352   3.744  1.00  0.00     0.220 C 
BRANCH  10  15
HETATM   15  O   UNL     1      44.502 -16.755   5.821  1.00  0.00    -0.353 OA
HETATM   16  C   UNL     1      43.847 -17.170   7.011  1.00  0.00     0.210 C 
ENDBRANCH  10  15
ENDBRANCH   1   5
BRANCH   2  17
HETATM   17  C   UNL     1      40.657 -12.427  -0.522  1.00  0.00     0.035 A 
HETATM   18  C   UNL     1      39.381 -12.576  -1.076  1.00  0.00     0.042 A 
HETATM   19  C   UNL     1      38.875 -11.651  -2.008  1.00  0.00    -0.021 A 
HETATM   20  C   UNL     1      39.668 -10.550  -2.356  1.00  0.00     0.012 A 
HETATM   21  C   UNL     1      40.937 -10.383  -1.800  1.00  0.00     0.003 A 
HETATM   22  C   UNL     1      41.430 -11.321  -0.894  1.00  0.00     0.029 A 
BRANCH  19  23
HETATM   23  C   UNL     1      37.561 -11.827  -2.617  1.00  0.00     0.010 A 
HETATM   24  C   UNL     1      36.571 -10.881  -2.980  1.00  0.00     0.152 A 
HETATM   25  N   UNL     1      35.495 -11.438  -3.542  1.00  0.00    -0.187 NA
HETATM   26  N   UNL     1      35.788 -12.748  -3.543  1.00  0.00    -0.289 N 
HETATM   27  H   UNL     1      35.108 -13.394  -3.929  1.00  0.00     0.188 HD
HETATM   28  C   UNL     1      37.011 -13.031  -3.006  1.00  0.00     0.123 A 
ENDBRANCH  19  23
ENDBRANCH   2  17
TORSDOF 4
ENDMDL
MODEL 9
REMARK VINA RESULT:      -7.8      1.840      2.677
REMARK  4 active torsions:
REMARK  status: ('A' for Active; 'I' for Inactive)
REMARK    1  A    between atoms: O_2  and  C_3 
REMARK    2  A    between atoms: C_7  and  C_8 
REMARK       I    between atoms: C_8  and  N_9 
REMARK    3  A    between atoms: N_9  and  C_10 
REMARK    4  A    between atoms: C_12  and  C_13 
ROOT
HETATM    1  C   UNL     1      44.066 -11.833   6.688  1.00  0.00     0.254 C 
HETATM    2  N   UNL     1      43.031 -12.649   6.281  1.00  0.00    -0.323 N 
HETATM    3  O   UNL     1      45.217 -11.858   6.266  1.00  0.00    -0.268 OA
HETATM    4  H   UNL     1      42.118 -12.471   6.675  1.00  0.00     0.169 HD
ENDROOT
BRANCH   1   5
HETATM    5  C   UNL     1      43.681 -10.783   7.686  1.00  0.00     0.035 C 
HETATM    6  C   UNL     1      44.237 -10.669   8.901  1.00  0.00     0.029 C 
HETATM    7  C   UNL     1      43.724  -9.627   9.785  1.00  0.00     0.001 A 
HETATM    8  C   UNL     1      42.871  -8.637   9.283  1.00  0.00     0.112 A 
HETATM    9  C   UNL     1      44.099  -9.597  11.132  1.00  0.00     0.014 A 
HETATM   10  C   UNL     1      42.415  -7.599  10.114  1.00  0.00     0.102 A 
HETATM   11  O   UNL     1      42.494  -8.605   7.965  1.00  0.00    -0.343 OA
HETATM   12  C   UNL     1      42.783  -7.592  11.462  1.00  0.00     0.040 A 
HETATM   13  C   UNL     1      43.620  -8.588  11.969  1.00  0.00     0.004 A 
HETATM   14  C   UNL     1      42.629  -9.818   7.209  1.00  0.00     0.220 C 
BRANCH  10  15
HETATM   15  O   UNL     1      41.599  -6.664   9.528  1.00  0.00    -0.353 OA
HETATM   16  C   UNL     1      40.243  -6.636   9.950  1.00  0.00     0.210 C 
ENDBRANCH  10  15
ENDBRANCH   1   5
BRANCH   2  17
HETATM   17  C   UNL     1      43.076 -13.691   5.327  1.00  0.00     0.035 A 
HETATM   18  C   UNL     1      43.259 -15.041   5.645  1.00  0.00     0.042 A 
HETATM   19  C   UNL     1      43.327 -16.026   4.642  1.00  0.00    -0.021 A 
HETATM   20  C   UNL     1      43.180 -15.632   3.306  1.00  0.00     0.012 A 
HETATM   21  C   UNL     1      42.984 -14.291   2.978  1.00  0.00     0.003 A 
HETATM   22  C   UNL     1      42.940 -13.325   3.983  1.00  0.00     0.029 A 
BRANCH  19  23
HETATM   23  C   UNL     1      43.559 -17.428   4.970  1.00  0.00     0.010 A 
HETATM   24  C   UNL     1      44.115 -18.482   4.203  1.00  0.00     0.152 A 
HETATM   25  N   UNL     1      44.182 -19.637   4.870  1.00  0.00    -0.187 NA
HETATM   26  N   UNL     1      43.666 -19.333   6.071  1.00  0.00    -0.289 N 
HETATM   27  H   UNL     1      43.608 -20.064   6.772  1.00  0.00     0.188 HD
HETATM   28  C   UNL     1      43.284 -18.027   6.183  1.00  0.00     0.123 A 
ENDBRANCH  19  23
ENDBRANCH   2  17
TORSDOF 4
ENDMDL
MODEL 10
REMARK VINA RESULT:      -7.8      3.108      4.510
REMARK  4 active torsions:
REMARK  status: ('A' for Active; 'I' for Inactive)
REMARK    1  A    between atoms: O_2  and  C_3 
REMARK    2  A    between atoms: C_7  and  C_8 
REMARK       I    between atoms: C_8  and  N_9 
REMARK    3  A    between atoms: N_9  and  C_10 
REMARK    4  A    between atoms: C_12  and  C_13 
ROOT
HETATM    1  C   UNL     1      43.550 -11.855   4.841  1.00  0.00     0.254 C 
HETATM    2  N   UNL     1      42.820 -13.023   4.763  1.00  0.00    -0.323 N 
HETATM    3  O   UNL     1      44.133 -11.302   3.915  1.00  0.00    -0.268 OA
HETATM    4  H   UNL     1      42.343 -13.328   5.600  1.00  0.00     0.169 HD
ENDROOT
BRANCH   1   5
HETATM    5  C   UNL     1      43.539 -11.198   6.189  1.00  0.00     0.035 C 
HETATM    6  C   UNL     1      44.638 -10.997   6.930  1.00  0.00     0.029 C 
HETATM    7  C   UNL     1      44.465 -10.389   8.245  1.00  0.00     0.001 A 
HETATM    8  C   UNL     1      43.238  -9.813   8.597  1.00  0.00     0.112 A 
HETATM    9  C   UNL     1      45.528 -10.357   9.154  1.00  0.00     0.014 A 
HETATM   10  C   UNL     1      43.078  -9.178   9.841  1.00  0.00     0.102 A 
HETATM   11  O   UNL     1      42.172  -9.794   7.735  1.00  0.00    -0.343 OA
HETATM   12  C   UNL     1      44.144  -9.169  10.745  1.00  0.00     0.040 A 
HETATM   13  C   UNL     1      45.363  -9.758  10.403  1.00  0.00     0.004 A 
HETATM   14  C   UNL     1      42.183 -10.734   6.650  1.00  0.00     0.220 C 
BRANCH  10  15
HETATM   15  O   UNL     1      41.846  -8.626  10.089  1.00  0.00    -0.353 OA
HETATM   16  C   UNL     1      41.823  -7.287  10.563  1.00  0.00     0.210 C 
ENDBRANCH  10  15
ENDBRANCH   1   5
BRANCH   2  17
HETATM   17  C   UNL     1      42.611 -13.836   3.627  1.00  0.00     0.035 A 
HETATM   18  C   UNL     1      41.768 -13.500   2.563  1.00  0.00     0.042 A 
HETATM   19  C   UNL     1      41.579 -14.372   1.474  1.00  0.00    -0.021 A 
HETATM   20  C   UNL     1      42.280 -15.585   1.459  1.00  0.00     0.012 A 
HETATM   21  C   UNL     1      43.134 -15.925   2.508  1.00  0.00     0.003 A 
HETATM   22  C   UNL     1      43.292 -15.058   3.589  1.00  0.00     0.029 A 
BRANCH  19  23
HETATM   23  C   UNL     1      40.669 -14.040   0.384  1.00  0.00     0.010 A 
HETATM   24  C   UNL     1      40.472 -12.830  -0.327  1.00  0.00     0.152 A 
HETATM   25  N   UNL     1      39.549 -12.930  -1.287  1.00  0.00    -0.187 NA
HETATM   26  N   UNL     1      39.145 -14.207  -1.197  1.00  0.00    -0.289 N 
HETATM   27  H   UNL     1      38.430 -14.534  -1.838  1.00  0.00     0.188 HD
HETATM   28  C   UNL     1      39.786 -14.912  -0.219  1.00  0.00     0.123 A 
ENDBRANCH  19  23
ENDBRANCH   2  17
TORSDOF 4
ENDMDL
