MODEL 1
REMARK VINA RESULT:      -8.8      0.000      0.000
REMARK  11 active torsions:
REMARK  status: ('A' for Active; 'I' for Inactive)
REMARK    1  A    between atoms: C_2  and  O_3 
REMARK    2  A    between atoms: C_2  and  C_4 
REMARK    3  A    between atoms: C_8  and  C_9 
REMARK    4  A    between atoms: C_12  and  C_13 
REMARK    5  A    between atoms: C_13  and  C_14 
REMARK    6  A    between atoms: C_14  and  N_15 
REMARK    7  A    between atoms: C_14  and  C_29 
REMARK       I    between atoms: N_15  and  C_16 
REMARK    8  A    between atoms: C_16  and  C_17 
REMARK    9  A    between atoms: C_21  and  O_22 
REMARK   10  A    between atoms: O_22  and  C_23 
REMARK   11  A    between atoms: C_29  and  N_30 
ROOT
HETATM    1  C   UNL     1      44.971 -10.360   8.248  1.00  0.00     0.114 C 
ENDROOT
BRANCH   1   2
HETATM    2  C   UNL     1      45.118 -10.755   9.736  1.00  0.00     0.065 C 
BRANCH   2   3
HETATM    3  C   UNL     1      44.234 -10.018  10.706  1.00  0.00    -0.056 A 
HETATM    4  C   UNL     1      43.988  -8.648  10.567  1.00  0.00     0.008 A 
HETATM    5  C   UNL     1      43.106  -7.998  11.439  1.00  0.00     0.014 A 
HETATM    6  C   UNL     1      42.448  -8.701  12.458  1.00  0.00    -0.006 A 
HETATM    7  C   UNL     1      42.723 -10.065  12.609  1.00  0.00     0.014 A 
HETATM    8  C   UNL     1      43.602 -10.719  11.741  1.00  0.00     0.008 A 
BRANCH   6   9
HETATM    9  C   UNL     1      41.480  -8.014  13.302  1.00  0.00     0.085 A 
HETATM   10  C   UNL     1      40.227  -7.584  12.917  1.00  0.00     0.130 A 
HETATM   11  N   UNL     1      39.698  -6.949  14.011  1.00  0.00    -0.315 N 
HETATM   12  C   UNL     1      40.648  -7.024  15.023  1.00  0.00     0.143 A 
HETATM   13  C   UNL     1      38.465  -6.324  14.148  1.00  0.00     0.098 A 
HETATM   14  C   UNL     1      40.334  -6.416  16.292  1.00  0.00     0.017 A 
HETATM   15  N   UNL     1      41.727  -7.667  14.612  1.00  0.00    -0.228 NA
HETATM   16  C   UNL     1      39.120  -5.819  16.409  1.00  0.00     0.015 A 
HETATM   17  C   UNL     1      38.155  -5.757  15.323  1.00  0.00     0.018 A 
BRANCH  14  18
HETATM   18  C   UNL     1      41.311  -6.459  17.457  1.00  0.00     0.150 C 
HETATM   19  C   UNL     1      41.180  -7.756  18.250  1.00  0.00     0.044 C 
BRANCH  18  20
HETATM   20  O   UNL     1      42.659  -6.344  16.996  1.00  0.00    -0.391 OA
HETATM   21  H   UNL     1      42.953  -7.238  16.752  1.00  0.00     0.210 HD
ENDBRANCH  18  20
ENDBRANCH  14  18
ENDBRANCH   6   9
ENDBRANCH   2   3
ENDBRANCH   1   2
BRANCH   1  22
HETATM   22  N   UNL     1      44.618 -11.598   7.511  1.00  0.00    -0.350 N 
HETATM   23  C   UNL     1      43.780 -11.695   6.423  1.00  0.00     0.252 C 
HETATM   24  O   UNL     1      43.285 -10.705   5.895  1.00  0.00    -0.268 OA
HETATM   25  H   UNL     1      44.738 -12.460   8.037  1.00  0.00     0.163 HD
BRANCH  23  26
HETATM   26  C   UNL     1      43.506 -13.067   5.909  1.00  0.00     0.033 A 
HETATM   27  C   UNL     1      43.767 -14.159   6.740  1.00  0.00     0.043 A 
HETATM   28  C   UNL     1      43.522 -15.460   6.283  1.00  0.00     0.068 A 
HETATM   29 CL   UNL     1      43.878 -16.767   7.357  1.00  0.00    -0.081 Cl
HETATM   30  C   UNL     1      43.016 -15.691   4.993  1.00  0.00     0.091 A 
HETATM   31  C   UNL     1      42.725 -14.592   4.182  1.00  0.00     0.039 A 
HETATM   32  C   UNL     1      42.963 -13.289   4.636  1.00  0.00     0.020 A 
BRANCH  30  33
HETATM   33  O   UNL     1      42.815 -16.995   4.632  1.00  0.00    -0.345 OA
BRANCH  33  34
HETATM   34  C   UNL     1      43.788 -17.679   3.833  1.00  0.00     0.121 C 
HETATM   35  C   UNL     1      44.152 -19.020   4.464  1.00  0.00     0.040 C 
HETATM   36  C   UNL     1      43.148 -17.906   2.465  1.00  0.00     0.040 C 
ENDBRANCH  33  34
ENDBRANCH  30  33
ENDBRANCH  23  26
ENDBRANCH   1  22
BRANCH   1  37
HETATM   37  C   UNL     1      46.262  -9.656   7.738  1.00  0.00     0.254 C 
BRANCH  37  38
HETATM   38  N   UNL     1      47.268 -10.634   7.248  1.00  0.00    -0.077 N 
HETATM   39  H   UNL     1      46.779 -11.426   6.778  1.00  0.00     0.274 HD
HETATM   40  H   UNL     1      47.903 -10.242   6.544  1.00  0.00     0.274 HD
HETATM   41  H   UNL     1      47.825 -11.045   8.004  1.00  0.00     0.274 HD
ENDBRANCH  37  38
ENDBRANCH   1  37
TORSDOF 11
ENDMDL
MODEL 2
REMARK VINA RESULT:      -8.8      1.263      2.212
REMARK  11 active torsions:
REMARK  status: ('A' for Active; 'I' for Inactive)
REMARK    1  A    between atoms: C_2  and  O_3 
REMARK    2  A    between atoms: C_2  and  C_4 
REMARK    3  A    between atoms: C_8  and  C_9 
REMARK    4  A    between atoms: C_12  and  C_13 
REMARK    5  A    between atoms: C_13  and  C_14 
REMARK    6  A    between atoms: C_14  and  N_15 
REMARK    7  A    between atoms: C_14  and  C_29 
REMARK       I    between atoms: N_15  and  C_16 
REMARK    8  A    between atoms: C_16  and  C_17 
REMARK    9  A    between atoms: C_21  and  O_22 
REMARK   10  A    between atoms: O_22  and  C_23 
REMARK   11  A    between atoms: C_29  and  N_30 
ROOT
HETATM    1  C   UNL     1      44.989 -10.241   8.281  1.00  0.00     0.114 C 
ENDROOT
BRANCH   1   2
HETATM    2  C   UNL     1      45.132 -10.630   9.771  1.00  0.00     0.065 C 
BRANCH   2   3
HETATM    3  C   UNL     1      44.164  -9.978  10.721  1.00  0.00    -0.056 A 
HETATM    4  C   UNL     1      43.561 -10.702  11.754  1.00  0.00     0.008 A 
HETATM    5  C   UNL     1      42.718 -10.058  12.668  1.00  0.00     0.014 A 
HETATM    6  C   UNL     1      42.468  -8.682  12.575  1.00  0.00    -0.006 A 
HETATM    7  C   UNL     1      43.052  -7.970  11.521  1.00  0.00     0.014 A 
HETATM    8  C   UNL     1      43.895  -8.608  10.606  1.00  0.00     0.008 A 
BRANCH   6   9
HETATM    9  C   UNL     1      41.648  -8.025  13.583  1.00  0.00     0.085 A 
HETATM   10  C   UNL     1      41.836  -8.085  14.948  1.00  0.00     0.130 A 
HETATM   11  N   UNL     1      40.804  -7.369  15.499  1.00  0.00    -0.315 N 
HETATM   12  C   UNL     1      40.031  -6.896  14.445  1.00  0.00     0.143 A 
HETATM   13  C   UNL     1      40.521  -7.131  16.838  1.00  0.00     0.098 A 
HETATM   14  C   UNL     1      38.864  -6.109  14.763  1.00  0.00     0.017 A 
HETATM   15  N   UNL     1      40.529  -7.280  13.283  1.00  0.00    -0.228 NA
HETATM   16  C   UNL     1      38.611  -5.879  16.077  1.00  0.00     0.015 A 
HETATM   17  C   UNL     1      39.442  -6.399  17.151  1.00  0.00     0.018 A 
BRANCH  14  18
HETATM   18  C   UNL     1      37.967  -5.544  13.672  1.00  0.00     0.150 C 
HETATM   19  C   UNL     1      37.399  -6.648  12.787  1.00  0.00     0.044 C 
BRANCH  18  20
HETATM   20  O   UNL     1      36.878  -4.811  14.238  1.00  0.00    -0.391 OA
HETATM   21  H   UNL     1      36.374  -4.432  13.498  1.00  0.00     0.210 HD
ENDBRANCH  18  20
ENDBRANCH  14  18
ENDBRANCH   6   9
ENDBRANCH   2   3
ENDBRANCH   1   2
BRANCH   1  22
HETATM   22  N   UNL     1      44.630 -11.480   7.549  1.00  0.00    -0.350 N 
HETATM   23  C   UNL     1      43.752 -11.585   6.493  1.00  0.00     0.252 C 
HETATM   24  O   UNL     1      43.219 -10.600   5.992  1.00  0.00    -0.268 OA
HETATM   25  H   UNL     1      44.786 -12.343   8.062  1.00  0.00     0.163 HD
BRANCH  23  26
HETATM   26  C   UNL     1      43.483 -12.958   5.979  1.00  0.00     0.033 A 
HETATM   27  C   UNL     1      43.891 -14.052   6.745  1.00  0.00     0.043 A 
HETATM   28  C   UNL     1      43.654 -15.354   6.287  1.00  0.00     0.068 A 
HETATM   29 CL   UNL     1      44.195 -16.663   7.278  1.00  0.00    -0.081 Cl
HETATM   30  C   UNL     1      43.010 -15.583   5.060  1.00  0.00     0.091 A 
HETATM   31  C   UNL     1      42.574 -14.484   4.317  1.00  0.00     0.039 A 
HETATM   32  C   UNL     1      42.804 -13.180   4.774  1.00  0.00     0.020 A 
BRANCH  30  33
HETATM   33  O   UNL     1      42.828 -16.888   4.691  1.00  0.00    -0.345 OA
BRANCH  33  34
HETATM   34  C   UNL     1      43.730 -17.507   3.767  1.00  0.00     0.121 C 
HETATM   35  C   UNL     1      44.240 -18.834   4.324  1.00  0.00     0.040 C 
HETATM   36  C   UNL     1      42.941 -17.752   2.482  1.00  0.00     0.040 C 
ENDBRANCH  33  34
ENDBRANCH  30  33
ENDBRANCH  23  26
ENDBRANCH   1  22
BRANCH   1  37
HETATM   37  C   UNL     1      46.284  -9.546   7.769  1.00  0.00     0.254 C 
BRANCH  37  38
HETATM   38  N   UNL     1      47.276 -10.530   7.263  1.00  0.00    -0.077 N 
HETATM   39  H   UNL     1      46.904 -11.496   7.397  1.00  0.00     0.274 HD
HETATM   40  H   UNL     1      47.457 -10.440   6.257  1.00  0.00     0.274 HD
HETATM   41  H   UNL     1      48.169 -10.491   7.765  1.00  0.00     0.274 HD
ENDBRANCH  37  38
ENDBRANCH   1  37
TORSDOF 11
ENDMDL
MODEL 3
REMARK VINA RESULT:      -8.7      4.220      7.314
REMARK  11 active torsions:
REMARK  status: ('A' for Active; 'I' for Inactive)
REMARK    1  A    between atoms: C_2  and  O_3 
REMARK    2  A    between atoms: C_2  and  C_4 
REMARK    3  A    between atoms: C_8  and  C_9 
REMARK    4  A    between atoms: C_12  and  C_13 
REMARK    5  A    between atoms: C_13  and  C_14 
REMARK    6  A    between atoms: C_14  and  N_15 
REMARK    7  A    between atoms: C_14  and  C_29 
REMARK       I    between atoms: N_15  and  C_16 
REMARK    8  A    between atoms: C_16  and  C_17 
REMARK    9  A    between atoms: C_21  and  O_22 
REMARK   10  A    between atoms: O_22  and  C_23 
REMARK   11  A    between atoms: C_29  and  N_30 
ROOT
HETATM    1  C   UNL     1      40.464 -13.396   0.920  1.00  0.00     0.114 C 
ENDROOT
BRANCH   1   2
HETATM    2  C   UNL     1      41.308 -12.111   1.093  1.00  0.00     0.065 C 
BRANCH   2   3
HETATM    3  C   UNL     1      41.791 -11.821   2.488  1.00  0.00    -0.056 A 
HETATM    4  C   UNL     1      43.144 -11.933   2.826  1.00  0.00     0.008 A 
HETATM    5  C   UNL     1      43.581 -11.590   4.111  1.00  0.00     0.014 A 
HETATM    6  C   UNL     1      42.681 -11.123   5.080  1.00  0.00    -0.006 A 
HETATM    7  C   UNL     1      41.325 -11.042   4.742  1.00  0.00     0.014 A 
HETATM    8  C   UNL     1      40.884 -11.383   3.461  1.00  0.00     0.008 A 
BRANCH   6   9
HETATM    9  C   UNL     1      43.174 -10.703   6.384  1.00  0.00     0.085 A 
HETATM   10  C   UNL     1      44.470 -10.827   6.841  1.00  0.00     0.130 A 
HETATM   11  N   UNL     1      44.458 -10.354   8.128  1.00  0.00    -0.315 N 
HETATM   12  C   UNL     1      43.155  -9.954   8.401  1.00  0.00     0.143 A 
HETATM   13  C   UNL     1      45.504 -10.271   9.039  1.00  0.00     0.098 A 
HETATM   14  C   UNL     1      42.873  -9.420   9.711  1.00  0.00     0.017 A 
HETATM   15  N   UNL     1      42.370 -10.155   7.358  1.00  0.00    -0.228 NA
HETATM   16  C   UNL     1      43.910  -9.337  10.583  1.00  0.00     0.015 A 
HETATM   17  C   UNL     1      45.260  -9.772  10.260  1.00  0.00     0.018 A 
BRANCH  14  18
HETATM   18  C   UNL     1      41.478  -8.950  10.093  1.00  0.00     0.150 C 
HETATM   19  C   UNL     1      41.220  -7.522   9.621  1.00  0.00     0.044 C 
BRANCH  18  20
HETATM   20  O   UNL     1      40.480  -9.802   9.526  1.00  0.00    -0.391 OA
HETATM   21  H   UNL     1      40.733 -10.716   9.737  1.00  0.00     0.210 HD
ENDBRANCH  18  20
ENDBRANCH  14  18
ENDBRANCH   6   9
ENDBRANCH   2   3
ENDBRANCH   1   2
BRANCH   1  22
HETATM   22  N   UNL     1      41.261 -14.510   1.491  1.00  0.00    -0.350 N 
HETATM   23  C   UNL     1      41.068 -15.115   2.711  1.00  0.00     0.252 C 
HETATM   24  O   UNL     1      40.126 -14.821   3.440  1.00  0.00    -0.268 OA
HETATM   25  H   UNL     1      42.197 -14.609   1.107  1.00  0.00     0.163 HD
BRANCH  23  26
HETATM   26  C   UNL     1      42.059 -16.156   3.108  1.00  0.00     0.033 A 
HETATM   27  C   UNL     1      42.809 -15.959   4.270  1.00  0.00     0.043 A 
HETATM   28  C   UNL     1      43.749 -16.918   4.665  1.00  0.00     0.068 A 
HETATM   29 CL   UNL     1      44.652 -16.607   6.107  1.00  0.00    -0.081 Cl
HETATM   30  C   UNL     1      43.957 -18.084   3.910  1.00  0.00     0.091 A 
HETATM   31  C   UNL     1      43.178 -18.289   2.769  1.00  0.00     0.039 A 
HETATM   32  C   UNL     1      42.232 -17.335   2.371  1.00  0.00     0.020 A 
BRANCH  30  33
HETATM   33  O   UNL     1      44.901 -18.960   4.371  1.00  0.00    -0.345 OA
BRANCH  33  34
HETATM   34  C   UNL     1      44.503 -20.219   4.926  1.00  0.00     0.121 C 
HETATM   35  C   UNL     1      43.476 -20.013   6.038  1.00  0.00     0.040 C 
HETATM   36  C   UNL     1      43.880 -21.023   3.787  1.00  0.00     0.040 C 
ENDBRANCH  33  34
ENDBRANCH  30  33
ENDBRANCH  23  26
ENDBRANCH   1  22
BRANCH   1  37
HETATM   37  C   UNL     1      40.064 -13.592  -0.572  1.00  0.00     0.254 C 
BRANCH  37  38
HETATM   38  N   UNL     1      39.191 -14.780  -0.759  1.00  0.00    -0.077 N 
HETATM   39  H   UNL     1      39.752 -15.647  -0.611  1.00  0.00     0.274 HD
HETATM   40  H   UNL     1      38.422 -14.827  -0.081  1.00  0.00     0.274 HD
HETATM   41  H   UNL     1      38.803 -14.844  -1.705  1.00  0.00     0.274 HD
ENDBRANCH  37  38
ENDBRANCH   1  37
TORSDOF 11
ENDMDL
MODEL 4
REMARK VINA RESULT:      -8.7      3.228     12.311
REMARK  11 active torsions:
REMARK  status: ('A' for Active; 'I' for Inactive)
REMARK    1  A    between atoms: C_2  and  O_3 
REMARK    2  A    between atoms: C_2  and  C_4 
REMARK    3  A    between atoms: C_8  and  C_9 
REMARK    4  A    between atoms: C_12  and  C_13 
REMARK    5  A    between atoms: C_13  and  C_14 
REMARK    6  A    between atoms: C_14  and  N_15 
REMARK    7  A    between atoms: C_14  and  C_29 
REMARK       I    between atoms: N_15  and  C_16 
REMARK    8  A    between atoms: C_16  and  C_17 
REMARK    9  A    between atoms: C_21  and  O_22 
REMARK   10  A    between atoms: O_22  and  C_23 
REMARK   11  A    between atoms: C_29  and  N_30 
ROOT
HETATM    1  C   UNL     1      44.581  -9.404   9.071  1.00  0.00     0.114 C 
ENDROOT
BRANCH   1   2
HETATM    2  C   UNL     1      43.419  -9.521   8.056  1.00  0.00     0.065 C 
BRANCH   2   3
HETATM    3  C   UNL     1      43.293 -10.844   7.348  1.00  0.00    -0.056 A 
HETATM    4  C   UNL     1      42.277 -11.073   6.414  1.00  0.00     0.008 A 
HETATM    5  C   UNL     1      42.221 -12.285   5.716  1.00  0.00     0.014 A 
HETATM    6  C   UNL     1      43.178 -13.287   5.930  1.00  0.00    -0.006 A 
HETATM    7  C   UNL     1      44.174 -13.061   6.887  1.00  0.00     0.014 A 
HETATM    8  C   UNL     1      44.235 -11.852   7.586  1.00  0.00     0.008 A 
BRANCH   6   9
HETATM    9  C   UNL     1      43.138 -14.507   5.136  1.00  0.00     0.085 A 
HETATM   10  C   UNL     1      43.701 -15.719   5.478  1.00  0.00     0.130 A 
HETATM   11  N   UNL     1      43.465 -16.554   4.418  1.00  0.00    -0.315 N 
HETATM   12  C   UNL     1      42.761 -15.818   3.471  1.00  0.00     0.143 A 
HETATM   13  C   UNL     1      43.836 -17.882   4.250  1.00  0.00     0.098 A 
HETATM   14  C   UNL     1      42.393 -16.476   2.241  1.00  0.00     0.017 A 
HETATM   15  N   UNL     1      42.553 -14.583   3.891  1.00  0.00    -0.228 NA
HETATM   16  C   UNL     1      42.756 -17.776   2.101  1.00  0.00     0.015 A 
HETATM   17  C   UNL     1      43.499 -18.509   3.114  1.00  0.00     0.018 A 
BRANCH  14  18
HETATM   18  C   UNL     1      41.614 -15.749   1.155  1.00  0.00     0.150 C 
HETATM   19  C   UNL     1      40.129 -15.665   1.493  1.00  0.00     0.044 C 
BRANCH  18  20
HETATM   20  O   UNL     1      42.113 -14.422   0.971  1.00  0.00    -0.391 OA
HETATM   21  H   UNL     1      42.143 -14.005   1.849  1.00  0.00     0.210 HD
ENDBRANCH  18  20
ENDBRANCH  14  18
ENDBRANCH   6   9
ENDBRANCH   2   3
ENDBRANCH   1   2
BRANCH   1  22
HETATM   22  N   UNL     1      44.004  -8.836  10.315  1.00  0.00    -0.350 N 
HETATM   23  C   UNL     1      43.563  -9.542  11.411  1.00  0.00     0.252 C 
HETATM   24  O   UNL     1      43.683 -10.761  11.490  1.00  0.00    -0.268 OA
HETATM   25  H   UNL     1      43.609  -7.904  10.220  1.00  0.00     0.163 HD
BRANCH  23  26
HETATM   26  C   UNL     1      42.935  -8.753  12.509  1.00  0.00     0.033 A 
HETATM   27  C   UNL     1      42.894  -7.361  12.394  1.00  0.00     0.043 A 
HETATM   28  C   UNL     1      42.313  -6.593  13.411  1.00  0.00     0.068 A 
HETATM   29 CL   UNL     1      42.306  -4.876  13.212  1.00  0.00    -0.081 Cl
HETATM   30  C   UNL     1      41.767  -7.199  14.554  1.00  0.00     0.091 A 
HETATM   31  C   UNL     1      41.781  -8.592  14.644  1.00  0.00     0.039 A 
HETATM   32  C   UNL     1      42.356  -9.366  13.628  1.00  0.00     0.020 A 
BRANCH  30  33
HETATM   33  O   UNL     1      41.227  -6.367  15.497  1.00  0.00    -0.345 OA
BRANCH  33  34
HETATM   34  C   UNL     1      39.854  -6.511  15.881  1.00  0.00     0.121 C 
HETATM   35  C   UNL     1      39.529  -5.594  17.057  1.00  0.00     0.040 C 
HETATM   36  C   UNL     1      39.017  -6.116  14.666  1.00  0.00     0.040 C 
ENDBRANCH  33  34
ENDBRANCH  30  33
ENDBRANCH  23  26
ENDBRANCH   1  22
BRANCH   1  37
HETATM   37  C   UNL     1      45.751  -8.572   8.471  1.00  0.00     0.254 C 
BRANCH  37  38
HETATM   38  N   UNL     1      46.697  -9.422   7.703  1.00  0.00    -0.077 N 
HETATM   39  H   UNL     1      46.964 -10.250   8.280  1.00  0.00     0.274 HD
HETATM   40  H   UNL     1      46.290  -9.804   6.842  1.00  0.00     0.274 HD
HETATM   41  H   UNL     1      47.570  -8.939   7.470  1.00  0.00     0.274 HD
ENDBRANCH  37  38
ENDBRANCH   1  37
TORSDOF 11
ENDMDL
MODEL 5
REMARK VINA RESULT:      -8.5      2.415      3.168
REMARK  11 active torsions:
REMARK  status: ('A' for Active; 'I' for Inactive)
REMARK    1  A    between atoms: C_2  and  O_3 
REMARK    2  A    between atoms: C_2  and  C_4 
REMARK    3  A    between atoms: C_8  and  C_9 
REMARK    4  A    between atoms: C_12  and  C_13 
REMARK    5  A    between atoms: C_13  and  C_14 
REMARK    6  A    between atoms: C_14  and  N_15 
REMARK    7  A    between atoms: C_14  and  C_29 
REMARK       I    between atoms: N_15  and  C_16 
REMARK    8  A    between atoms: C_16  and  C_17 
REMARK    9  A    between atoms: C_21  and  O_22 
REMARK   10  A    between atoms: O_22  and  C_23 
REMARK   11  A    between atoms: C_29  and  N_30 
ROOT
HETATM    1  C   UNL     1      43.273  -9.493   9.438  1.00  0.00     0.114 C 
ENDROOT
BRANCH   1   2
HETATM    2  C   UNL     1      43.509 -10.182  10.802  1.00  0.00     0.065 C 
BRANCH   2   3
HETATM    3  C   UNL     1      42.986  -9.452  12.010  1.00  0.00    -0.056 A 
HETATM    4  C   UNL     1      41.931  -9.970  12.771  1.00  0.00     0.008 A 
HETATM    5  C   UNL     1      41.508  -9.310  13.930  1.00  0.00     0.014 A 
HETATM    6  C   UNL     1      42.129  -8.128  14.357  1.00  0.00    -0.006 A 
HETATM    7  C   UNL     1      43.164  -7.601  13.574  1.00  0.00     0.014 A 
HETATM    8  C   UNL     1      43.591  -8.257  12.416  1.00  0.00     0.008 A 
BRANCH   6   9
HETATM    9  C   UNL     1      41.717  -7.504  15.606  1.00  0.00     0.085 A 
HETATM   10  C   UNL     1      41.812  -6.163  15.916  1.00  0.00     0.130 A 
HETATM   11  N   UNL     1      41.361  -6.044  17.205  1.00  0.00    -0.315 N 
HETATM   12  C   UNL     1      41.003  -7.318  17.628  1.00  0.00     0.143 A 
HETATM   13  C   UNL     1      41.264  -4.906  17.996  1.00  0.00     0.098 A 
HETATM   14  C   UNL     1      40.499  -7.467  18.972  1.00  0.00     0.017 A 
HETATM   15  N   UNL     1      41.209  -8.209  16.674  1.00  0.00    -0.228 NA
HETATM   16  C   UNL     1      40.402  -6.343  19.725  1.00  0.00     0.015 A 
HETATM   17  C   UNL     1      40.794  -5.027  19.246  1.00  0.00     0.018 A 
BRANCH  14  18
HETATM   18  C   UNL     1      40.075  -8.824  19.515  1.00  0.00     0.150 C 
HETATM   19  C   UNL     1      40.699  -9.100  20.879  1.00  0.00     0.044 C 
BRANCH  18  20
HETATM   20  O   UNL     1      38.653  -8.899  19.643  1.00  0.00    -0.391 OA
HETATM   21  H   UNL     1      38.460  -9.056  20.583  1.00  0.00     0.210 HD
ENDBRANCH  18  20
ENDBRANCH  14  18
ENDBRANCH   6   9
ENDBRANCH   2   3
ENDBRANCH   1   2
BRANCH   1  22
HETATM   22  N   UNL     1      43.081 -10.575   8.441  1.00  0.00    -0.350 N 
HETATM   23  C   UNL     1      44.061 -11.375   7.900  1.00  0.00     0.252 C 
HETATM   24  O   UNL     1      45.230 -11.310   8.268  1.00  0.00    -0.268 OA
HETATM   25  H   UNL     1      42.233 -10.502   7.885  1.00  0.00     0.163 HD
BRANCH  23  26
HETATM   26  C   UNL     1      43.634 -12.337   6.843  1.00  0.00     0.033 A 
HETATM   27  C   UNL     1      43.416 -11.857   5.550  1.00  0.00     0.043 A 
HETATM   28  C   UNL     1      43.012 -12.735   4.537  1.00  0.00     0.068 A 
HETATM   29 CL   UNL     1      42.747 -12.075   2.962  1.00  0.00    -0.081 Cl
HETATM   30  C   UNL     1      42.817 -14.102   4.799  1.00  0.00     0.091 A 
HETATM   31  C   UNL     1      43.071 -14.579   6.087  1.00  0.00     0.039 A 
HETATM   32  C   UNL     1      43.481 -13.705   7.102  1.00  0.00     0.020 A 
BRANCH  30  33
HETATM   33  O   UNL     1      42.415 -14.881   3.749  1.00  0.00    -0.345 OA
BRANCH  33  34
HETATM   34  C   UNL     1      43.326 -15.817   3.159  1.00  0.00     0.121 C 
HETATM   35  C   UNL     1      42.800 -17.243   3.309  1.00  0.00     0.040 C 
HETATM   36  C   UNL     1      43.427 -15.454   1.679  1.00  0.00     0.040 C 
ENDBRANCH  33  34
ENDBRANCH  30  33
ENDBRANCH  23  26
ENDBRANCH   1  22
BRANCH   1  37
HETATM   37  C   UNL     1      44.440  -8.518   9.107  1.00  0.00     0.254 C 
BRANCH  37  38
HETATM   38  N   UNL     1      43.967  -7.116   8.967  1.00  0.00    -0.077 N 
HETATM   39  H   UNL     1      42.933  -7.113   8.831  1.00  0.00     0.274 HD
HETATM   40  H   UNL     1      44.139  -6.546   9.802  1.00  0.00     0.274 HD
HETATM   41  H   UNL     1      44.367  -6.640   8.152  1.00  0.00     0.274 HD
ENDBRANCH  37  38
ENDBRANCH   1  37
TORSDOF 11
ENDMDL
MODEL 6
REMARK VINA RESULT:      -8.5      6.242     12.129
REMARK  11 active torsions:
REMARK  status: ('A' for Active; 'I' for Inactive)
REMARK    1  A    between atoms: C_2  and  O_3 
REMARK    2  A    between atoms: C_2  and  C_4 
REMARK    3  A    between atoms: C_8  and  C_9 
REMARK    4  A    between atoms: C_12  and  C_13 
REMARK    5  A    between atoms: C_13  and  C_14 
REMARK    6  A    between atoms: C_14  and  N_15 
REMARK    7  A    between atoms: C_14  and  C_29 
REMARK       I    between atoms: N_15  and  C_16 
REMARK    8  A    between atoms: C_16  and  C_17 
REMARK    9  A    between atoms: C_21  and  O_22 
REMARK   10  A    between atoms: O_22  and  C_23 
REMARK   11  A    between atoms: C_29  and  N_30 
ROOT
HETATM    1  C   UNL     1      43.528 -17.921   4.155  1.00  0.00     0.114 C 
ENDROOT
BRANCH   1   2
HETATM    2  C   UNL     1      43.438 -17.776   2.617  1.00  0.00     0.065 C 
BRANCH   2   3
HETATM    3  C   UNL     1      42.527 -16.692   2.108  1.00  0.00    -0.056 A 
HETATM    4  C   UNL     1      41.135 -16.834   2.152  1.00  0.00     0.008 A 
HETATM    5  C   UNL     1      40.306 -15.785   1.738  1.00  0.00     0.014 A 
HETATM    6  C   UNL     1      40.846 -14.574   1.281  1.00  0.00    -0.006 A 
HETATM    7  C   UNL     1      42.239 -14.451   1.213  1.00  0.00     0.014 A 
HETATM    8  C   UNL     1      43.071 -15.496   1.626  1.00  0.00     0.008 A 
BRANCH   6   9
HETATM    9  C   UNL     1      39.960 -13.473   0.929  1.00  0.00     0.085 A 
HETATM   10  C   UNL     1      39.188 -12.738   1.804  1.00  0.00     0.130 A 
HETATM   11  N   UNL     1      38.482 -11.855   1.029  1.00  0.00    -0.315 N 
HETATM   12  C   UNL     1      38.857 -12.084  -0.290  1.00  0.00     0.143 A 
HETATM   13  C   UNL     1      37.552 -10.900   1.418  1.00  0.00     0.098 A 
HETATM   14  C   UNL     1      38.242 -11.278  -1.316  1.00  0.00     0.017 A 
HETATM   15  N   UNL     1      39.750 -13.054  -0.366  1.00  0.00    -0.228 NA
HETATM   16  C   UNL     1      37.343 -10.343  -0.915  1.00  0.00     0.015 A 
HETATM   17  C   UNL     1      36.973 -10.140   0.477  1.00  0.00     0.018 A 
BRANCH  14  18
HETATM   18  C   UNL     1      38.599 -11.454  -2.784  1.00  0.00     0.150 C 
HETATM   19  C   UNL     1      39.962 -10.847  -3.105  1.00  0.00     0.044 C 
BRANCH  18  20
HETATM   20  O   UNL     1      38.625 -12.839  -3.140  1.00  0.00    -0.391 OA
HETATM   21  H   UNL     1      39.474 -13.197  -2.830  1.00  0.00     0.210 HD
ENDBRANCH  18  20
ENDBRANCH  14  18
ENDBRANCH   6   9
ENDBRANCH   2   3
ENDBRANCH   1   2
BRANCH   1  22
HETATM   22  N   UNL     1      43.665 -16.550   4.705  1.00  0.00    -0.350 N 
HETATM   23  C   UNL     1      42.689 -15.822   5.348  1.00  0.00     0.252 C 
HETATM   24  O   UNL     1      41.586 -16.297   5.601  1.00  0.00    -0.268 OA
HETATM   25  H   UNL     1      44.412 -15.995   4.296  1.00  0.00     0.163 HD
BRANCH  23  26
HETATM   26  C   UNL     1      43.038 -14.424   5.731  1.00  0.00     0.033 A 
HETATM   27  C   UNL     1      42.863 -13.408   4.789  1.00  0.00     0.043 A 
HETATM   28  C   UNL     1      43.185 -12.086   5.120  1.00  0.00     0.068 A 
HETATM   29 CL   UNL     1      42.956 -10.878   3.904  1.00  0.00    -0.081 Cl
HETATM   30  C   UNL     1      43.687 -11.758   6.390  1.00  0.00     0.091 A 
HETATM   31  C   UNL     1      43.825 -12.776   7.337  1.00  0.00     0.039 A 
HETATM   32  C   UNL     1      43.500 -14.099   7.013  1.00  0.00     0.020 A 
BRANCH  30  33
HETATM   33  O   UNL     1      43.979 -10.442   6.619  1.00  0.00    -0.345 OA
BRANCH  33  34
HETATM   34  C   UNL     1      44.424 -10.019   7.914  1.00  0.00     0.121 C 
HETATM   35  C   UNL     1      45.938  -9.819   7.920  1.00  0.00     0.040 C 
HETATM   36  C   UNL     1      43.725  -8.693   8.205  1.00  0.00     0.040 C 
ENDBRANCH  33  34
ENDBRANCH  30  33
ENDBRANCH  23  26
ENDBRANCH   1  22
BRANCH   1  37
HETATM   37  C   UNL     1      44.683 -18.887   4.548  1.00  0.00     0.254 C 
BRANCH  37  38
HETATM   38  N   UNL     1      44.176 -20.231   4.926  1.00  0.00    -0.077 N 
HETATM   39  H   UNL     1      44.726 -20.593   5.735  1.00  0.00     0.274 HD
HETATM   40  H   UNL     1      43.198 -20.221   5.238  1.00  0.00     0.274 HD
HETATM   41  H   UNL     1      44.277 -20.922   4.176  1.00  0.00     0.274 HD
ENDBRANCH  37  38
ENDBRANCH   1  37
TORSDOF 11
ENDMDL
MODEL 7
REMARK VINA RESULT:      -8.5      6.298     11.615
REMARK  11 active torsions:
REMARK  status: ('A' for Active; 'I' for Inactive)
REMARK    1  A    between atoms: C_2  and  O_3 
REMARK    2  A    between atoms: C_2  and  C_4 
REMARK    3  A    between atoms: C_8  and  C_9 
REMARK    4  A    between atoms: C_12  and  C_13 
REMARK    5  A    between atoms: C_13  and  C_14 
REMARK    6  A    between atoms: C_14  and  N_15 
REMARK    7  A    between atoms: C_14  and  C_29 
REMARK       I    between atoms: N_15  and  C_16 
REMARK    8  A    between atoms: C_16  and  C_17 
REMARK    9  A    between atoms: C_21  and  O_22 
REMARK   10  A    between atoms: O_22  and  C_23 
REMARK   11  A    between atoms: C_29  and  N_30 
ROOT
HETATM    1  C   UNL     1      43.393 -18.358   4.450  1.00  0.00     0.114 C 
ENDROOT
BRANCH   1   2
HETATM    2  C   UNL     1      43.450 -18.303   2.905  1.00  0.00     0.065 C 
BRANCH   2   3
HETATM    3  C   UNL     1      42.700 -17.171   2.257  1.00  0.00    -0.056 A 
HETATM    4  C   UNL     1      41.302 -17.112   2.291  1.00  0.00     0.008 A 
HETATM    5  C   UNL     1      40.629 -16.014   1.743  1.00  0.00     0.014 A 
HETATM    6  C   UNL     1      41.334 -14.952   1.158  1.00  0.00    -0.006 A 
HETATM    7  C   UNL     1      42.730 -15.033   1.101  1.00  0.00     0.014 A 
HETATM    8  C   UNL     1      43.407 -16.126   1.648  1.00  0.00     0.008 A 
BRANCH   6   9
HETATM    9  C   UNL     1      40.611 -13.789   0.663  1.00  0.00     0.085 A 
HETATM   10  C   UNL     1      39.545 -13.805  -0.212  1.00  0.00     0.130 A 
HETATM   11  N   UNL     1      39.225 -12.491  -0.436  1.00  0.00    -0.315 N 
HETATM   12  C   UNL     1      40.107 -11.725   0.317  1.00  0.00     0.143 A 
HETATM   13  C   UNL     1      38.234 -11.959  -1.252  1.00  0.00     0.098 A 
HETATM   14  C   UNL     1      39.984 -10.290   0.248  1.00  0.00     0.017 A 
HETATM   15  N   UNL     1      40.947 -12.493   0.988  1.00  0.00    -0.228 NA
HETATM   16  C   UNL     1      39.003  -9.789  -0.546  1.00  0.00     0.015 A 
HETATM   17  C   UNL     1      38.104 -10.626  -1.324  1.00  0.00     0.018 A 
BRANCH  14  18
HETATM   18  C   UNL     1      40.900  -9.375   1.046  1.00  0.00     0.150 C 
HETATM   19  C   UNL     1      40.497  -9.323   2.516  1.00  0.00     0.044 C 
BRANCH  18  20
HETATM   20  O   UNL     1      42.258  -9.816   0.964  1.00  0.00    -0.391 OA
HETATM   21  H   UNL     1      42.777  -9.077   0.606  1.00  0.00     0.210 HD
ENDBRANCH  18  20
ENDBRANCH  14  18
ENDBRANCH   6   9
ENDBRANCH   2   3
ENDBRANCH   1   2
BRANCH   1  22
HETATM   22  N   UNL     1      43.570 -16.966   4.933  1.00  0.00    -0.350 N 
HETATM   23  C   UNL     1      42.611 -16.173   5.521  1.00  0.00     0.252 C 
HETATM   24  O   UNL     1      41.488 -16.594   5.777  1.00  0.00    -0.268 OA
HETATM   25  H   UNL     1      44.344 -16.460   4.511  1.00  0.00     0.163 HD
BRANCH  23  26
HETATM   26  C   UNL     1      43.005 -14.770   5.840  1.00  0.00     0.033 A 
HETATM   27  C   UNL     1      43.081 -13.843   4.799  1.00  0.00     0.043 A 
HETATM   28  C   UNL     1      43.450 -12.519   5.067  1.00  0.00     0.068 A 
HETATM   29 CL   UNL     1      43.537 -11.425   3.732  1.00  0.00    -0.081 Cl
HETATM   30  C   UNL     1      43.751 -12.102   6.375  1.00  0.00     0.091 A 
HETATM   31  C   UNL     1      43.638 -13.028   7.415  1.00  0.00     0.039 A 
HETATM   32  C   UNL     1      43.263 -14.352   7.152  1.00  0.00     0.020 A 
BRANCH  30  33
HETATM   33  O   UNL     1      44.108 -10.792   6.540  1.00  0.00    -0.345 OA
BRANCH  33  34
HETATM   34  C   UNL     1      44.479 -10.305   7.835  1.00  0.00     0.121 C 
HETATM   35  C   UNL     1      45.920  -9.800   7.824  1.00  0.00     0.040 C 
HETATM   36  C   UNL     1      43.528  -9.156   8.159  1.00  0.00     0.040 C 
ENDBRANCH  33  34
ENDBRANCH  30  33
ENDBRANCH  23  26
ENDBRANCH   1  22
BRANCH   1  37
HETATM   37  C   UNL     1      44.442 -19.366   5.002  1.00  0.00     0.254 C 
BRANCH  37  38
HETATM   38  N   UNL     1      44.194 -20.746   4.510  1.00  0.00    -0.077 N 
HETATM   39  H   UNL     1      43.203 -21.009   4.702  1.00  0.00     0.274 HD
HETATM   40  H   UNL     1      44.315 -20.842   3.496  1.00  0.00     0.274 HD
HETATM   41  H   UNL     1      44.775 -21.448   4.980  1.00  0.00     0.274 HD
ENDBRANCH  37  38
ENDBRANCH   1  37
TORSDOF 11
ENDMDL
MODEL 8
REMARK VINA RESULT:      -8.3      3.095     12.181
REMARK  11 active torsions:
REMARK  status: ('A' for Active; 'I' for Inactive)
REMARK    1  A    between atoms: C_2  and  O_3 
REMARK    2  A    between atoms: C_2  and  C_4 
REMARK    3  A    between atoms: C_8  and  C_9 
REMARK    4  A    between atoms: C_12  and  C_13 
REMARK    5  A    between atoms: C_13  and  C_14 
REMARK    6  A    between atoms: C_14  and  N_15 
REMARK    7  A    between atoms: C_14  and  C_29 
REMARK       I    between atoms: N_15  and  C_16 
REMARK    8  A    between atoms: C_16  and  C_17 
REMARK    9  A    between atoms: C_21  and  O_22 
REMARK   10  A    between atoms: O_22  and  C_23 
REMARK   11  A    between atoms: C_29  and  N_30 
ROOT
HETATM    1  C   UNL     1      44.549  -9.714   8.943  1.00  0.00     0.114 C 
ENDROOT
BRANCH   1   2
HETATM    2  C   UNL     1      43.574  -9.684   7.743  1.00  0.00     0.065 C 
BRANCH   2   3
HETATM    3  C   UNL     1      43.406 -10.981   6.997  1.00  0.00    -0.056 A 
HETATM    4  C   UNL     1      42.698 -11.038   5.791  1.00  0.00     0.008 A 
HETATM    5  C   UNL     1      42.615 -12.240   5.079  1.00  0.00     0.014 A 
HETATM    6  C   UNL     1      43.241 -13.403   5.549  1.00  0.00    -0.006 A 
HETATM    7  C   UNL     1      43.923 -13.345   6.770  1.00  0.00     0.014 A 
HETATM    8  C   UNL     1      44.009 -12.147   7.485  1.00  0.00     0.008 A 
BRANCH   6   9
HETATM    9  C   UNL     1      43.201 -14.620   4.749  1.00  0.00     0.085 A 
HETATM   10  C   UNL     1      42.694 -14.738   3.472  1.00  0.00     0.130 A 
HETATM   11  N   UNL     1      42.816 -16.063   3.142  1.00  0.00    -0.315 N 
HETATM   12  C   UNL     1      43.399 -16.700   4.231  1.00  0.00     0.143 A 
HETATM   13  C   UNL     1      42.441 -16.711   1.972  1.00  0.00     0.098 A 
HETATM   14  C   UNL     1      43.629 -18.121   4.139  1.00  0.00     0.017 A 
HETATM   15  N   UNL     1      43.641 -15.843   5.207  1.00  0.00    -0.228 NA
HETATM   16  C   UNL     1      43.266 -18.734   2.984  1.00  0.00     0.015 A 
HETATM   17  C   UNL     1      42.652 -18.031   1.868  1.00  0.00     0.018 A 
BRANCH  14  18
HETATM   18  C   UNL     1      44.270 -18.897   5.279  1.00  0.00     0.150 C 
HETATM   19  C   UNL     1      43.317 -19.046   6.461  1.00  0.00     0.044 C 
BRANCH  18  20
HETATM   20  O   UNL     1      44.666 -20.201   4.849  1.00  0.00    -0.391 OA
HETATM   21  H   UNL     1      44.307 -20.327   3.955  1.00  0.00     0.210 HD
ENDBRANCH  18  20
ENDBRANCH  14  18
ENDBRANCH   6   9
ENDBRANCH   2   3
ENDBRANCH   1   2
BRANCH   1  22
HETATM   22  N   UNL     1      43.804  -9.184  10.112  1.00  0.00    -0.350 N 
HETATM   23  C   UNL     1      43.510  -9.862  11.273  1.00  0.00     0.252 C 
HETATM   24  O   UNL     1      43.923 -10.998  11.484  1.00  0.00    -0.268 OA
HETATM   25  H   UNL     1      43.196  -8.394   9.912  1.00  0.00     0.163 HD
BRANCH  23  26
HETATM   26  C   UNL     1      42.666  -9.146  12.272  1.00  0.00     0.033 A 
HETATM   27  C   UNL     1      42.785  -7.758  12.378  1.00  0.00     0.043 A 
HETATM   28  C   UNL     1      42.007  -7.059  13.308  1.00  0.00     0.068 A 
HETATM   29 CL   UNL     1      42.212  -5.345  13.397  1.00  0.00    -0.081 Cl
HETATM   30  C   UNL     1      41.103  -7.731  14.147  1.00  0.00     0.091 A 
HETATM   31  C   UNL     1      40.965  -9.114  14.010  1.00  0.00     0.039 A 
HETATM   32  C   UNL     1      41.737  -9.818  13.077  1.00  0.00     0.020 A 
BRANCH  30  33
HETATM   33  O   UNL     1      40.391  -6.966  15.029  1.00  0.00    -0.345 OA
BRANCH  33  34
HETATM   34  C   UNL     1      40.621  -7.089  16.438  1.00  0.00     0.121 C 
HETATM   35  C   UNL     1      42.107  -6.929  16.754  1.00  0.00     0.040 C 
HETATM   36  C   UNL     1      39.824  -5.974  17.111  1.00  0.00     0.040 C 
ENDBRANCH  33  34
ENDBRANCH  30  33
ENDBRANCH  23  26
ENDBRANCH   1  22
BRANCH   1  37
HETATM   37  C   UNL     1      45.853  -8.933   8.608  1.00  0.00     0.254 C 
BRANCH  37  38
HETATM   38  N   UNL     1      46.629  -9.590   7.524  1.00  0.00    -0.077 N 
HETATM   39  H   UNL     1      46.454 -10.619   7.550  1.00  0.00     0.274 HD
HETATM   40  H   UNL     1      46.350  -9.285   6.585  1.00  0.00     0.274 HD
HETATM   41  H   UNL     1      47.641  -9.466   7.625  1.00  0.00     0.274 HD
ENDBRANCH  37  38
ENDBRANCH   1  37
TORSDOF 11
ENDMDL
MODEL 9
REMARK VINA RESULT:      -8.3      2.948     12.401
REMARK  11 active torsions:
REMARK  status: ('A' for Active; 'I' for Inactive)
REMARK    1  A    between atoms: C_2  and  O_3 
REMARK    2  A    between atoms: C_2  and  C_4 
REMARK    3  A    between atoms: C_8  and  C_9 
REMARK    4  A    between atoms: C_12  and  C_13 
REMARK    5  A    between atoms: C_13  and  C_14 
REMARK    6  A    between atoms: C_14  and  N_15 
REMARK    7  A    between atoms: C_14  and  C_29 
REMARK       I    between atoms: N_15  and  C_16 
REMARK    8  A    between atoms: C_16  and  C_17 
REMARK    9  A    between atoms: C_21  and  O_22 
REMARK   10  A    between atoms: O_22  and  C_23 
REMARK   11  A    between atoms: C_29  and  N_30 
ROOT
HETATM    1  C   UNL     1      44.257 -10.636   8.157  1.00  0.00     0.114 C 
ENDROOT
BRANCH   1   2
HETATM    2  C   UNL     1      43.122 -11.001   7.171  1.00  0.00     0.065 C 
BRANCH   2   3
HETATM    3  C   UNL     1      43.279 -12.306   6.437  1.00  0.00    -0.056 A 
HETATM    4  C   UNL     1      43.803 -13.438   7.072  1.00  0.00     0.008 A 
HETATM    5  C   UNL     1      43.874 -14.659   6.392  1.00  0.00     0.014 A 
HETATM    6  C   UNL     1      43.419 -14.778   5.071  1.00  0.00    -0.006 A 
HETATM    7  C   UNL     1      42.923 -13.634   4.433  1.00  0.00     0.014 A 
HETATM    8  C   UNL     1      42.850 -12.413   5.109  1.00  0.00     0.008 A 
BRANCH   6   9
HETATM    9  C   UNL     1      43.435 -16.077   4.414  1.00  0.00     0.085 A 
HETATM   10  C   UNL     1      43.088 -16.330   3.103  1.00  0.00     0.130 A 
HETATM   11  N   UNL     1      43.202 -17.687   2.941  1.00  0.00    -0.315 N 
HETATM   12  C   UNL     1      43.621 -18.206   4.160  1.00  0.00     0.143 A 
HETATM   13  C   UNL     1      42.953 -18.457   1.812  1.00  0.00     0.098 A 
HETATM   14  C   UNL     1      43.809 -19.633   4.258  1.00  0.00     0.017 A 
HETATM   15  N   UNL     1      43.770 -17.248   5.058  1.00  0.00    -0.228 NA
HETATM   16  C   UNL     1      43.572 -20.367   3.141  1.00  0.00     0.015 A 
HETATM   17  C   UNL     1      43.128 -19.784   1.884  1.00  0.00     0.018 A 
BRANCH  14  18
HETATM   18  C   UNL     1      44.275 -20.286   5.550  1.00  0.00     0.150 C 
HETATM   19  C   UNL     1      43.356 -19.937   6.717  1.00  0.00     0.044 C 
BRANCH  18  20
HETATM   20  O   UNL     1      44.316 -21.709   5.416  1.00  0.00    -0.391 OA
HETATM   21  H   UNL     1      44.422 -22.076   6.310  1.00  0.00     0.210 HD
ENDBRANCH  18  20
ENDBRANCH  14  18
ENDBRANCH   6   9
ENDBRANCH   2   3
ENDBRANCH   1   2
BRANCH   1  22
HETATM   22  N   UNL     1      43.613  -9.988   9.326  1.00  0.00    -0.350 N 
HETATM   23  C   UNL     1      43.965 -10.144  10.647  1.00  0.00     0.252 C 
HETATM   24  O   UNL     1      44.938 -10.810  10.986  1.00  0.00    -0.268 OA
HETATM   25  H   UNL     1      42.659  -9.672   9.171  1.00  0.00     0.163 HD
BRANCH  23  26
HETATM   26  C   UNL     1      43.107  -9.457  11.655  1.00  0.00     0.033 A 
HETATM   27  C   UNL     1      41.827  -9.960  11.900  1.00  0.00     0.043 A 
HETATM   28  C   UNL     1      40.998  -9.334  12.838  1.00  0.00     0.068 A 
HETATM   29 CL   UNL     1      39.422 -10.001  13.085  1.00  0.00    -0.081 Cl
HETATM   30  C   UNL     1      41.430  -8.198  13.543  1.00  0.00     0.091 A 
HETATM   31  C   UNL     1      42.723  -7.723  13.317  1.00  0.00     0.039 A 
HETATM   32  C   UNL     1      43.559  -8.349  12.383  1.00  0.00     0.020 A 
BRANCH  30  33
HETATM   33  O   UNL     1      40.548  -7.652  14.435  1.00  0.00    -0.345 OA
BRANCH  33  34
HETATM   34  C   UNL     1      40.038  -6.330  14.223  1.00  0.00     0.121 C 
HETATM   35  C   UNL     1      39.590  -6.155  12.774  1.00  0.00     0.040 C 
HETATM   36  C   UNL     1      38.842  -6.167  15.159  1.00  0.00     0.040 C 
ENDBRANCH  33  34
ENDBRANCH  30  33
ENDBRANCH  23  26
ENDBRANCH   1  22
BRANCH   1  37
HETATM   37  C   UNL     1      45.335  -9.763   7.452  1.00  0.00     0.254 C 
BRANCH  37  38
HETATM   38  N   UNL     1      46.684 -10.382   7.528  1.00  0.00    -0.077 N 
HETATM   39  H   UNL     1      47.179 -10.241   6.620  1.00  0.00     0.274 HD
HETATM   40  H   UNL     1      47.285  -9.955   8.241  1.00  0.00     0.274 HD
HETATM   41  H   UNL     1      46.651 -11.394   7.685  1.00  0.00     0.274 HD
ENDBRANCH  37  38
ENDBRANCH   1  37
TORSDOF 11
ENDMDL
MODEL 10
REMARK VINA RESULT:      -8.2      4.501      7.832
REMARK  11 active torsions:
REMARK  status: ('A' for Active; 'I' for Inactive)
REMARK    1  A    between atoms: C_2  and  O_3 
REMARK    2  A    between atoms: C_2  and  C_4 
REMARK    3  A    between atoms: C_8  and  C_9 
REMARK    4  A    between atoms: C_12  and  C_13 
REMARK    5  A    between atoms: C_13  and  C_14 
REMARK    6  A    between atoms: C_14  and  N_15 
REMARK    7  A    between atoms: C_14  and  C_29 
REMARK       I    between atoms: N_15  and  C_16 
REMARK    8  A    between atoms: C_16  and  C_17 
REMARK    9  A    between atoms: C_21  and  O_22 
REMARK   10  A    between atoms: O_22  and  C_23 
REMARK   11  A    between atoms: C_29  and  N_30 
ROOT
HETATM    1  C   UNL     1      40.330 -12.491  -0.606  1.00  0.00     0.114 C 
ENDROOT
BRANCH   1   2
HETATM    2  C   UNL     1      40.273 -11.048  -0.050  1.00  0.00     0.065 C 
BRANCH   2   3
HETATM    3  C   UNL     1      40.527 -10.898   1.425  1.00  0.00    -0.056 A 
HETATM    4  C   UNL     1      41.805 -10.613   1.917  1.00  0.00     0.008 A 
HETATM    5  C   UNL     1      42.004 -10.408   3.287  1.00  0.00     0.014 A 
HETATM    6  C   UNL     1      40.935 -10.475   4.191  1.00  0.00    -0.006 A 
HETATM    7  C   UNL     1      39.664 -10.790   3.695  1.00  0.00     0.014 A 
HETATM    8  C   UNL     1      39.460 -10.995   2.328  1.00  0.00     0.008 A 
BRANCH   6   9
HETATM    9  C   UNL     1      41.158 -10.183   5.600  1.00  0.00     0.085 A 
HETATM   10  C   UNL     1      40.221  -9.701   6.489  1.00  0.00     0.130 A 
HETATM   11  N   UNL     1      40.885  -9.527   7.676  1.00  0.00    -0.315 N 
HETATM   12  C   UNL     1      42.202  -9.917   7.463  1.00  0.00     0.143 A 
HETATM   13  C   UNL     1      40.402  -9.050   8.888  1.00  0.00     0.098 A 
HETATM   14  C   UNL     1      43.123  -9.820   8.570  1.00  0.00     0.017 A 
HETATM   15  N   UNL     1      42.382 -10.319   6.217  1.00  0.00    -0.228 NA
HETATM   16  C   UNL     1      42.629  -9.362   9.749  1.00  0.00     0.015 A 
HETATM   17  C   UNL     1      41.243  -8.958   9.928  1.00  0.00     0.018 A 
BRANCH  14  18
HETATM   18  C   UNL     1      44.580 -10.233   8.430  1.00  0.00     0.150 C 
HETATM   19  C   UNL     1      45.340 -10.058   9.741  1.00  0.00     0.044 C 
BRANCH  18  20
HETATM   20  O   UNL     1      44.685 -11.600   8.025  1.00  0.00    -0.391 OA
HETATM   21  H   UNL     1      44.099 -12.115   8.605  1.00  0.00     0.210 HD
ENDBRANCH  18  20
ENDBRANCH  14  18
ENDBRANCH   6   9
ENDBRANCH   2   3
ENDBRANCH   1   2
BRANCH   1  22
HETATM   22  N   UNL     1      41.079 -13.300   0.386  1.00  0.00    -0.350 N 
HETATM   23  C   UNL     1      40.817 -14.602   0.750  1.00  0.00     0.252 C 
HETATM   24  O   UNL     1      39.941 -15.264   0.204  1.00  0.00    -0.268 OA
HETATM   25  H   UNL     1      41.605 -12.763   1.070  1.00  0.00     0.163 HD
BRANCH  23  26
HETATM   26  C   UNL     1      41.656 -15.175   1.841  1.00  0.00     0.033 A 
HETATM   27  C   UNL     1      42.122 -16.485   1.710  1.00  0.00     0.043 A 
HETATM   28  C   UNL     1      42.910 -17.052   2.719  1.00  0.00     0.068 A 
HETATM   29 CL   UNL     1      43.443 -18.681   2.499  1.00  0.00    -0.081 Cl
HETATM   30  C   UNL     1      43.242 -16.323   3.873  1.00  0.00     0.091 A 
HETATM   31  C   UNL     1      42.801 -15.002   3.980  1.00  0.00     0.039 A 
HETATM   32  C   UNL     1      42.017 -14.429   2.971  1.00  0.00     0.020 A 
BRANCH  30  33
HETATM   33  O   UNL     1      44.010 -16.961   4.808  1.00  0.00    -0.345 OA
BRANCH  33  34
HETATM   34  C   UNL     1      43.409 -17.482   6.000  1.00  0.00     0.121 C 
HETATM   35  C   UNL     1      43.609 -18.993   6.084  1.00  0.00     0.040 C 
HETATM   36  C   UNL     1      44.105 -16.800   7.175  1.00  0.00     0.040 C 
ENDBRANCH  33  34
ENDBRANCH  30  33
ENDBRANCH  23  26
ENDBRANCH   1  22
BRANCH   1  37
HETATM   37  C   UNL     1      40.942 -12.503  -2.036  1.00  0.00     0.254 C 
BRANCH  37  38
HETATM   38  N   UNL     1      40.783 -13.826  -2.695  1.00  0.00    -0.077 N 
HETATM   39  H   UNL     1      39.818 -13.903  -3.085  1.00  0.00     0.274 HD
HETATM   40  H   UNL     1      41.415 -13.959  -3.492  1.00  0.00     0.274 HD
HETATM   41  H   UNL     1      40.897 -14.611  -2.047  1.00  0.00     0.274 HD
ENDBRANCH  37  38
ENDBRANCH   1  37
TORSDOF 11
ENDMDL
