MODEL 1
REMARK VINA RESULT:      -8.8      0.000      0.000
REMARK  4 active torsions:
REMARK  status: ('A' for Active; 'I' for Inactive)
REMARK    1  A    between atoms: C_6  and  N_7 
REMARK       I    between atoms: N_7  and  C_8 
REMARK    2  A    between atoms: C_8  and  C_9 
REMARK    3  A    between atoms: C_10  and  C_11 
REMARK    4  A    between atoms: C_14  and  O_15 
ROOT
HETATM    1  C   UNL     1      41.816 -13.296   1.998  1.00  0.00     0.131 C 
HETATM    2  C   UNL     1      41.717 -11.960   2.783  1.00  0.00     0.177 C 
HETATM    3  N   UNL     1      40.325 -11.563   3.020  1.00  0.00    -0.088 N 
HETATM    4  C   UNL     1      39.250 -12.107   2.363  1.00  0.00     0.721 A 
HETATM    5  N   UNL     1      39.396 -13.162   1.533  1.00  0.00    -0.218 N 
HETATM    6  C   UNL     1      40.713 -13.364   0.923  1.00  0.00     0.111 C 
HETATM    7  C   UNL     1      40.724 -14.664   0.123  1.00  0.00     0.034 C 
HETATM    8  N   UNL     1      39.954 -10.472   3.716  1.00  0.00    -0.149 NA
HETATM    9  C   UNL     1      38.631 -10.482   3.525  1.00  0.00     0.275 A 
HETATM   10  N   UNL     1      38.161 -11.472   2.705  1.00  0.00    -0.055 NA
HETATM   11  H   UNL     1      38.601 -13.317   0.910  1.00  0.00     0.178 HD
ENDROOT
BRANCH   1  12
HETATM   12  C   UNL     1      41.864 -14.526   2.908  1.00  0.00     0.230 C 
HETATM   13  N   UNL     1      43.062 -15.205   2.923  1.00  0.00    -0.326 N 
HETATM   14  H   UNL     1      43.771 -14.875   2.275  1.00  0.00     0.169 HD
HETATM   15  O   UNL     1      40.837 -14.853   3.499  1.00  0.00    -0.273 OA
BRANCH  13  16
HETATM   16  C   UNL     1      43.386 -16.417   3.574  1.00  0.00     0.040 A 
HETATM   17  C   UNL     1      43.622 -16.598   4.946  1.00  0.00    -0.035 A 
HETATM   18  C   UNL     1      43.844 -17.906   5.429  1.00  0.00     0.015 A 
HETATM   19  C   UNL     1      43.718 -15.489   5.955  1.00  0.00     0.050 C 
HETATM   20  C   UNL     1      43.913 -19.011   4.573  1.00  0.00    -0.061 A 
HETATM   21  C   UNL     1      44.113 -20.392   5.124  1.00  0.00     0.048 C 
HETATM   22  C   UNL     1      43.743 -18.809   3.207  1.00  0.00     0.009 A 
HETATM   23  C   UNL     1      43.498 -17.525   2.714  1.00  0.00     0.030 A 
ENDBRANCH  13  16
ENDBRANCH   1  12
BRANCH   2  24
HETATM   24  C   UNL     1      42.615 -11.892   4.012  1.00  0.00    -0.032 A 
HETATM   25  C   UNL     1      42.041 -12.067   5.282  1.00  0.00     0.012 A 
HETATM   26  C   UNL     1      42.825 -12.014   6.437  1.00  0.00     0.037 A 
HETATM   27  C   UNL     1      44.198 -11.801   6.349  1.00  0.00     0.068 A 
HETATM   28  C   UNL     1      44.777 -11.580   5.101  1.00  0.00     0.037 A 
HETATM   29  C   UNL     1      43.991 -11.618   3.944  1.00  0.00     0.012 A 
BRANCH  27  30
HETATM   30  O   UNL     1      44.868 -11.797   7.542  1.00  0.00    -0.356 OA
HETATM   31  C   UNL     1      45.837 -10.765   7.688  1.00  0.00     0.210 C 
ENDBRANCH  27  30
ENDBRANCH   2  24
TORSDOF 4
ENDMDL
MODEL 2
REMARK VINA RESULT:      -8.4      1.856      5.664
REMARK  4 active torsions:
REMARK  status: ('A' for Active; 'I' for Inactive)
REMARK    1  A    between atoms: C_6  and  N_7 
REMARK       I    between atoms: N_7  and  C_8 
REMARK    2  A    between atoms: C_8  and  C_9 
REMARK    3  A    between atoms: C_10  and  C_11 
REMARK    4  A    between atoms: C_14  and  O_15 
ROOT
HETATM    1  C   UNL     1      39.997 -13.057   4.055  1.00  0.00     0.131 C 
HETATM    2  C   UNL     1      40.123 -14.409   3.305  1.00  0.00     0.177 C 
HETATM    3  N   UNL     1      40.184 -14.229   1.851  1.00  0.00    -0.088 N 
HETATM    4  C   UNL     1      39.847 -13.064   1.208  1.00  0.00     0.721 A 
HETATM    5  N   UNL     1      39.557 -11.940   1.898  1.00  0.00    -0.218 N 
HETATM    6  C   UNL     1      39.076 -12.098   3.274  1.00  0.00     0.111 C 
HETATM    7  C   UNL     1      38.922 -10.730   3.933  1.00  0.00     0.034 C 
HETATM    8  N   UNL     1      40.341 -15.232   0.966  1.00  0.00    -0.149 NA
HETATM    9  C   UNL     1      40.193 -14.580  -0.191  1.00  0.00     0.275 A 
HETATM   10  N   UNL     1      39.894 -13.249  -0.084  1.00  0.00    -0.055 NA
HETATM   11  H   UNL     1      39.076 -11.225   1.350  1.00  0.00     0.178 HD
ENDROOT
BRANCH   1  12
HETATM   12  C   UNL     1      41.351 -12.443   4.422  1.00  0.00     0.230 C 
HETATM   13  N   UNL     1      41.622 -12.370   5.770  1.00  0.00    -0.326 N 
HETATM   14  H   UNL     1      40.872 -12.655   6.393  1.00  0.00     0.169 HD
HETATM   15  O   UNL     1      42.059 -12.011   3.515  1.00  0.00    -0.273 OA
BRANCH  13  16
HETATM   16  C   UNL     1      42.727 -11.775   6.421  1.00  0.00     0.040 A 
HETATM   17  C   UNL     1      43.978 -12.364   6.662  1.00  0.00    -0.035 A 
HETATM   18  C   UNL     1      44.995 -11.580   7.250  1.00  0.00     0.015 A 
HETATM   19  C   UNL     1      44.316 -13.804   6.396  1.00  0.00     0.050 C 
HETATM   20  C   UNL     1      44.768 -10.264   7.668  1.00  0.00    -0.061 A 
HETATM   21  C   UNL     1      45.880  -9.447   8.254  1.00  0.00     0.048 C 
HETATM   22  C   UNL     1      43.503  -9.713   7.484  1.00  0.00     0.009 A 
HETATM   23  C   UNL     1      42.493 -10.467   6.882  1.00  0.00     0.030 A 
ENDBRANCH  13  16
ENDBRANCH   1  12
BRANCH   2  24
HETATM   24  C   UNL     1      41.186 -15.342   3.875  1.00  0.00    -0.032 A 
HETATM   25  C   UNL     1      40.947 -15.966   5.110  1.00  0.00     0.012 A 
HETATM   26  C   UNL     1      41.891 -16.830   5.671  1.00  0.00     0.037 A 
HETATM   27  C   UNL     1      43.084 -17.101   5.005  1.00  0.00     0.068 A 
HETATM   28  C   UNL     1      43.356 -16.456   3.801  1.00  0.00     0.037 A 
HETATM   29  C   UNL     1      42.418 -15.578   3.244  1.00  0.00     0.012 A 
BRANCH  27  30
HETATM   30  O   UNL     1      43.919 -17.982   5.634  1.00  0.00    -0.356 OA
HETATM   31  C   UNL     1      43.949 -19.292   5.076  1.00  0.00     0.210 C 
ENDBRANCH  27  30
ENDBRANCH   2  24
TORSDOF 4
ENDMDL
MODEL 3
REMARK VINA RESULT:      -8.0     16.101     17.899
REMARK  4 active torsions:
REMARK  status: ('A' for Active; 'I' for Inactive)
REMARK    1  A    between atoms: C_6  and  N_7 
REMARK       I    between atoms: N_7  and  C_8 
REMARK    2  A    between atoms: C_8  and  C_9 
REMARK    3  A    between atoms: C_10  and  C_11 
REMARK    4  A    between atoms: C_14  and  O_15 
ROOT
HETATM    1  C   UNL     1      47.198 -28.514   0.246  1.00  0.00     0.131 C 
HETATM    2  C   UNL     1      46.573 -28.722   1.651  1.00  0.00     0.177 C 
HETATM    3  N   UNL     1      45.241 -29.331   1.576  1.00  0.00    -0.088 N 
HETATM    4  C   UNL     1      44.497 -29.409   0.426  1.00  0.00     0.721 A 
HETATM    5  N   UNL     1      45.011 -29.040  -0.768  1.00  0.00    -0.218 N 
HETATM    6  C   UNL     1      46.114 -28.076  -0.759  1.00  0.00     0.111 C 
HETATM    7  C   UNL     1      46.645 -27.877  -2.177  1.00  0.00     0.034 C 
HETATM    8  N   UNL     1      44.496 -29.663   2.648  1.00  0.00    -0.149 NA
HETATM    9  C   UNL     1      43.353 -30.034   2.061  1.00  0.00     0.275 A 
HETATM   10  N   UNL     1      43.318 -29.897   0.700  1.00  0.00    -0.055 NA
HETATM   11  H   UNL     1      44.310 -28.891  -1.497  1.00  0.00     0.178 HD
ENDROOT
BRANCH   1  12
HETATM   12  C   UNL     1      48.028 -29.710  -0.228  1.00  0.00     0.230 C 
HETATM   13  N   UNL     1      49.392 -29.529  -0.212  1.00  0.00    -0.326 N 
HETATM   14  H   UNL     1      49.717 -28.598   0.036  1.00  0.00     0.169 HD
HETATM   15  O   UNL     1      47.432 -30.704  -0.639  1.00  0.00    -0.273 OA
BRANCH  13  16
HETATM   16  C   UNL     1      50.407 -30.396  -0.675  1.00  0.00     0.040 A 
HETATM   17  C   UNL     1      51.109 -31.349   0.080  1.00  0.00    -0.035 A 
HETATM   18  C   UNL     1      52.031 -32.192  -0.579  1.00  0.00     0.015 A 
HETATM   19  C   UNL     1      51.004 -31.512   1.570  1.00  0.00     0.050 C 
HETATM   20  C   UNL     1      52.320 -32.053  -1.941  1.00  0.00    -0.061 A 
HETATM   21  C   UNL     1      53.276 -32.989  -2.618  1.00  0.00     0.048 C 
HETATM   22  C   UNL     1      51.666 -31.060  -2.665  1.00  0.00     0.009 A 
HETATM   23  C   UNL     1      50.734 -30.233  -2.034  1.00  0.00     0.030 A 
ENDBRANCH  13  16
ENDBRANCH   1  12
BRANCH   2  24
HETATM   24  C   UNL     1      47.512 -29.371   2.661  1.00  0.00    -0.032 A 
HETATM   25  C   UNL     1      47.287 -30.706   3.036  1.00  0.00     0.012 A 
HETATM   26  C   UNL     1      48.122 -31.342   3.957  1.00  0.00     0.037 A 
HETATM   27  C   UNL     1      49.208 -30.667   4.511  1.00  0.00     0.068 A 
HETATM   28  C   UNL     1      49.419 -29.329   4.185  1.00  0.00     0.037 A 
HETATM   29  C   UNL     1      48.574 -28.685   3.273  1.00  0.00     0.012 A 
BRANCH  27  30
HETATM   30  O   UNL     1      49.972 -31.398   5.378  1.00  0.00    -0.356 OA
HETATM   31  C   UNL     1      51.366 -31.112   5.345  1.00  0.00     0.210 C 
ENDBRANCH  27  30
ENDBRANCH   2  24
TORSDOF 4
ENDMDL
MODEL 4
REMARK VINA RESULT:      -7.8     16.247     18.280
REMARK  4 active torsions:
REMARK  status: ('A' for Active; 'I' for Inactive)
REMARK    1  A    between atoms: C_6  and  N_7 
REMARK       I    between atoms: N_7  and  C_8 
REMARK    2  A    between atoms: C_8  and  C_9 
REMARK    3  A    between atoms: C_10  and  C_11 
REMARK    4  A    between atoms: C_14  and  O_15 
ROOT
HETATM    1  C   UNL     1      47.613 -28.811   0.865  1.00  0.00     0.131 C 
HETATM    2  C   UNL     1      48.258 -28.881  -0.545  1.00  0.00     0.177 C 
HETATM    3  N   UNL     1      49.401 -29.798  -0.582  1.00  0.00    -0.088 N 
HETATM    4  C   UNL     1      50.033 -30.282   0.536  1.00  0.00     0.721 A 
HETATM    5  N   UNL     1      49.548 -30.045   1.774  1.00  0.00    -0.218 N 
HETATM    6  C   UNL     1      48.705 -28.859   1.953  1.00  0.00     0.111 C 
HETATM    7  C   UNL     1      48.150 -28.823   3.374  1.00  0.00     0.034 C 
HETATM    8  N   UNL     1      50.112 -30.082  -1.691  1.00  0.00    -0.149 NA
HETATM    9  C   UNL     1      51.097 -30.829  -1.180  1.00  0.00     0.275 A 
HETATM   10  N   UNL     1      51.079 -30.978   0.180  1.00  0.00    -0.055 NA
HETATM   11  H   UNL     1      50.217 -30.219   2.526  1.00  0.00     0.178 HD
ENDROOT
BRANCH   1  12
HETATM   12  C   UNL     1      46.498 -29.839   1.069  1.00  0.00     0.230 C 
HETATM   13  N   UNL     1      45.220 -29.328   1.106  1.00  0.00    -0.326 N 
HETATM   14  H   UNL     1      45.142 -28.315   1.073  1.00  0.00     0.169 HD
HETATM   15  O   UNL     1      46.815 -31.014   1.246  1.00  0.00    -0.273 OA
BRANCH  13  16
HETATM   16  C   UNL     1      44.005 -29.997   1.375  1.00  0.00     0.040 A 
HETATM   17  C   UNL     1      43.413 -31.010   0.604  1.00  0.00    -0.035 A 
HETATM   18  C   UNL     1      42.236 -31.627   1.081  1.00  0.00     0.015 A 
HETATM   19  C   UNL     1      43.904 -31.463  -0.742  1.00  0.00     0.050 C 
HETATM   20  C   UNL     1      41.603 -31.206   2.255  1.00  0.00    -0.061 A 
HETATM   21  C   UNL     1      40.374 -31.907   2.754  1.00  0.00     0.048 C 
HETATM   22  C   UNL     1      42.163 -30.155   2.977  1.00  0.00     0.009 A 
HETATM   23  C   UNL     1      43.340 -29.550   2.531  1.00  0.00     0.030 A 
ENDBRANCH  13  16
ENDBRANCH   1  12
BRANCH   2  24
HETATM   24  C   UNL     1      47.257 -29.067  -1.679  1.00  0.00    -0.032 A 
HETATM   25  C   UNL     1      46.414 -27.996  -2.021  1.00  0.00     0.012 A 
HETATM   26  C   UNL     1      45.482 -28.120  -3.055  1.00  0.00     0.037 A 
HETATM   27  C   UNL     1      45.382 -29.306  -3.778  1.00  0.00     0.068 A 
HETATM   28  C   UNL     1      46.179 -30.392  -3.423  1.00  0.00     0.037 A 
HETATM   29  C   UNL     1      47.103 -30.276  -2.378  1.00  0.00     0.012 A 
BRANCH  27  30
HETATM   30  O   UNL     1      44.456 -29.302  -4.785  1.00  0.00    -0.356 OA
HETATM   31  C   UNL     1      44.318 -30.535  -5.484  1.00  0.00     0.210 C 
ENDBRANCH  27  30
ENDBRANCH   2  24
TORSDOF 4
ENDMDL
MODEL 5
REMARK VINA RESULT:      -7.6      2.818      5.923
REMARK  4 active torsions:
REMARK  status: ('A' for Active; 'I' for Inactive)
REMARK    1  A    between atoms: C_6  and  N_7 
REMARK       I    between atoms: N_7  and  C_8 
REMARK    2  A    between atoms: C_8  and  C_9 
REMARK    3  A    between atoms: C_10  and  C_11 
REMARK    4  A    between atoms: C_14  and  O_15 
ROOT
HETATM    1  C   UNL     1      40.714 -10.842   2.733  1.00  0.00     0.131 C 
HETATM    2  C   UNL     1      40.988 -11.486   4.119  1.00  0.00     0.177 C 
HETATM    3  N   UNL     1      39.951 -11.146   5.098  1.00  0.00    -0.088 N 
HETATM    4  C   UNL     1      39.037 -10.136   4.929  1.00  0.00     0.721 A 
HETATM    5  N   UNL     1      38.947  -9.460   3.763  1.00  0.00    -0.218 N 
HETATM    6  C   UNL     1      40.139  -9.422   2.910  1.00  0.00     0.111 C 
HETATM    7  C   UNL     1      39.814  -8.729   1.590  1.00  0.00     0.034 C 
HETATM    8  N   UNL     1      39.918 -11.609   6.362  1.00  0.00    -0.149 NA
HETATM    9  C   UNL     1      38.893 -10.914   6.865  1.00  0.00     0.275 A 
HETATM   10  N   UNL     1      38.324 -10.004   6.014  1.00  0.00    -0.055 NA
HETATM   11  H   UNL     1      38.433  -8.580   3.828  1.00  0.00     0.178 HD
ENDROOT
BRANCH   1  12
HETATM   12  C   UNL     1      39.878 -11.733   1.810  1.00  0.00     0.230 C 
HETATM   13  N   UNL     1      40.529 -12.203   0.692  1.00  0.00    -0.326 N 
HETATM   14  H   UNL     1      41.472 -11.855   0.544  1.00  0.00     0.169 HD
HETATM   15  O   UNL     1      38.694 -11.910   2.089  1.00  0.00    -0.273 OA
BRANCH  13  16
HETATM   16  C   UNL     1      40.009 -12.955  -0.386  1.00  0.00     0.040 A 
HETATM   17  C   UNL     1      39.766 -14.337  -0.408  1.00  0.00    -0.035 A 
HETATM   18  C   UNL     1      39.156 -14.901  -1.550  1.00  0.00     0.015 A 
HETATM   19  C   UNL     1      40.161 -15.297   0.678  1.00  0.00     0.050 C 
HETATM   20  C   UNL     1      38.859 -14.138  -2.685  1.00  0.00    -0.061 A 
HETATM   21  C   UNL     1      38.177 -14.761  -3.866  1.00  0.00     0.048 C 
HETATM   22  C   UNL     1      39.166 -12.780  -2.676  1.00  0.00     0.009 A 
HETATM   23  C   UNL     1      39.749 -12.202  -1.545  1.00  0.00     0.030 A 
ENDBRANCH  13  16
ENDBRANCH   1  12
BRANCH   2  24
HETATM   24  C   UNL     1      41.344 -12.967   4.058  1.00  0.00    -0.032 A 
HETATM   25  C   UNL     1      42.607 -13.340   3.570  1.00  0.00     0.012 A 
HETATM   26  C   UNL     1      42.978 -14.685   3.498  1.00  0.00     0.037 A 
HETATM   27  C   UNL     1      42.106 -15.683   3.925  1.00  0.00     0.068 A 
HETATM   28  C   UNL     1      40.833 -15.333   4.369  1.00  0.00     0.037 A 
HETATM   29  C   UNL     1      40.452 -13.987   4.429  1.00  0.00     0.012 A 
BRANCH  27  30
HETATM   30  O   UNL     1      42.586 -16.960   3.834  1.00  0.00    -0.356 OA
HETATM   31  C   UNL     1      42.808 -17.432   2.509  1.00  0.00     0.210 C 
ENDBRANCH  27  30
ENDBRANCH   2  24
TORSDOF 4
ENDMDL
MODEL 6
REMARK VINA RESULT:      -7.4      2.471      7.669
REMARK  4 active torsions:
REMARK  status: ('A' for Active; 'I' for Inactive)
REMARK    1  A    between atoms: C_6  and  N_7 
REMARK       I    between atoms: N_7  and  C_8 
REMARK    2  A    between atoms: C_8  and  C_9 
REMARK    3  A    between atoms: C_10  and  C_11 
REMARK    4  A    between atoms: C_14  and  O_15 
ROOT
HETATM    1  C   UNL     1      43.093 -12.871   5.037  1.00  0.00     0.131 C 
HETATM    2  C   UNL     1      43.023 -14.370   4.643  1.00  0.00     0.177 C 
HETATM    3  N   UNL     1      42.843 -15.238   5.811  1.00  0.00    -0.088 N 
HETATM    4  C   UNL     1      43.038 -14.831   7.107  1.00  0.00     0.721 A 
HETATM    5  N   UNL     1      43.286 -13.537   7.406  1.00  0.00    -0.218 N 
HETATM    6  C   UNL     1      43.876 -12.703   6.355  1.00  0.00     0.111 C 
HETATM    7  C   UNL     1      43.966 -11.254   6.829  1.00  0.00     0.034 C 
HETATM    8  N   UNL     1      42.704 -16.577   5.749  1.00  0.00    -0.149 NA
HETATM    9  C   UNL     1      42.716 -16.897   7.047  1.00  0.00     0.275 A 
HETATM   10  N   UNL     1      42.913 -15.853   7.911  1.00  0.00    -0.055 NA
HETATM   11  H   UNL     1      43.667 -13.390   8.342  1.00  0.00     0.178 HD
ENDROOT
BRANCH   1  12
HETATM   12  C   UNL     1      41.724 -12.185   5.045  1.00  0.00     0.230 C 
HETATM   13  N   UNL     1      41.530 -11.240   4.063  1.00  0.00    -0.326 N 
HETATM   14  H   UNL     1      42.334 -11.031   3.478  1.00  0.00     0.169 HD
HETATM   15  O   UNL     1      40.935 -12.472   5.942  1.00  0.00    -0.273 OA
BRANCH  13  16
HETATM   16  C   UNL     1      40.428 -10.377   3.868  1.00  0.00     0.040 A 
HETATM   17  C   UNL     1      39.229 -10.680   3.203  1.00  0.00    -0.035 A 
HETATM   18  C   UNL     1      38.200  -9.714   3.187  1.00  0.00     0.015 A 
HETATM   19  C   UNL     1      38.966 -11.947   2.440  1.00  0.00     0.050 C 
HETATM   20  C   UNL     1      38.368  -8.442   3.745  1.00  0.00    -0.061 A 
HETATM   21  C   UNL     1      37.240  -7.453   3.744  1.00  0.00     0.048 C 
HETATM   22  C   UNL     1      39.585  -8.130   4.344  1.00  0.00     0.009 A 
HETATM   23  C   UNL     1      40.606  -9.083   4.390  1.00  0.00     0.030 A 
ENDBRANCH  13  16
ENDBRANCH   1  12
BRANCH   2  24
HETATM   24  C   UNL     1      42.083 -14.666   3.481  1.00  0.00    -0.032 A 
HETATM   25  C   UNL     1      42.467 -14.284   2.185  1.00  0.00     0.012 A 
HETATM   26  C   UNL     1      41.639 -14.536   1.088  1.00  0.00     0.037 A 
HETATM   27  C   UNL     1      40.419 -15.186   1.259  1.00  0.00     0.068 A 
HETATM   28  C   UNL     1      40.003 -15.531   2.542  1.00  0.00     0.037 A 
HETATM   29  C   UNL     1      40.824 -15.267   3.645  1.00  0.00     0.012 A 
BRANCH  27  30
HETATM   30  O   UNL     1      39.706 -15.404   0.112  1.00  0.00    -0.356 OA
HETATM   31  C   UNL     1      39.709 -14.326  -0.817  1.00  0.00     0.210 C 
ENDBRANCH  27  30
ENDBRANCH   2  24
TORSDOF 4
ENDMDL
MODEL 7
REMARK VINA RESULT:      -7.1     16.210     17.623
REMARK  4 active torsions:
REMARK  status: ('A' for Active; 'I' for Inactive)
REMARK    1  A    between atoms: C_6  and  N_7 
REMARK       I    between atoms: N_7  and  C_8 
REMARK    2  A    between atoms: C_8  and  C_9 
REMARK    3  A    between atoms: C_10  and  C_11 
REMARK    4  A    between atoms: C_14  and  O_15 
ROOT
HETATM    1  C   UNL     1      45.761 -28.579  -0.273  1.00  0.00     0.131 C 
HETATM    2  C   UNL     1      44.443 -29.067  -0.931  1.00  0.00     0.177 C 
HETATM    3  N   UNL     1      44.673 -29.658  -2.252  1.00  0.00    -0.088 N 
HETATM    4  C   UNL     1      45.836 -29.512  -2.966  1.00  0.00     0.721 A 
HETATM    5  N   UNL     1      46.919 -28.910  -2.428  1.00  0.00    -0.218 N 
HETATM    6  C   UNL     1      46.689 -27.959  -1.337  1.00  0.00     0.111 C 
HETATM    7  C   UNL     1      48.025 -27.479  -0.774  1.00  0.00     0.034 C 
HETATM    8  N   UNL     1      43.709 -30.202  -3.020  1.00  0.00    -0.149 NA
HETATM    9  C   UNL     1      44.389 -30.458  -4.143  1.00  0.00     0.275 A 
HETATM   10  N   UNL     1      45.696 -30.054  -4.146  1.00  0.00    -0.055 NA
HETATM   11  H   UNL     1      47.622 -28.625  -3.111  1.00  0.00     0.178 HD
ENDROOT
BRANCH   1  12
HETATM   12  C   UNL     1      46.440 -29.652   0.583  1.00  0.00     0.230 C 
HETATM   13  N   UNL     1      46.495 -29.385   1.933  1.00  0.00    -0.326 N 
HETATM   14  H   UNL     1      46.154 -28.474   2.223  1.00  0.00     0.169 HD
HETATM   15  O   UNL     1      46.933 -30.624   0.014  1.00  0.00    -0.273 OA
BRANCH  13  16
HETATM   16  C   UNL     1      47.135 -30.121   2.956  1.00  0.00     0.040 A 
HETATM   17  C   UNL     1      46.580 -31.164   3.715  1.00  0.00    -0.035 A 
HETATM   18  C   UNL     1      47.404 -31.845   4.636  1.00  0.00     0.015 A 
HETATM   19  C   UNL     1      45.139 -31.587   3.670  1.00  0.00     0.050 C 
HETATM   20  C   UNL     1      48.729 -31.462   4.870  1.00  0.00    -0.061 A 
HETATM   21  C   UNL     1      49.589 -32.231   5.829  1.00  0.00     0.048 C 
HETATM   22  C   UNL     1      49.248 -30.384   4.159  1.00  0.00     0.009 A 
HETATM   23  C   UNL     1      48.453 -29.713   3.226  1.00  0.00     0.030 A 
ENDBRANCH  13  16
ENDBRANCH   1  12
BRANCH   2  24
HETATM   24  C   UNL     1      43.556 -29.895  -0.009  1.00  0.00    -0.032 A 
HETATM   25  C   UNL     1      42.748 -29.233   0.930  1.00  0.00     0.012 A 
HETATM   26  C   UNL     1      41.918 -29.950   1.794  1.00  0.00     0.037 A 
HETATM   27  C   UNL     1      41.864 -31.341   1.730  1.00  0.00     0.068 A 
HETATM   28  C   UNL     1      42.691 -32.016   0.835  1.00  0.00     0.037 A 
HETATM   29  C   UNL     1      43.535 -31.300  -0.022  1.00  0.00     0.012 A 
BRANCH  27  30
HETATM   30  O   UNL     1      40.995 -31.935   2.604  1.00  0.00    -0.356 OA
HETATM   31  C   UNL     1      40.780 -31.226   3.820  1.00  0.00     0.210 C 
ENDBRANCH  27  30
ENDBRANCH   2  24
TORSDOF 4
ENDMDL
MODEL 8
REMARK VINA RESULT:      -7.0      2.733      6.107
REMARK  4 active torsions:
REMARK  status: ('A' for Active; 'I' for Inactive)
REMARK    1  A    between atoms: C_6  and  N_7 
REMARK       I    between atoms: N_7  and  C_8 
REMARK    2  A    between atoms: C_8  and  C_9 
REMARK    3  A    between atoms: C_10  and  C_11 
REMARK    4  A    between atoms: C_14  and  O_15 
ROOT
HETATM    1  C   UNL     1      40.953 -13.481   5.364  1.00  0.00     0.131 C 
HETATM    2  C   UNL     1      41.213 -12.129   6.082  1.00  0.00     0.177 C 
HETATM    3  N   UNL     1      42.618 -11.975   6.472  1.00  0.00    -0.088 N 
HETATM    4  C   UNL     1      43.523 -13.006   6.504  1.00  0.00     0.721 A 
HETATM    5  N   UNL     1      43.205 -14.234   6.040  1.00  0.00    -0.218 N 
HETATM    6  C   UNL     1      41.786 -14.601   6.020  1.00  0.00     0.111 C 
HETATM    7  C   UNL     1      41.609 -15.962   5.352  1.00  0.00     0.034 C 
HETATM    8  N   UNL     1      43.125 -10.878   7.068  1.00  0.00    -0.149 NA
HETATM    9  C   UNL     1      44.371 -11.284   7.334  1.00  0.00     0.275 A 
HETATM   10  N   UNL     1      44.654 -12.580   6.999  1.00  0.00    -0.055 NA
HETATM   11  H   UNL     1      43.840 -14.974   6.343  1.00  0.00     0.178 HD
ENDROOT
BRANCH   1  12
HETATM   12  C   UNL     1      41.124 -13.398   3.845  1.00  0.00     0.230 C 
HETATM   13  N   UNL     1      39.962 -13.495   3.112  1.00  0.00    -0.326 N 
HETATM   14  H   UNL     1      39.116 -13.689   3.640  1.00  0.00     0.169 HD
HETATM   15  O   UNL     1      42.263 -13.318   3.391  1.00  0.00    -0.273 OA
BRANCH  13  16
HETATM   16  C   UNL     1      39.801 -13.552   1.709  1.00  0.00     0.040 A 
HETATM   17  C   UNL     1      39.487 -12.484   0.854  1.00  0.00    -0.035 A 
HETATM   18  C   UNL     1      39.456 -12.716  -0.538  1.00  0.00     0.015 A 
HETATM   19  C   UNL     1      39.116 -11.101   1.308  1.00  0.00     0.050 C 
HETATM   20  C   UNL     1      39.652 -13.991  -1.082  1.00  0.00    -0.061 A 
HETATM   21  C   UNL     1      39.649 -14.196  -2.567  1.00  0.00     0.048 C 
HETATM   22  C   UNL     1      39.897 -15.055  -0.219  1.00  0.00     0.009 A 
HETATM   23  C   UNL     1      39.954 -14.838   1.160  1.00  0.00     0.030 A 
ENDBRANCH  13  16
ENDBRANCH   1  12
BRANCH   2  24
HETATM   24  C   UNL     1      40.614 -10.921   5.372  1.00  0.00    -0.032 A 
HETATM   25  C   UNL     1      39.237 -10.673   5.502  1.00  0.00     0.012 A 
HETATM   26  C   UNL     1      38.644  -9.577   4.871  1.00  0.00     0.037 A 
HETATM   27  C   UNL     1      39.413  -8.698   4.111  1.00  0.00     0.068 A 
HETATM   28  C   UNL     1      40.770  -8.955   3.934  1.00  0.00     0.037 A 
HETATM   29  C   UNL     1      41.364 -10.061   4.554  1.00  0.00     0.012 A 
BRANCH  27  30
HETATM   30  O   UNL     1      38.731  -7.646   3.564  1.00  0.00    -0.356 OA
HETATM   31  C   UNL     1      37.567  -7.998   2.823  1.00  0.00     0.210 C 
ENDBRANCH  27  30
ENDBRANCH   2  24
TORSDOF 4
ENDMDL
MODEL 9
REMARK VINA RESULT:      -6.9      2.236      5.008
REMARK  4 active torsions:
REMARK  status: ('A' for Active; 'I' for Inactive)
REMARK    1  A    between atoms: C_6  and  N_7 
REMARK       I    between atoms: N_7  and  C_8 
REMARK    2  A    between atoms: C_8  and  C_9 
REMARK    3  A    between atoms: C_10  and  C_11 
REMARK    4  A    between atoms: C_14  and  O_15 
ROOT
HETATM    1  C   UNL     1      40.641 -13.910   4.257  1.00  0.00     0.131 C 
HETATM    2  C   UNL     1      40.285 -12.769   3.267  1.00  0.00     0.177 C 
HETATM    3  N   UNL     1      41.050 -11.548   3.536  1.00  0.00    -0.088 N 
HETATM    4  C   UNL     1      41.745 -11.318   4.697  1.00  0.00     0.721 A 
HETATM    5  N   UNL     1      41.882 -12.280   5.635  1.00  0.00    -0.218 N 
HETATM    6  C   UNL     1      40.866 -13.337   5.671  1.00  0.00     0.111 C 
HETATM    7  C   UNL     1      41.251 -14.395   6.702  1.00  0.00     0.034 C 
HETATM    8  N   UNL     1      40.970 -10.423   2.799  1.00  0.00    -0.149 NA
HETATM    9  C   UNL     1      41.728  -9.590   3.519  1.00  0.00     0.275 A 
HETATM   10  N   UNL     1      42.225 -10.103   4.687  1.00  0.00    -0.055 NA
HETATM   11  H   UNL     1      42.180 -11.934   6.549  1.00  0.00     0.178 HD
ENDROOT
BRANCH   1  12
HETATM   12  C   UNL     1      41.788 -14.798   3.765  1.00  0.00     0.230 C 
HETATM   13  N   UNL     1      41.553 -16.153   3.824  1.00  0.00    -0.326 N 
HETATM   14  H   UNL     1      40.680 -16.438   4.257  1.00  0.00     0.169 HD
HETATM   15  O   UNL     1      42.836 -14.257   3.421  1.00  0.00    -0.273 OA
BRANCH  13  16
HETATM   16  C   UNL     1      42.437 -17.219   3.540  1.00  0.00     0.040 A 
HETATM   17  C   UNL     1      43.510 -17.656   4.333  1.00  0.00    -0.035 A 
HETATM   18  C   UNL     1      44.231 -18.801   3.929  1.00  0.00     0.015 A 
HETATM   19  C   UNL     1      44.003 -16.960   5.571  1.00  0.00     0.050 C 
HETATM   20  C   UNL     1      43.958 -19.462   2.727  1.00  0.00    -0.061 A 
HETATM   21  C   UNL     1      44.718 -20.698   2.345  1.00  0.00     0.048 C 
HETATM   22  C   UNL     1      42.934 -18.979   1.916  1.00  0.00     0.009 A 
HETATM   23  C   UNL     1      42.196 -17.862   2.313  1.00  0.00     0.030 A 
ENDBRANCH  13  16
ENDBRANCH   1  12
BRANCH   2  24
HETATM   24  C   UNL     1      40.265 -13.197   1.804  1.00  0.00    -0.032 A 
HETATM   25  C   UNL     1      40.681 -12.281   0.824  1.00  0.00     0.012 A 
HETATM   26  C   UNL     1      40.681 -12.629  -0.529  1.00  0.00     0.037 A 
HETATM   27  C   UNL     1      40.282 -13.902  -0.931  1.00  0.00     0.068 A 
HETATM   28  C   UNL     1      39.823 -14.807   0.024  1.00  0.00     0.037 A 
HETATM   29  C   UNL     1      39.808 -14.455   1.378  1.00  0.00     0.012 A 
BRANCH  27  30
HETATM   30  O   UNL     1      40.350 -14.140  -2.276  1.00  0.00    -0.356 OA
HETATM   31  C   UNL     1      39.095 -14.303  -2.926  1.00  0.00     0.210 C 
ENDBRANCH  27  30
ENDBRANCH   2  24
TORSDOF 4
ENDMDL
MODEL 10
REMARK VINA RESULT:      -6.8     16.420     20.220
REMARK  4 active torsions:
REMARK  status: ('A' for Active; 'I' for Inactive)
REMARK    1  A    between atoms: C_6  and  N_7 
REMARK       I    between atoms: N_7  and  C_8 
REMARK    2  A    between atoms: C_8  and  C_9 
REMARK    3  A    between atoms: C_10  and  C_11 
REMARK    4  A    between atoms: C_14  and  O_15 
ROOT
HETATM    1  C   UNL     1      50.078 -30.343   2.281  1.00  0.00     0.131 C 
HETATM    2  C   UNL     1      50.781 -31.725   2.359  1.00  0.00     0.177 C 
HETATM    3  N   UNL     1      50.204 -32.577   3.403  1.00  0.00    -0.088 N 
HETATM    4  C   UNL     1      49.380 -32.118   4.400  1.00  0.00     0.721 A 
HETATM    5  N   UNL     1      48.929 -30.845   4.407  1.00  0.00    -0.218 N 
HETATM    6  C   UNL     1      49.728 -29.842   3.697  1.00  0.00     0.111 C 
HETATM    7  C   UNL     1      49.006 -28.497   3.705  1.00  0.00     0.034 C 
HETATM    8  N   UNL     1      50.594 -33.842   3.654  1.00  0.00    -0.149 NA
HETATM    9  C   UNL     1      49.884 -34.117   4.753  1.00  0.00     0.275 A 
HETATM   10  N   UNL     1      49.124 -33.087   5.238  1.00  0.00    -0.055 NA
HETATM   11  H   UNL     1      48.550 -30.540   5.306  1.00  0.00     0.178 HD
ENDROOT
BRANCH   1  12
HETATM   12  C   UNL     1      48.891 -30.326   1.313  1.00  0.00     0.230 C 
HETATM   13  N   UNL     1      49.061 -29.560   0.181  1.00  0.00    -0.326 N 
HETATM   14  H   UNL     1      49.920 -29.020   0.131  1.00  0.00     0.169 HD
HETATM   15  O   UNL     1      47.869 -30.929   1.635  1.00  0.00    -0.273 OA
BRANCH  13  16
HETATM   16  C   UNL     1      48.128 -29.266  -0.838  1.00  0.00     0.040 A 
HETATM   17  C   UNL     1      47.813 -30.068  -1.947  1.00  0.00    -0.035 A 
HETATM   18  C   UNL     1      46.783 -29.648  -2.817  1.00  0.00     0.015 A 
HETATM   19  C   UNL     1      48.533 -31.330  -2.328  1.00  0.00     0.050 C 
HETATM   20  C   UNL     1      46.124 -28.425  -2.650  1.00  0.00    -0.061 A 
HETATM   21  C   UNL     1      45.009 -28.027  -3.570  1.00  0.00     0.048 C 
HETATM   22  C   UNL     1      46.491 -27.608  -1.584  1.00  0.00     0.009 A 
HETATM   23  C   UNL     1      47.492 -28.020  -0.700  1.00  0.00     0.030 A 
ENDBRANCH  13  16
ENDBRANCH   1  12
BRANCH   2  24
HETATM   24  C   UNL     1      50.964 -32.408   1.010  1.00  0.00    -0.032 A 
HETATM   25  C   UNL     1      51.900 -31.881   0.104  1.00  0.00     0.012 A 
HETATM   26  C   UNL     1      52.103 -32.475  -1.144  1.00  0.00     0.037 A 
HETATM   27  C   UNL     1      51.390 -33.614  -1.508  1.00  0.00     0.068 A 
HETATM   28  C   UNL     1      50.426 -34.124  -0.641  1.00  0.00     0.037 A 
HETATM   29  C   UNL     1      50.210 -33.522   0.604  1.00  0.00     0.012 A 
BRANCH  27  30
HETATM   30  O   UNL     1      51.692 -34.125  -2.740  1.00  0.00    -0.356 OA
HETATM   31  C   UNL     1      52.206 -33.184  -3.677  1.00  0.00     0.210 C 
ENDBRANCH  27  30
ENDBRANCH   2  24
TORSDOF 4
ENDMDL
