MODEL 1
REMARK VINA RESULT:     -10.1      0.000      0.000
REMARK  2 active torsions:
REMARK  status: ('A' for Active; 'I' for Inactive)
REMARK    1  A    between atoms: O_1  and  C_2 
REMARK    2  A    between atoms: C_24  and  C_25 
ROOT
HETATM    1  C   UNL     1      44.164 -20.403   4.472  1.00  0.00     0.066 A 
HETATM    2  C   UNL     1      43.861 -20.843   3.190  1.00  0.00     0.039 A 
HETATM    3  C   UNL     1      43.394 -19.943   2.228  1.00  0.00     0.033 A 
HETATM    4  C   UNL     1      43.243 -18.600   2.602  1.00  0.00     0.044 A 
HETATM    5  N   UNL     1      42.802 -17.524   1.837  1.00  0.00    -0.353 N 
HETATM    6  H   UNL     1      42.522 -17.591   0.871  1.00  0.00     0.166 HD
HETATM    7  C   UNL     1      42.809 -16.392   2.594  1.00  0.00     0.073 A 
HETATM    8  C   UNL     1      42.470 -15.090   2.311  1.00  0.00     0.072 A 
HETATM    9  N   UNL     1      42.008 -14.471   1.187  1.00  0.00    -0.353 N 
HETATM   10  H   UNL     1      41.824 -14.912   0.298  1.00  0.00     0.166 HD
HETATM   11  C   UNL     1      41.821 -13.113   1.445  1.00  0.00     0.043 A 
HETATM   12  C   UNL     1      41.363 -12.103   0.588  1.00  0.00     0.030 A 
HETATM   13  C   UNL     1      41.266 -10.808   1.101  1.00  0.00     0.002 A 
HETATM   14  C   UNL     1      41.612 -10.529   2.421  1.00  0.00     0.001 A 
HETATM   15  C   UNL     1      42.069 -11.543   3.274  1.00  0.00     0.014 A 
HETATM   16  C   UNL     1      42.178 -12.859   2.786  1.00  0.00     0.004 A 
HETATM   17  C   UNL     1      42.562 -14.113   3.247  1.00  0.00     0.014 A 
HETATM   18  C   UNL     1      43.019 -14.446   4.541  1.00  0.00    -0.010 A 
HETATM   19  C   UNL     1      43.200 -13.567   5.703  1.00  0.00     0.163 A 
HETATM   20  N   UNL     1      43.681 -14.532   6.666  1.00  0.00    -0.353 N 
HETATM   21  C   UNL     1      43.801 -15.844   6.219  1.00  0.00     0.253 A 
HETATM   22  O   UNL     1      44.200 -16.731   6.963  1.00  0.00    -0.268 OA
HETATM   23  C   UNL     1      43.376 -15.792   4.847  1.00  0.00     0.054 A 
HETATM   24  C   UNL     1      43.257 -16.771   3.823  1.00  0.00     0.022 A 
HETATM   25  C   UNL     1      43.546 -18.133   3.900  1.00  0.00     0.007 A 
HETATM   26  C   UNL     1      44.015 -19.065   4.846  1.00  0.00     0.051 A 
HETATM   27  H   UNL     1      43.927 -14.315   7.620  1.00  0.00     0.163 HD
ENDROOT
BRANCH   1  28
HETATM   28  O   UNL     1      44.622 -21.273   5.421  1.00  0.00    -0.361 OA
HETATM   29  H   UNL     1      45.498 -20.979   5.717  1.00  0.00     0.217 HD
ENDBRANCH   1  28
TORSDOF 2
ENDMDL
MODEL 2
REMARK VINA RESULT:     -10.0      2.750      7.079
REMARK  2 active torsions:
REMARK  status: ('A' for Active; 'I' for Inactive)
REMARK    1  A    between atoms: O_1  and  C_2 
REMARK    2  A    between atoms: C_24  and  C_25 
ROOT
HETATM    1  C   UNL     1      42.794 -10.686   5.873  1.00  0.00     0.066 A 
HETATM    2  C   UNL     1      43.256 -11.012   7.142  1.00  0.00     0.039 A 
HETATM    3  C   UNL     1      43.604 -12.329   7.449  1.00  0.00     0.033 A 
HETATM    4  C   UNL     1      43.471 -13.297   6.442  1.00  0.00     0.044 A 
HETATM    5  N   UNL     1      43.749 -14.659   6.496  1.00  0.00    -0.353 N 
HETATM    6  H   UNL     1      44.097 -15.135   7.314  1.00  0.00     0.166 HD
HETATM    7  C   UNL     1      43.478 -15.230   5.290  1.00  0.00     0.073 A 
HETATM    8  C   UNL     1      43.582 -16.523   4.836  1.00  0.00     0.072 A 
HETATM    9  N   UNL     1      43.989 -17.686   5.422  1.00  0.00    -0.353 N 
HETATM   10  H   UNL     1      44.309 -17.793   6.373  1.00  0.00     0.166 HD
HETATM   11  C   UNL     1      43.899 -18.729   4.500  1.00  0.00     0.043 A 
HETATM   12  C   UNL     1      44.210 -20.086   4.664  1.00  0.00     0.030 A 
HETATM   13  C   UNL     1      44.026 -20.933   3.569  1.00  0.00     0.002 A 
HETATM   14  C   UNL     1      43.551 -20.446   2.354  1.00  0.00     0.001 A 
HETATM   15  C   UNL     1      43.242 -19.089   2.195  1.00  0.00     0.014 A 
HETATM   16  C   UNL     1      43.416 -18.209   3.281  1.00  0.00     0.004 A 
HETATM   17  C   UNL     1      43.246 -16.859   3.565  1.00  0.00     0.014 A 
HETATM   18  C   UNL     1      42.779 -15.852   2.693  1.00  0.00    -0.010 A 
HETATM   19  C   UNL     1      42.361 -15.977   1.291  1.00  0.00     0.163 A 
HETATM   20  N   UNL     1      42.012 -14.600   1.017  1.00  0.00    -0.353 N 
HETATM   21  C   UNL     1      42.171 -13.702   2.067  1.00  0.00     0.253 A 
HETATM   22  O   UNL     1      41.901 -12.516   1.930  1.00  0.00    -0.268 OA
HETATM   23  C   UNL     1      42.667 -14.506   3.151  1.00  0.00     0.054 A 
HETATM   24  C   UNL     1      43.034 -14.218   4.493  1.00  0.00     0.022 A 
HETATM   25  C   UNL     1      43.004 -12.986   5.145  1.00  0.00     0.007 A 
HETATM   26  C   UNL     1      42.661 -11.648   4.869  1.00  0.00     0.051 A 
HETATM   27  H   UNL     1      41.668 -14.263   0.131  1.00  0.00     0.163 HD
ENDROOT
BRANCH   1  28
HETATM   28  O   UNL     1      42.450  -9.401   5.561  1.00  0.00    -0.361 OA
HETATM   29  H   UNL     1      41.797  -9.418   4.844  1.00  0.00     0.217 HD
ENDBRANCH   1  28
TORSDOF 2
ENDMDL
MODEL 3
REMARK VINA RESULT:      -9.8      1.979      6.522
REMARK  2 active torsions:
REMARK  status: ('A' for Active; 'I' for Inactive)
REMARK    1  A    between atoms: O_1  and  C_2 
REMARK    2  A    between atoms: C_24  and  C_25 
ROOT
HETATM    1  C   UNL     1      41.684 -10.657   2.484  1.00  0.00     0.066 A 
HETATM    2  C   UNL     1      41.373 -10.940   1.161  1.00  0.00     0.039 A 
HETATM    3  C   UNL     1      41.492 -12.243   0.672  1.00  0.00     0.033 A 
HETATM    4  C   UNL     1      41.931 -13.240   1.556  1.00  0.00     0.044 A 
HETATM    5  N   UNL     1      42.128 -14.597   1.315  1.00  0.00    -0.353 N 
HETATM    6  H   UNL     1      41.970 -15.044   0.425  1.00  0.00     0.166 HD
HETATM    7  C   UNL     1      42.562 -15.205   2.453  1.00  0.00     0.073 A 
HETATM    8  C   UNL     1      42.894 -16.509   2.735  1.00  0.00     0.072 A 
HETATM    9  N   UNL     1      42.909 -17.649   1.985  1.00  0.00    -0.353 N 
HETATM   10  H   UNL     1      42.655 -17.724   1.012  1.00  0.00     0.166 HD
HETATM   11  C   UNL     1      43.334 -18.719   2.772  1.00  0.00     0.043 A 
HETATM   12  C   UNL     1      43.500 -20.065   2.421  1.00  0.00     0.030 A 
HETATM   13  C   UNL     1      43.945 -20.946   3.411  1.00  0.00     0.002 A 
HETATM   14  C   UNL     1      44.215 -20.501   4.702  1.00  0.00     0.001 A 
HETATM   15  C   UNL     1      44.047 -19.153   5.047  1.00  0.00     0.014 A 
HETATM   16  C   UNL     1      43.600 -18.241   4.072  1.00  0.00     0.004 A 
HETATM   17  C   UNL     1      43.308 -16.885   3.970  1.00  0.00     0.014 A 
HETATM   18  C   UNL     1      43.400 -15.911   4.987  1.00  0.00    -0.010 A 
HETATM   19  C   UNL     1      43.819 -16.081   6.384  1.00  0.00     0.163 A 
HETATM   20  N   UNL     1      43.681 -14.718   6.848  1.00  0.00    -0.353 N 
HETATM   21  C   UNL     1      43.242 -13.788   5.911  1.00  0.00     0.253 A 
HETATM   22  O   UNL     1      43.095 -12.610   6.211  1.00  0.00    -0.268 OA
HETATM   23  C   UNL     1      43.058 -14.554   4.709  1.00  0.00     0.054 A 
HETATM   24  C   UNL     1      42.630 -14.223   3.394  1.00  0.00     0.022 A 
HETATM   25  C   UNL     1      42.252 -12.973   2.905  1.00  0.00     0.007 A 
HETATM   26  C   UNL     1      42.121 -11.649   3.366  1.00  0.00     0.051 A 
HETATM   27  H   UNL     1      43.882 -14.410   7.788  1.00  0.00     0.163 HD
ENDROOT
BRANCH   1  28
HETATM   28  O   UNL     1      41.571  -9.387   2.975  1.00  0.00    -0.361 OA
HETATM   29  H   UNL     1      42.392  -9.159   3.441  1.00  0.00     0.217 HD
ENDBRANCH   1  28
TORSDOF 2
ENDMDL
MODEL 4
REMARK VINA RESULT:      -9.5      2.089      3.964
REMARK  2 active torsions:
REMARK  status: ('A' for Active; 'I' for Inactive)
REMARK    1  A    between atoms: O_1  and  C_2 
REMARK    2  A    between atoms: C_24  and  C_25 
ROOT
HETATM    1  C   UNL     1      43.667 -20.112   2.816  1.00  0.00     0.066 A 
HETATM    2  C   UNL     1      44.019 -20.619   4.060  1.00  0.00     0.039 A 
HETATM    3  C   UNL     1      44.144 -19.765   5.159  1.00  0.00     0.033 A 
HETATM    4  C   UNL     1      43.905 -18.397   4.961  1.00  0.00     0.044 A 
HETATM    5  N   UNL     1      43.963 -17.357   5.884  1.00  0.00    -0.353 N 
HETATM    6  H   UNL     1      44.199 -17.474   6.857  1.00  0.00     0.166 HD
HETATM    7  C   UNL     1      43.658 -16.182   5.267  1.00  0.00     0.073 A 
HETATM    8  C   UNL     1      43.577 -14.890   5.731  1.00  0.00     0.072 A 
HETATM    9  N   UNL     1      43.773 -14.326   6.958  1.00  0.00    -0.353 N 
HETATM   10  H   UNL     1      44.032 -14.815   7.802  1.00  0.00     0.166 HD
HETATM   11  C   UNL     1      43.558 -12.951   6.879  1.00  0.00     0.043 A 
HETATM   12  C   UNL     1      43.647 -11.981   7.887  1.00  0.00     0.030 A 
HETATM   13  C   UNL     1      43.379 -10.654   7.539  1.00  0.00     0.002 A 
HETATM   14  C   UNL     1      43.037 -10.307   6.235  1.00  0.00     0.001 A 
HETATM   15  C   UNL     1      42.950 -11.281   5.231  1.00  0.00     0.014 A 
HETATM   16  C   UNL     1      43.213 -12.627   5.550  1.00  0.00     0.004 A 
HETATM   17  C   UNL     1      43.247 -13.861   4.911  1.00  0.00     0.014 A 
HETATM   18  C   UNL     1      42.980 -14.129   3.551  1.00  0.00    -0.010 A 
HETATM   19  C   UNL     1      42.607 -13.187   2.488  1.00  0.00     0.163 A 
HETATM   20  N   UNL     1      42.488 -14.107   1.378  1.00  0.00    -0.353 N 
HETATM   21  C   UNL     1      42.742 -15.446   1.656  1.00  0.00     0.253 A 
HETATM   22  O   UNL     1      42.666 -16.298   0.780  1.00  0.00    -0.268 OA
HETATM   23  C   UNL     1      43.059 -15.465   3.058  1.00  0.00     0.054 A 
HETATM   24  C   UNL     1      43.411 -16.499   3.967  1.00  0.00     0.022 A 
HETATM   25  C   UNL     1      43.546 -17.862   3.704  1.00  0.00     0.007 A 
HETATM   26  C   UNL     1      43.429 -18.750   2.617  1.00  0.00     0.051 A 
HETATM   27  H   UNL     1      42.239 -13.839   0.437  1.00  0.00     0.163 HD
ENDROOT
BRANCH   1  28
HETATM   28  O   UNL     1      43.541 -20.936   1.734  1.00  0.00    -0.361 OA
HETATM   29  H   UNL     1      43.888 -21.812   1.967  1.00  0.00     0.217 HD
ENDBRANCH   1  28
TORSDOF 2
ENDMDL
MODEL 5
REMARK VINA RESULT:      -9.3      2.342      3.212
REMARK  2 active torsions:
REMARK  status: ('A' for Active; 'I' for Inactive)
REMARK    1  A    between atoms: O_1  and  C_2 
REMARK    2  A    between atoms: C_24  and  C_25 
ROOT
HETATM    1  C   UNL     1      43.278 -17.747   6.172  1.00  0.00     0.066 A 
HETATM    2  C   UNL     1      43.938 -18.497   5.208  1.00  0.00     0.039 A 
HETATM    3  C   UNL     1      43.774 -18.204   3.852  1.00  0.00     0.033 A 
HETATM    4  C   UNL     1      42.928 -17.139   3.507  1.00  0.00     0.044 A 
HETATM    5  N   UNL     1      42.605 -16.654   2.243  1.00  0.00    -0.353 N 
HETATM    6  H   UNL     1      42.960 -17.036   1.380  1.00  0.00     0.166 HD
HETATM    7  C   UNL     1      41.746 -15.605   2.363  1.00  0.00     0.073 A 
HETATM    8  C   UNL     1      41.141 -14.796   1.430  1.00  0.00     0.072 A 
HETATM    9  N   UNL     1      41.181 -14.754   0.067  1.00  0.00    -0.353 N 
HETATM   10  H   UNL     1      41.712 -15.369  -0.531  1.00  0.00     0.166 HD
HETATM   11  C   UNL     1      40.367 -13.719  -0.392  1.00  0.00     0.043 A 
HETATM   12  C   UNL     1      40.109 -13.313  -1.708  1.00  0.00     0.030 A 
HETATM   13  C   UNL     1      39.243 -12.232  -1.898  1.00  0.00     0.002 A 
HETATM   14  C   UNL     1      38.657 -11.581  -0.816  1.00  0.00     0.001 A 
HETATM   15  C   UNL     1      38.919 -11.992   0.498  1.00  0.00     0.014 A 
HETATM   16  C   UNL     1      39.787 -13.078   0.722  1.00  0.00     0.004 A 
HETATM   17  C   UNL     1      40.306 -13.791   1.796  1.00  0.00     0.014 A 
HETATM   18  C   UNL     1      40.057 -13.575   3.168  1.00  0.00    -0.010 A 
HETATM   19  C   UNL     1      39.200 -12.561   3.795  1.00  0.00     0.163 A 
HETATM   20  N   UNL     1      39.399 -12.900   5.187  1.00  0.00    -0.353 N 
HETATM   21  C   UNL     1      40.251 -13.968   5.447  1.00  0.00     0.253 A 
HETATM   22  O   UNL     1      40.481 -14.328   6.594  1.00  0.00    -0.268 OA
HETATM   23  C   UNL     1      40.678 -14.407   4.146  1.00  0.00     0.054 A 
HETATM   24  C   UNL     1      41.543 -15.443   3.699  1.00  0.00     0.022 A 
HETATM   25  C   UNL     1      42.248 -16.365   4.472  1.00  0.00     0.007 A 
HETATM   26  C   UNL     1      42.435 -16.687   5.830  1.00  0.00     0.051 A 
HETATM   27  H   UNL     1      38.966 -12.418   5.961  1.00  0.00     0.163 HD
ENDROOT
BRANCH   1  28
HETATM   28  O   UNL     1      43.431 -18.024   7.502  1.00  0.00    -0.361 OA
HETATM   29  H   UNL     1      42.984 -18.864   7.699  1.00  0.00     0.217 HD
ENDBRANCH   1  28
TORSDOF 2
ENDMDL
MODEL 6
REMARK VINA RESULT:      -9.0      3.213      4.982
REMARK  2 active torsions:
REMARK  status: ('A' for Active; 'I' for Inactive)
REMARK    1  A    between atoms: O_1  and  C_2 
REMARK    2  A    between atoms: C_24  and  C_25 
ROOT
HETATM    1  C   UNL     1      42.597 -14.599   6.786  1.00  0.00     0.066 A 
HETATM    2  C   UNL     1      42.143 -15.911   6.766  1.00  0.00     0.039 A 
HETATM    3  C   UNL     1      41.513 -16.422   5.628  1.00  0.00     0.033 A 
HETATM    4  C   UNL     1      41.359 -15.571   4.524  1.00  0.00     0.044 A 
HETATM    5  N   UNL     1      40.775 -15.838   3.289  1.00  0.00    -0.353 N 
HETATM    6  H   UNL     1      40.370 -16.726   3.033  1.00  0.00     0.166 HD
HETATM    7  C   UNL     1      40.837 -14.728   2.504  1.00  0.00     0.073 A 
HETATM    8  C   UNL     1      40.408 -14.478   1.222  1.00  0.00     0.072 A 
HETATM    9  N   UNL     1      39.774 -15.243   0.286  1.00  0.00    -0.353 N 
HETATM   10  H   UNL     1      39.491 -16.205   0.397  1.00  0.00     0.166 HD
HETATM   11  C   UNL     1      39.567 -14.489  -0.869  1.00  0.00     0.043 A 
HETATM   12  C   UNL     1      38.957 -14.865  -2.074  1.00  0.00     0.030 A 
HETATM   13  C   UNL     1      38.876 -13.907  -3.089  1.00  0.00     0.002 A 
HETATM   14  C   UNL     1      39.384 -12.624  -2.909  1.00  0.00     0.001 A 
HETATM   15  C   UNL     1      39.993 -12.254  -1.703  1.00  0.00     0.014 A 
HETATM   16  C   UNL     1      40.090 -13.196  -0.661  1.00  0.00     0.004 A 
HETATM   17  C   UNL     1      40.585 -13.268   0.637  1.00  0.00     0.014 A 
HETATM   18  C   UNL     1      41.225 -12.243   1.366  1.00  0.00    -0.010 A 
HETATM   19  C   UNL     1      41.524 -10.868   0.946  1.00  0.00     0.163 A 
HETATM   20  N   UNL     1      42.170 -10.381   2.145  1.00  0.00    -0.353 N 
HETATM   21  C   UNL     1      42.283 -11.285   3.196  1.00  0.00     0.253 A 
HETATM   22  O   UNL     1      42.815 -10.963   4.250  1.00  0.00    -0.268 OA
HETATM   23  C   UNL     1      41.675 -12.488   2.697  1.00  0.00     0.054 A 
HETATM   24  C   UNL     1      41.460 -13.778   3.254  1.00  0.00     0.022 A 
HETATM   25  C   UNL     1      41.814 -14.234   4.524  1.00  0.00     0.007 A 
HETATM   26  C   UNL     1      42.444 -13.750   5.687  1.00  0.00     0.051 A 
HETATM   27  H   UNL     1      42.533  -9.446   2.260  1.00  0.00     0.163 HD
ENDROOT
BRANCH   1  28
HETATM   28  O   UNL     1      43.214 -14.088   7.893  1.00  0.00    -0.361 OA
HETATM   29  H   UNL     1      43.312 -13.128   7.781  1.00  0.00     0.217 HD
ENDBRANCH   1  28
TORSDOF 2
ENDMDL
MODEL 7
REMARK VINA RESULT:      -8.7      2.878      4.417
REMARK  2 active torsions:
REMARK  status: ('A' for Active; 'I' for Inactive)
REMARK    1  A    between atoms: O_1  and  C_2 
REMARK    2  A    between atoms: C_24  and  C_25 
ROOT
HETATM    1  C   UNL     1      43.345 -18.369   2.961  1.00  0.00     0.066 A 
HETATM    2  C   UNL     1      44.239 -18.396   4.023  1.00  0.00     0.039 A 
HETATM    3  C   UNL     1      44.278 -17.341   4.938  1.00  0.00     0.033 A 
HETATM    4  C   UNL     1      43.394 -16.269   4.745  1.00  0.00     0.044 A 
HETATM    5  N   UNL     1      43.240 -15.115   5.508  1.00  0.00    -0.353 N 
HETATM    6  H   UNL     1      43.779 -14.904   6.334  1.00  0.00     0.166 HD
HETATM    7  C   UNL     1      42.265 -14.335   4.965  1.00  0.00     0.073 A 
HETATM    8  C   UNL     1      41.744 -13.118   5.334  1.00  0.00     0.072 A 
HETATM    9  N   UNL     1      42.013 -12.262   6.363  1.00  0.00    -0.353 N 
HETATM   10  H   UNL     1      42.703 -12.400   7.086  1.00  0.00     0.166 HD
HETATM   11  C   UNL     1      41.181 -11.147   6.271  1.00  0.00     0.043 A 
HETATM   12  C   UNL     1      41.110 -10.024   7.107  1.00  0.00     0.030 A 
HETATM   13  C   UNL     1      40.176  -9.034   6.789  1.00  0.00     0.002 A 
HETATM   14  C   UNL     1      39.345  -9.158   5.679  1.00  0.00     0.001 A 
HETATM   15  C   UNL     1      39.421 -10.283   4.847  1.00  0.00     0.014 A 
HETATM   16  C   UNL     1      40.351 -11.298   5.140  1.00  0.00     0.004 A 
HETATM   17  C   UNL     1      40.755 -12.523   4.622  1.00  0.00     0.014 A 
HETATM   18  C   UNL     1      40.251 -13.175   3.475  1.00  0.00    -0.010 A 
HETATM   19  C   UNL     1      39.194 -12.730   2.558  1.00  0.00     0.163 A 
HETATM   20  N   UNL     1      39.187 -13.844   1.635  1.00  0.00    -0.353 N 
HETATM   21  C   UNL     1      40.094 -14.866   1.894  1.00  0.00     0.253 A 
HETATM   22  O   UNL     1      40.161 -15.850   1.168  1.00  0.00    -0.268 OA
HETATM   23  C   UNL     1      40.783 -14.439   3.082  1.00  0.00     0.054 A 
HETATM   24  C   UNL     1      41.819 -15.010   3.870  1.00  0.00     0.022 A 
HETATM   25  C   UNL     1      42.478 -16.223   3.672  1.00  0.00     0.007 A 
HETATM   26  C   UNL     1      42.464 -17.302   2.768  1.00  0.00     0.051 A 
HETATM   27  H   UNL     1      38.579 -13.919   0.834  1.00  0.00     0.163 HD
ENDROOT
BRANCH   1  28
HETATM   28  O   UNL     1      43.296 -19.394   2.059  1.00  0.00    -0.361 OA
HETATM   29  H   UNL     1      43.536 -19.052   1.183  1.00  0.00     0.217 HD
ENDBRANCH   1  28
TORSDOF 2
ENDMDL
MODEL 8
REMARK VINA RESULT:      -8.3     22.182     22.896
REMARK  2 active torsions:
REMARK  status: ('A' for Active; 'I' for Inactive)
REMARK    1  A    between atoms: O_1  and  C_2 
REMARK    2  A    between atoms: C_24  and  C_25 
ROOT
HETATM    1  C   UNL     1      36.431 -29.420  20.074  1.00  0.00     0.066 A 
HETATM    2  C   UNL     1      37.573 -30.006  19.545  1.00  0.00     0.039 A 
HETATM    3  C   UNL     1      37.495 -30.780  18.384  1.00  0.00     0.033 A 
HETATM    4  C   UNL     1      36.238 -30.941  17.783  1.00  0.00     0.044 A 
HETATM    5  N   UNL     1      35.903 -31.654  16.636  1.00  0.00    -0.353 N 
HETATM    6  H   UNL     1      36.563 -32.167  16.073  1.00  0.00     0.166 HD
HETATM    7  C   UNL     1      34.565 -31.546  16.406  1.00  0.00     0.073 A 
HETATM    8  C   UNL     1      33.754 -32.055  15.420  1.00  0.00     0.072 A 
HETATM    9  N   UNL     1      33.992 -32.842  14.331  1.00  0.00    -0.353 N 
HETATM   10  H   UNL     1      34.888 -33.212  14.049  1.00  0.00     0.166 HD
HETATM   11  C   UNL     1      32.798 -33.069  13.649  1.00  0.00     0.043 A 
HETATM   12  C   UNL     1      32.570 -33.816  12.485  1.00  0.00     0.030 A 
HETATM   13  C   UNL     1      31.261 -33.886  12.001  1.00  0.00     0.002 A 
HETATM   14  C   UNL     1      30.217 -33.235  12.654  1.00  0.00     0.001 A 
HETATM   15  C   UNL     1      30.450 -32.490  13.817  1.00  0.00     0.014 A 
HETATM   16  C   UNL     1      31.759 -32.401  14.330  1.00  0.00     0.004 A 
HETATM   17  C   UNL     1      32.421 -31.806  15.398  1.00  0.00     0.014 A 
HETATM   18  C   UNL     1      31.858 -31.004  16.414  1.00  0.00    -0.010 A 
HETATM   19  C   UNL     1      30.457 -30.603  16.596  1.00  0.00     0.163 A 
HETATM   20  N   UNL     1      30.584 -29.811  17.799  1.00  0.00    -0.353 N 
HETATM   21  C   UNL     1      31.863 -29.700  18.334  1.00  0.00     0.253 A 
HETATM   22  O   UNL     1      32.068 -29.050  19.350  1.00  0.00    -0.268 OA
HETATM   23  C   UNL     1      32.689 -30.469  17.443  1.00  0.00     0.054 A 
HETATM   24  C   UNL     1      34.078 -30.766  17.411  1.00  0.00     0.022 A 
HETATM   25  C   UNL     1      35.065 -30.353  18.306  1.00  0.00     0.007 A 
HETATM   26  C   UNL     1      35.178 -29.579  19.476  1.00  0.00     0.051 A 
HETATM   27  H   UNL     1      29.817 -29.345  18.260  1.00  0.00     0.163 HD
ENDROOT
BRANCH   1  28
HETATM   28  O   UNL     1      36.493 -28.661  21.208  1.00  0.00    -0.361 OA
HETATM   29  H   UNL     1      37.004 -29.144  21.879  1.00  0.00     0.217 HD
ENDBRANCH   1  28
TORSDOF 2
ENDMDL
MODEL 9
REMARK VINA RESULT:      -8.2      3.209      7.460
REMARK  2 active torsions:
REMARK  status: ('A' for Active; 'I' for Inactive)
REMARK    1  A    between atoms: O_1  and  C_2 
REMARK    2  A    between atoms: C_24  and  C_25 
ROOT
HETATM    1  C   UNL     1      42.190  -8.980   6.786  1.00  0.00     0.066 A 
HETATM    2  C   UNL     1      42.857  -9.334   7.952  1.00  0.00     0.039 A 
HETATM    3  C   UNL     1      43.355 -10.629   8.113  1.00  0.00     0.033 A 
HETATM    4  C   UNL     1      43.159 -11.545   7.069  1.00  0.00     0.044 A 
HETATM    5  N   UNL     1      43.555 -12.876   6.987  1.00  0.00    -0.353 N 
HETATM    6  H   UNL     1      44.057 -13.364   7.713  1.00  0.00     0.166 HD
HETATM    7  C   UNL     1      43.160 -13.399   5.794  1.00  0.00     0.073 A 
HETATM    8  C   UNL     1      43.306 -14.648   5.239  1.00  0.00     0.072 A 
HETATM    9  N   UNL     1      43.890 -15.800   5.679  1.00  0.00    -0.353 N 
HETATM   10  H   UNL     1      44.352 -15.932   6.566  1.00  0.00     0.166 HD
HETATM   11  C   UNL     1      43.754 -16.792   4.708  1.00  0.00     0.043 A 
HETATM   12  C   UNL     1      44.198 -18.121   4.731  1.00  0.00     0.030 A 
HETATM   13  C   UNL     1      43.930 -18.917   3.615  1.00  0.00     0.002 A 
HETATM   14  C   UNL     1      43.243 -18.407   2.516  1.00  0.00     0.001 A 
HETATM   15  C   UNL     1      42.802 -17.078   2.498  1.00  0.00     0.014 A 
HETATM   16  C   UNL     1      43.057 -16.250   3.608  1.00  0.00     0.004 A 
HETATM   17  C   UNL     1      42.818 -14.940   4.008  1.00  0.00     0.014 A 
HETATM   18  C   UNL     1      42.146 -13.933   3.282  1.00  0.00    -0.010 A 
HETATM   19  C   UNL     1      41.541 -14.014   1.947  1.00  0.00     0.163 A 
HETATM   20  N   UNL     1      41.041 -12.662   1.823  1.00  0.00    -0.353 N 
HETATM   21  C   UNL     1      41.275 -11.816   2.901  1.00  0.00     0.253 A 
HETATM   22  O   UNL     1      40.890 -10.654   2.887  1.00  0.00    -0.268 OA
HETATM   23  C   UNL     1      41.989 -12.632   3.846  1.00  0.00     0.054 A 
HETATM   24  C   UNL     1      42.522 -12.389   5.141  1.00  0.00     0.022 A 
HETATM   25  C   UNL     1      42.483 -11.204   5.876  1.00  0.00     0.007 A 
HETATM   26  C   UNL     1      41.993  -9.891   5.745  1.00  0.00     0.051 A 
HETATM   27  H   UNL     1      40.545 -12.308   1.019  1.00  0.00     0.163 HD
ENDROOT
BRANCH   1  28
HETATM   28  O   UNL     1      41.698  -7.717   6.617  1.00  0.00    -0.361 OA
HETATM   29  H   UNL     1      41.165  -7.482   7.394  1.00  0.00     0.217 HD
ENDBRANCH   1  28
TORSDOF 2
ENDMDL
MODEL 10
REMARK VINA RESULT:      -8.0      3.386      5.615
REMARK  2 active torsions:
REMARK  status: ('A' for Active; 'I' for Inactive)
REMARK    1  A    between atoms: O_1  and  C_2 
REMARK    2  A    between atoms: C_24  and  C_25 
ROOT
HETATM    1  C   UNL     1      43.382 -12.815   6.753  1.00  0.00     0.066 A 
HETATM    2  C   UNL     1      43.893 -11.552   6.482  1.00  0.00     0.039 A 
HETATM    3  C   UNL     1      43.697 -10.967   5.229  1.00  0.00     0.033 A 
HETATM    4  C   UNL     1      42.977 -11.692   4.268  1.00  0.00     0.044 A 
HETATM    5  N   UNL     1      42.651 -11.332   2.964  1.00  0.00    -0.353 N 
HETATM    6  H   UNL     1      42.913 -10.458   2.534  1.00  0.00     0.166 HD
HETATM    7  C   UNL     1      41.940 -12.334   2.377  1.00  0.00     0.073 A 
HETATM    8  C   UNL     1      41.394 -12.467   1.123  1.00  0.00     0.072 A 
HETATM    9  N   UNL     1      41.369 -11.655   0.027  1.00  0.00    -0.353 N 
HETATM   10  H   UNL     1      41.788 -10.739  -0.044  1.00  0.00     0.166 HD
HETATM   11  C   UNL     1      40.669 -12.282  -1.003  1.00  0.00     0.043 A 
HETATM   12  C   UNL     1      40.397 -11.821  -2.298  1.00  0.00     0.030 A 
HETATM   13  C   UNL     1      39.666 -12.656  -3.147  1.00  0.00     0.002 A 
HETATM   14  C   UNL     1      39.222 -13.905  -2.720  1.00  0.00     0.001 A 
HETATM   15  C   UNL     1      39.496 -14.361  -1.424  1.00  0.00     0.014 A 
HETATM   16  C   UNL     1      40.232 -13.542  -0.545  1.00  0.00     0.004 A 
HETATM   17  C   UNL     1      40.713 -13.582   0.759  1.00  0.00     0.014 A 
HETATM   18  C   UNL     1      40.563 -14.628   1.695  1.00  0.00    -0.010 A 
HETATM   19  C   UNL     1      39.874 -15.914   1.530  1.00  0.00     0.163 A 
HETATM   20  N   UNL     1      40.100 -16.482   2.841  1.00  0.00    -0.353 N 
HETATM   21  C   UNL     1      40.823 -15.701   3.736  1.00  0.00     0.253 A 
HETATM   22  O   UNL     1      41.064 -16.097   4.869  1.00  0.00    -0.268 OA
HETATM   23  C   UNL     1      41.124 -14.502   3.001  1.00  0.00     0.054 A 
HETATM   24  C   UNL     1      41.827 -13.309   3.321  1.00  0.00     0.022 A 
HETATM   25  C   UNL     1      42.450 -12.977   4.524  1.00  0.00     0.007 A 
HETATM   26  C   UNL     1      42.664 -13.539   5.797  1.00  0.00     0.051 A 
HETATM   27  H   UNL     1      39.772 -17.389   3.135  1.00  0.00     0.163 HD
ENDROOT
BRANCH   1  28
HETATM   28  O   UNL     1      43.566 -13.398   7.974  1.00  0.00    -0.361 OA
HETATM   29  H   UNL     1      44.367 -13.029   8.379  1.00  0.00     0.217 HD
ENDBRANCH   1  28
TORSDOF 2
ENDMDL
