MODEL 1
REMARK VINA RESULT:      -7.0      0.000      0.000
REMARK  5 active torsions:
REMARK  status: ('A' for Active; 'I' for Inactive)
REMARK    1  A    between atoms: C_2  and  C_3 
REMARK    2  A    between atoms: C_3  and  N_4 
REMARK       I    between atoms: N_4  and  C_5 
REMARK    3  A    between atoms: C_5  and  C_6 
REMARK    4  A    between atoms: C_7  and  O_8 
REMARK    5  A    between atoms: O_8  and  C_9 
ROOT
HETATM    1  C   UNL     1      40.610 -12.996   1.638  1.00  0.00     0.121 C 
HETATM    2  C   UNL     1      39.220 -12.463   1.772  1.00  0.00     0.091 C 
HETATM    3  N   UNL     1      38.146 -12.044   1.916  1.00  0.00    -0.195 NA
HETATM    4  C   UNL     1      41.300 -12.187   0.520  1.00  0.00     0.055 C 
ENDROOT
BRANCH   1   5
HETATM    5  C   UNL     1      40.564 -14.529   1.300  1.00  0.00     0.020 C 
HETATM    6  C   UNL     1      39.919 -14.851  -0.056  1.00  0.00     0.013 C 
HETATM    7  C   UNL     1      39.870 -15.361   2.393  1.00  0.00     0.013 C 
ENDBRANCH   1   5
BRANCH   1   8
HETATM    8  N   UNL     1      41.307 -12.762   2.926  1.00  0.00    -0.335 N 
HETATM    9  C   UNL     1      42.639 -13.015   3.151  1.00  0.00     0.257 C 
HETATM   10  O   UNL     1      43.397 -13.416   2.274  1.00  0.00    -0.267 OA
HETATM   11  H   UNL     1      40.737 -12.441   3.703  1.00  0.00     0.164 HD
BRANCH   9  12
HETATM   12  C   UNL     1      43.159 -12.846   4.535  1.00  0.00     0.085 A 
HETATM   13  C   UNL     1      42.857 -13.676   5.614  1.00  0.00     0.185 A 
HETATM   14  N   UNL     1      43.396 -13.516   6.853  1.00  0.00    -0.236 NA
HETATM   15  C   UNL     1      44.234 -12.475   7.039  1.00  0.00     0.119 A 
HETATM   16  C   UNL     1      44.571 -11.579   6.042  1.00  0.00     0.020 A 
HETATM   17  C   UNL     1      44.024 -11.770   4.776  1.00  0.00     0.023 A 
BRANCH  13  18
HETATM   18  O   UNL     1      41.996 -14.748   5.406  1.00  0.00    -0.291 OA
BRANCH  18  19
HETATM   19  C   UNL     1      42.552 -15.997   5.269  1.00  0.00     0.078 A 
HETATM   20  C   UNL     1      43.073 -16.452   4.054  1.00  0.00     0.039 A 
HETATM   21  C   UNL     1      43.666 -17.715   3.982  1.00  0.00     0.026 A 
HETATM   22  C   UNL     1      43.757 -18.502   5.129  1.00  0.00     0.034 A 
HETATM   23 CL   UNL     1      44.485 -20.059   5.038  1.00  0.00    -0.084 Cl
HETATM   24  C   UNL     1      43.269 -18.037   6.349  1.00  0.00     0.026 A 
HETATM   25  C   UNL     1      42.672 -16.776   6.422  1.00  0.00     0.039 A 
ENDBRANCH  18  19
ENDBRANCH  13  18
ENDBRANCH   9  12
ENDBRANCH   1   8
TORSDOF 5
ENDMDL
MODEL 2
REMARK VINA RESULT:      -7.0      2.586      4.461
REMARK  5 active torsions:
REMARK  status: ('A' for Active; 'I' for Inactive)
REMARK    1  A    between atoms: C_2  and  C_3 
REMARK    2  A    between atoms: C_3  and  N_4 
REMARK       I    between atoms: N_4  and  C_5 
REMARK    3  A    between atoms: C_5  and  C_6 
REMARK    4  A    between atoms: C_7  and  O_8 
REMARK    5  A    between atoms: O_8  and  C_9 
ROOT
HETATM    1  C   UNL     1      40.546 -12.890   1.334  1.00  0.00     0.121 C 
HETATM    2  C   UNL     1      41.297 -11.598   1.291  1.00  0.00     0.091 C 
HETATM    3  N   UNL     1      41.908 -10.612   1.281  1.00  0.00    -0.195 NA
HETATM    4  C   UNL     1      40.223 -13.276  -0.124  1.00  0.00     0.055 C 
ENDROOT
BRANCH   1   5
HETATM    5  C   UNL     1      39.240 -12.721   2.191  1.00  0.00     0.020 C 
HETATM    6  C   UNL     1      38.280 -11.645   1.662  1.00  0.00     0.013 C 
HETATM    7  C   UNL     1      39.532 -12.443   3.676  1.00  0.00     0.013 C 
ENDBRANCH   1   5
BRANCH   1   8
HETATM    8  N   UNL     1      41.439 -13.910   1.934  1.00  0.00    -0.335 N 
HETATM    9  C   UNL     1      41.113 -15.235   2.100  1.00  0.00     0.257 C 
HETATM   10  O   UNL     1      40.051 -15.712   1.713  1.00  0.00    -0.267 OA
HETATM   11  H   UNL     1      42.333 -13.583   2.290  1.00  0.00     0.164 HD
BRANCH   9  12
HETATM   12  C   UNL     1      42.072 -16.104   2.834  1.00  0.00     0.085 A 
HETATM   13  C   UNL     1      42.442 -15.945   4.169  1.00  0.00     0.185 A 
HETATM   14  N   UNL     1      43.284 -16.795   4.817  1.00  0.00    -0.236 NA
HETATM   15  C   UNL     1      43.807 -17.817   4.108  1.00  0.00     0.119 A 
HETATM   16  C   UNL     1      43.526 -18.041   2.773  1.00  0.00     0.020 A 
HETATM   17  C   UNL     1      42.648 -17.172   2.131  1.00  0.00     0.023 A 
BRANCH  13  18
HETATM   18  O   UNL     1      41.892 -14.891   4.889  1.00  0.00    -0.291 OA
BRANCH  18  19
HETATM   19  C   UNL     1      42.743 -13.904   5.330  1.00  0.00     0.078 A 
HETATM   20  C   UNL     1      43.177 -12.869   4.498  1.00  0.00     0.039 A 
HETATM   21  C   UNL     1      44.007 -11.869   5.011  1.00  0.00     0.026 A 
HETATM   22  C   UNL     1      44.375 -11.897   6.355  1.00  0.00     0.034 A 
HETATM   23 CL   UNL     1      45.400 -10.666   6.985  1.00  0.00    -0.084 Cl
HETATM   24  C   UNL     1      43.915 -12.911   7.195  1.00  0.00     0.026 A 
HETATM   25  C   UNL     1      43.088 -13.914   6.683  1.00  0.00     0.039 A 
ENDBRANCH  18  19
ENDBRANCH  13  18
ENDBRANCH   9  12
ENDBRANCH   1   8
TORSDOF 5
ENDMDL
MODEL 3
REMARK VINA RESULT:      -6.9      2.886      5.993
REMARK  5 active torsions:
REMARK  status: ('A' for Active; 'I' for Inactive)
REMARK    1  A    between atoms: C_2  and  C_3 
REMARK    2  A    between atoms: C_3  and  N_4 
REMARK       I    between atoms: N_4  and  C_5 
REMARK    3  A    between atoms: C_5  and  C_6 
REMARK    4  A    between atoms: C_7  and  O_8 
REMARK    5  A    between atoms: O_8  and  C_9 
ROOT
HETATM    1  C   UNL     1      42.882 -12.871   5.743  1.00  0.00     0.121 C 
HETATM    2  C   UNL     1      41.460 -12.490   5.999  1.00  0.00     0.091 C 
HETATM    3  N   UNL     1      40.344 -12.219   6.170  1.00  0.00    -0.195 NA
HETATM    4  C   UNL     1      43.499 -13.263   7.102  1.00  0.00     0.055 C 
ENDROOT
BRANCH   1   5
HETATM    5  C   UNL     1      43.649 -11.668   5.086  1.00  0.00     0.020 C 
HETATM    6  C   UNL     1      43.852 -11.810   3.570  1.00  0.00     0.013 C 
HETATM    7  C   UNL     1      45.010 -11.392   5.749  1.00  0.00     0.013 C 
ENDBRANCH   1   5
BRANCH   1   8
HETATM    8  N   UNL     1      42.877 -14.047   4.840  1.00  0.00    -0.335 N 
HETATM    9  C   UNL     1      42.526 -15.321   5.218  1.00  0.00     0.257 C 
HETATM   10  O   UNL     1      42.130 -15.595   6.346  1.00  0.00    -0.267 OA
HETATM   11  H   UNL     1      43.206 -13.896   3.891  1.00  0.00     0.164 HD
BRANCH   9  12
HETATM   12  C   UNL     1      42.695 -16.416   4.224  1.00  0.00     0.085 A 
HETATM   13  C   UNL     1      41.846 -16.661   3.145  1.00  0.00     0.185 A 
HETATM   14  N   UNL     1      42.067 -17.642   2.229  1.00  0.00    -0.236 NA
HETATM   15  C   UNL     1      43.146 -18.433   2.409  1.00  0.00     0.119 A 
HETATM   16  C   UNL     1      44.029 -18.290   3.462  1.00  0.00     0.020 A 
HETATM   17  C   UNL     1      43.797 -17.269   4.380  1.00  0.00     0.023 A 
BRANCH  13  18
HETATM   18  O   UNL     1      40.741 -15.835   2.970  1.00  0.00    -0.291 OA
BRANCH  18  19
HETATM   19  C   UNL     1      40.671 -15.100   1.810  1.00  0.00     0.078 A 
HETATM   20  C   UNL     1      39.870 -15.484   0.732  1.00  0.00     0.039 A 
HETATM   21  C   UNL     1      39.803 -14.676  -0.406  1.00  0.00     0.026 A 
HETATM   22  C   UNL     1      40.515 -13.478  -0.446  1.00  0.00     0.034 A 
HETATM   23 CL   UNL     1      40.433 -12.485  -1.849  1.00  0.00    -0.084 Cl
HETATM   24  C   UNL     1      41.287 -13.076   0.643  1.00  0.00     0.026 A 
HETATM   25  C   UNL     1      41.359 -13.885   1.779  1.00  0.00     0.039 A 
ENDBRANCH  18  19
ENDBRANCH  13  18
ENDBRANCH   9  12
ENDBRANCH   1   8
TORSDOF 5
ENDMDL
MODEL 4
REMARK VINA RESULT:      -6.8      2.942      5.093
REMARK  5 active torsions:
REMARK  status: ('A' for Active; 'I' for Inactive)
REMARK    1  A    between atoms: C_2  and  C_3 
REMARK    2  A    between atoms: C_3  and  N_4 
REMARK       I    between atoms: N_4  and  C_5 
REMARK    3  A    between atoms: C_5  and  C_6 
REMARK    4  A    between atoms: C_7  and  O_8 
REMARK    5  A    between atoms: O_8  and  C_9 
ROOT
HETATM    1  C   UNL     1      42.687 -16.371   4.284  1.00  0.00     0.121 C 
HETATM    2  C   UNL     1      43.137 -17.380   5.291  1.00  0.00     0.091 C 
HETATM    3  N   UNL     1      43.507 -18.134   6.092  1.00  0.00    -0.195 NA
HETATM    4  C   UNL     1      41.148 -16.455   4.214  1.00  0.00     0.055 C 
ENDROOT
BRANCH   1   5
HETATM    5  C   UNL     1      43.347 -16.674   2.892  1.00  0.00     0.020 C 
HETATM    6  C   UNL     1      43.181 -15.546   1.863  1.00  0.00     0.013 C 
HETATM    7  C   UNL     1      42.853 -17.993   2.271  1.00  0.00     0.013 C 
ENDBRANCH   1   5
BRANCH   1   8
HETATM    8  N   UNL     1      43.092 -15.032   4.777  1.00  0.00    -0.335 N 
HETATM    9  C   UNL     1      42.643 -14.460   5.944  1.00  0.00     0.257 C 
HETATM   10  O   UNL     1      41.891 -15.038   6.722  1.00  0.00    -0.267 OA
HETATM   11  H   UNL     1      43.704 -14.490   4.176  1.00  0.00     0.164 HD
BRANCH   9  12
HETATM   12  C   UNL     1      43.046 -13.057   6.234  1.00  0.00     0.085 A 
HETATM   13  C   UNL     1      42.253 -11.931   6.017  1.00  0.00     0.185 A 
HETATM   14  N   UNL     1      42.642 -10.670   6.346  1.00  0.00    -0.236 NA
HETATM   15  C   UNL     1      43.874 -10.513   6.873  1.00  0.00     0.119 A 
HETATM   16  C   UNL     1      44.746 -11.562   7.097  1.00  0.00     0.020 A 
HETATM   17  C   UNL     1      44.324 -12.848   6.772  1.00  0.00     0.023 A 
BRANCH  13  18
HETATM   18  O   UNL     1      40.983 -12.107   5.478  1.00  0.00    -0.291 OA
BRANCH  18  19
HETATM   19  C   UNL     1      40.887 -12.308   4.122  1.00  0.00     0.078 A 
HETATM   20  C   UNL     1      41.822 -11.788   3.223  1.00  0.00     0.039 A 
HETATM   21  C   UNL     1      41.699 -12.059   1.858  1.00  0.00     0.026 A 
HETATM   22  C   UNL     1      40.659 -12.869   1.405  1.00  0.00     0.034 A 
HETATM   23 CL   UNL     1      40.506 -13.200  -0.277  1.00  0.00    -0.084 Cl
HETATM   24  C   UNL     1      39.744 -13.417   2.304  1.00  0.00     0.026 A 
HETATM   25  C   UNL     1      39.864 -13.143   3.668  1.00  0.00     0.039 A 
ENDBRANCH  18  19
ENDBRANCH  13  18
ENDBRANCH   9  12
ENDBRANCH   1   8
TORSDOF 5
ENDMDL
MODEL 5
REMARK VINA RESULT:      -6.7      3.408      5.912
REMARK  5 active torsions:
REMARK  status: ('A' for Active; 'I' for Inactive)
REMARK    1  A    between atoms: C_2  and  C_3 
REMARK    2  A    between atoms: C_3  and  N_4 
REMARK       I    between atoms: N_4  and  C_5 
REMARK    3  A    between atoms: C_5  and  C_6 
REMARK    4  A    between atoms: C_7  and  O_8 
REMARK    5  A    between atoms: O_8  and  C_9 
ROOT
HETATM    1  C   UNL     1      42.429 -16.169   4.112  1.00  0.00     0.121 C 
HETATM    2  C   UNL     1      43.587 -16.393   5.031  1.00  0.00     0.091 C 
HETATM    3  N   UNL     1      44.495 -16.529   5.741  1.00  0.00    -0.195 NA
HETATM    4  C   UNL     1      41.167 -16.678   4.838  1.00  0.00     0.055 C 
ENDROOT
BRANCH   1   5
HETATM    5  C   UNL     1      42.666 -16.930   2.758  1.00  0.00     0.020 C 
HETATM    6  C   UNL     1      43.475 -18.227   2.905  1.00  0.00     0.013 C 
HETATM    7  C   UNL     1      43.327 -16.047   1.685  1.00  0.00     0.013 C 
ENDBRANCH   1   5
BRANCH   1   8
HETATM    8  N   UNL     1      42.316 -14.708   3.880  1.00  0.00    -0.335 N 
HETATM    9  C   UNL     1      41.999 -13.786   4.849  1.00  0.00     0.257 C 
HETATM   10  O   UNL     1      41.828 -14.088   6.025  1.00  0.00    -0.267 OA
HETATM   11  H   UNL     1      42.433 -14.386   2.924  1.00  0.00     0.164 HD
BRANCH   9  12
HETATM   12  C   UNL     1      41.801 -12.372   4.429  1.00  0.00     0.085 A 
HETATM   13  C   UNL     1      42.761 -11.365   4.514  1.00  0.00     0.185 A 
HETATM   14  N   UNL     1      42.554 -10.096   4.069  1.00  0.00    -0.236 NA
HETATM   15  C   UNL     1      41.340  -9.804   3.557  1.00  0.00     0.119 A 
HETATM   16  C   UNL     1      40.313 -10.724   3.458  1.00  0.00     0.020 A 
HETATM   17  C   UNL     1      40.549 -12.022   3.901  1.00  0.00     0.023 A 
BRANCH  13  18
HETATM   18  O   UNL     1      44.009 -11.681   5.039  1.00  0.00    -0.291 OA
BRANCH  18  19
HETATM   19  C   UNL     1      44.323 -11.185   6.283  1.00  0.00     0.078 A 
HETATM   20  C   UNL     1      43.344 -10.860   7.225  1.00  0.00     0.039 A 
HETATM   21  C   UNL     1      43.722 -10.401   8.489  1.00  0.00     0.026 A 
HETATM   22  C   UNL     1      45.074 -10.294   8.810  1.00  0.00     0.034 A 
HETATM   23 CL   UNL     1      45.538  -9.725  10.367  1.00  0.00    -0.084 Cl
HETATM   24  C   UNL     1      46.053 -10.651   7.884  1.00  0.00     0.026 A 
HETATM   25  C   UNL     1      45.677 -11.106   6.618  1.00  0.00     0.039 A 
ENDBRANCH  18  19
ENDBRANCH  13  18
ENDBRANCH   9  12
ENDBRANCH   1   8
TORSDOF 5
ENDMDL
MODEL 6
REMARK VINA RESULT:      -6.7      2.284      4.713
REMARK  5 active torsions:
REMARK  status: ('A' for Active; 'I' for Inactive)
REMARK    1  A    between atoms: C_2  and  C_3 
REMARK    2  A    between atoms: C_3  and  N_4 
REMARK       I    between atoms: N_4  and  C_5 
REMARK    3  A    between atoms: C_5  and  C_6 
REMARK    4  A    between atoms: C_7  and  O_8 
REMARK    5  A    between atoms: O_8  and  C_9 
ROOT
HETATM    1  C   UNL     1      41.065 -11.821   5.230  1.00  0.00     0.121 C 
HETATM    2  C   UNL     1      39.841 -11.695   6.079  1.00  0.00     0.091 C 
HETATM    3  N   UNL     1      38.869 -11.609   6.707  1.00  0.00    -0.195 NA
HETATM    4  C   UNL     1      42.070 -12.695   6.009  1.00  0.00     0.055 C 
ENDROOT
BRANCH   1   5
HETATM    5  C   UNL     1      41.652 -10.397   4.923  1.00  0.00     0.020 C 
HETATM    6  C   UNL     1      42.069  -9.611   6.175  1.00  0.00     0.013 C 
HETATM    7  C   UNL     1      40.702  -9.527   4.081  1.00  0.00     0.013 C 
ENDBRANCH   1   5
BRANCH   1   8
HETATM    8  N   UNL     1      40.673 -12.508   3.976  1.00  0.00    -0.335 N 
HETATM    9  C   UNL     1      41.554 -12.931   3.008  1.00  0.00     0.257 C 
HETATM   10  O   UNL     1      42.770 -12.820   3.121  1.00  0.00    -0.267 OA
HETATM   11  H   UNL     1      39.678 -12.623   3.809  1.00  0.00     0.164 HD
BRANCH   9  12
HETATM   12  C   UNL     1      40.992 -13.491   1.749  1.00  0.00     0.085 A 
HETATM   13  C   UNL     1      40.355 -14.726   1.632  1.00  0.00     0.185 A 
HETATM   14  N   UNL     1      39.809 -15.177   0.470  1.00  0.00    -0.236 NA
HETATM   15  C   UNL     1      39.931 -14.395  -0.622  1.00  0.00     0.119 A 
HETATM   16  C   UNL     1      40.571 -13.170  -0.616  1.00  0.00     0.020 A 
HETATM   17  C   UNL     1      41.107 -12.716   0.586  1.00  0.00     0.023 A 
BRANCH  13  18
HETATM   18  O   UNL     1      40.233 -15.519   2.767  1.00  0.00    -0.291 OA
BRANCH  18  19
HETATM   19  C   UNL     1      41.303 -16.311   3.113  1.00  0.00     0.078 A 
HETATM   20  C   UNL     1      42.044 -17.018   2.162  1.00  0.00     0.039 A 
HETATM   21  C   UNL     1      43.148 -17.773   2.565  1.00  0.00     0.026 A 
HETATM   22  C   UNL     1      43.518 -17.795   3.909  1.00  0.00     0.034 A 
HETATM   23 CL   UNL     1      44.877 -18.727   4.404  1.00  0.00    -0.084 Cl
HETATM   24  C   UNL     1      42.801 -17.062   4.854  1.00  0.00     0.026 A 
HETATM   25  C   UNL     1      41.694 -16.310   4.453  1.00  0.00     0.039 A 
ENDBRANCH  18  19
ENDBRANCH  13  18
ENDBRANCH   9  12
ENDBRANCH   1   8
TORSDOF 5
ENDMDL
MODEL 7
REMARK VINA RESULT:      -6.5     15.861     18.095
REMARK  5 active torsions:
REMARK  status: ('A' for Active; 'I' for Inactive)
REMARK    1  A    between atoms: C_2  and  C_3 
REMARK    2  A    between atoms: C_3  and  N_4 
REMARK       I    between atoms: N_4  and  C_5 
REMARK    3  A    between atoms: C_5  and  C_6 
REMARK    4  A    between atoms: C_7  and  O_8 
REMARK    5  A    between atoms: O_8  and  C_9 
ROOT
HETATM    1  C   UNL     1      48.149 -29.991   3.261  1.00  0.00     0.121 C 
HETATM    2  C   UNL     1      48.510 -31.092   4.205  1.00  0.00     0.091 C 
HETATM    3  N   UNL     1      48.804 -31.968   4.907  1.00  0.00    -0.195 NA
HETATM    4  C   UNL     1      48.811 -28.702   3.791  1.00  0.00     0.055 C 
ENDROOT
BRANCH   1   5
HETATM    5  C   UNL     1      46.587 -29.847   3.179  1.00  0.00     0.020 C 
HETATM    6  C   UNL     1      45.851 -31.172   2.926  1.00  0.00     0.013 C 
HETATM    7  C   UNL     1      46.135 -28.817   2.129  1.00  0.00     0.013 C 
ENDBRANCH   1   5
BRANCH   1   8
HETATM    8  N   UNL     1      48.715 -30.333   1.933  1.00  0.00    -0.335 N 
HETATM    9  C   UNL     1      50.058 -30.366   1.642  1.00  0.00     0.257 C 
HETATM   10  O   UNL     1      50.927 -30.160   2.483  1.00  0.00    -0.267 OA
HETATM   11  H   UNL     1      48.052 -30.503   1.183  1.00  0.00     0.164 HD
BRANCH   9  12
HETATM   12  C   UNL     1      50.460 -30.604   0.229  1.00  0.00     0.085 A 
HETATM   13  C   UNL     1      49.927 -29.950  -0.881  1.00  0.00     0.185 A 
HETATM   14  N   UNL     1      50.361 -30.162  -2.153  1.00  0.00    -0.236 NA
HETATM   15  C   UNL     1      51.331 -31.081  -2.336  1.00  0.00     0.119 A 
HETATM   16  C   UNL     1      51.902 -31.804  -1.306  1.00  0.00     0.020 A 
HETATM   17  C   UNL     1      51.458 -31.561  -0.009  1.00  0.00     0.023 A 
BRANCH  13  18
HETATM   18  O   UNL     1      48.931 -29.002  -0.676  1.00  0.00    -0.291 OA
BRANCH  18  19
HETATM   19  C   UNL     1      47.733 -29.182  -1.328  1.00  0.00     0.078 A 
HETATM   20  C   UNL     1      47.085 -30.419  -1.367  1.00  0.00     0.039 A 
HETATM   21  C   UNL     1      45.848 -30.534  -2.007  1.00  0.00     0.026 A 
HETATM   22  C   UNL     1      45.258 -29.409  -2.579  1.00  0.00     0.034 A 
HETATM   23 CL   UNL     1      43.736 -29.553  -3.369  1.00  0.00    -0.084 Cl
HETATM   24  C   UNL     1      45.886 -28.166  -2.511  1.00  0.00     0.026 A 
HETATM   25  C   UNL     1      47.125 -28.050  -1.875  1.00  0.00     0.039 A 
ENDBRANCH  18  19
ENDBRANCH  13  18
ENDBRANCH   9  12
ENDBRANCH   1   8
TORSDOF 5
ENDMDL
MODEL 8
REMARK VINA RESULT:      -6.4      2.718      4.860
REMARK  5 active torsions:
REMARK  status: ('A' for Active; 'I' for Inactive)
REMARK    1  A    between atoms: C_2  and  C_3 
REMARK    2  A    between atoms: C_3  and  N_4 
REMARK       I    between atoms: N_4  and  C_5 
REMARK    3  A    between atoms: C_5  and  C_6 
REMARK    4  A    between atoms: C_7  and  O_8 
REMARK    5  A    between atoms: O_8  and  C_9 
ROOT
HETATM    1  C   UNL     1      40.742 -13.098   2.359  1.00  0.00     0.121 C 
HETATM    2  C   UNL     1      40.432 -14.151   1.344  1.00  0.00     0.091 C 
HETATM    3  N   UNL     1      40.213 -14.993   0.576  1.00  0.00    -0.195 NA
HETATM    4  C   UNL     1      39.395 -12.526   2.847  1.00  0.00     0.055 C 
ENDROOT
BRANCH   1   5
HETATM    5  C   UNL     1      41.645 -11.985   1.716  1.00  0.00     0.020 C 
HETATM    6  C   UNL     1      42.232 -10.993   2.732  1.00  0.00     0.013 C 
HETATM    7  C   UNL     1      40.925 -11.198   0.608  1.00  0.00     0.013 C 
ENDBRANCH   1   5
BRANCH   1   8
HETATM    8  N   UNL     1      41.444 -13.756   3.488  1.00  0.00    -0.335 N 
HETATM    9  C   UNL     1      42.620 -14.458   3.375  1.00  0.00     0.257 C 
HETATM   10  O   UNL     1      43.233 -14.563   2.318  1.00  0.00    -0.267 OA
HETATM   11  H   UNL     1      40.985 -13.721   4.394  1.00  0.00     0.164 HD
BRANCH   9  12
HETATM   12  C   UNL     1      43.130 -15.166   4.581  1.00  0.00     0.085 A 
HETATM   13  C   UNL     1      43.166 -14.636   5.870  1.00  0.00     0.185 A 
HETATM   14  N   UNL     1      43.592 -15.338   6.954  1.00  0.00    -0.236 NA
HETATM   15  C   UNL     1      44.034 -16.596   6.750  1.00  0.00     0.119 A 
HETATM   16  C   UNL     1      44.068 -17.200   5.506  1.00  0.00     0.020 A 
HETATM   17  C   UNL     1      43.610 -16.473   4.411  1.00  0.00     0.023 A 
BRANCH  13  18
HETATM   18  O   UNL     1      42.702 -13.340   6.067  1.00  0.00    -0.291 OA
BRANCH  18  19
HETATM   19  C   UNL     1      43.599 -12.403   6.523  1.00  0.00     0.078 A 
HETATM   20  C   UNL     1      43.515 -11.853   7.805  1.00  0.00     0.039 A 
HETATM   21  C   UNL     1      44.479 -10.936   8.231  1.00  0.00     0.026 A 
HETATM   22  C   UNL     1      45.532 -10.595   7.384  1.00  0.00     0.034 A 
HETATM   23 CL   UNL     1      46.717  -9.463   7.909  1.00  0.00    -0.084 Cl
HETATM   24  C   UNL     1      45.636 -11.168   6.117  1.00  0.00     0.026 A 
HETATM   25  C   UNL     1      44.671 -12.083   5.688  1.00  0.00     0.039 A 
ENDBRANCH  18  19
ENDBRANCH  13  18
ENDBRANCH   9  12
ENDBRANCH   1   8
TORSDOF 5
ENDMDL
MODEL 9
REMARK VINA RESULT:      -6.4      3.017      5.743
REMARK  5 active torsions:
REMARK  status: ('A' for Active; 'I' for Inactive)
REMARK    1  A    between atoms: C_2  and  C_3 
REMARK    2  A    between atoms: C_3  and  N_4 
REMARK       I    between atoms: N_4  and  C_5 
REMARK    3  A    between atoms: C_5  and  C_6 
REMARK    4  A    between atoms: C_7  and  O_8 
REMARK    5  A    between atoms: O_8  and  C_9 
ROOT
HETATM    1  C   UNL     1      42.438 -15.564   4.220  1.00  0.00     0.121 C 
HETATM    2  C   UNL     1      43.316 -15.614   5.429  1.00  0.00     0.091 C 
HETATM    3  N   UNL     1      44.001 -15.614   6.366  1.00  0.00    -0.195 NA
HETATM    4  C   UNL     1      41.124 -16.287   4.582  1.00  0.00     0.055 C 
ENDROOT
BRANCH   1   5
HETATM    5  C   UNL     1      43.161 -16.251   3.006  1.00  0.00     0.020 C 
HETATM    6  C   UNL     1      43.455 -15.301   1.836  1.00  0.00     0.013 C 
HETATM    7  C   UNL     1      42.400 -17.478   2.474  1.00  0.00     0.013 C 
ENDBRANCH   1   5
BRANCH   1   8
HETATM    8  N   UNL     1      42.159 -14.138   3.926  1.00  0.00    -0.335 N 
HETATM    9  C   UNL     1      41.530 -13.271   4.788  1.00  0.00     0.257 C 
HETATM   10  O   UNL     1      41.184 -13.593   5.920  1.00  0.00    -0.267 OA
HETATM   11  H   UNL     1      42.408 -13.805   3.000  1.00  0.00     0.164 HD
BRANCH   9  12
HETATM   12  C   UNL     1      41.211 -11.904   4.294  1.00  0.00     0.085 A 
HETATM   13  C   UNL     1      40.158 -11.583   3.439  1.00  0.00     0.185 A 
HETATM   14  N   UNL     1      39.870 -10.311   3.054  1.00  0.00    -0.236 NA
HETATM   15  C   UNL     1      40.676  -9.325   3.500  1.00  0.00     0.119 A 
HETATM   16  C   UNL     1      41.763  -9.545   4.325  1.00  0.00     0.020 A 
HETATM   17  C   UNL     1      42.031 -10.851   4.725  1.00  0.00     0.023 A 
BRANCH  13  18
HETATM   18  O   UNL     1      39.332 -12.608   2.991  1.00  0.00    -0.291 OA
BRANCH  18  19
HETATM   19  C   UNL     1      39.418 -12.965   1.666  1.00  0.00     0.078 A 
HETATM   20  C   UNL     1      39.024 -12.107   0.636  1.00  0.00     0.039 A 
HETATM   21  C   UNL     1      39.174 -12.505  -0.695  1.00  0.00     0.026 A 
HETATM   22  C   UNL     1      39.739 -13.746  -0.986  1.00  0.00     0.034 A 
HETATM   23 CL   UNL     1      39.920 -14.237  -2.625  1.00  0.00    -0.084 Cl
HETATM   24  C   UNL     1      40.164 -14.590   0.040  1.00  0.00     0.026 A 
HETATM   25  C   UNL     1      40.011 -14.194   1.371  1.00  0.00     0.039 A 
ENDBRANCH  18  19
ENDBRANCH  13  18
ENDBRANCH   9  12
ENDBRANCH   1   8
TORSDOF 5
ENDMDL
MODEL 10
REMARK VINA RESULT:      -6.3     15.661     18.673
REMARK  5 active torsions:
REMARK  status: ('A' for Active; 'I' for Inactive)
REMARK    1  A    between atoms: C_2  and  C_3 
REMARK    2  A    between atoms: C_3  and  N_4 
REMARK       I    between atoms: N_4  and  C_5 
REMARK    3  A    between atoms: C_5  and  C_6 
REMARK    4  A    between atoms: C_7  and  O_8 
REMARK    5  A    between atoms: O_8  and  C_9 
ROOT
HETATM    1  C   UNL     1      50.891 -31.843  -1.405  1.00  0.00     0.121 C 
HETATM    2  C   UNL     1      50.360 -32.968  -2.234  1.00  0.00     0.091 C 
HETATM    3  N   UNL     1      49.912 -33.836  -2.862  1.00  0.00    -0.195 NA
HETATM    4  C   UNL     1      51.623 -30.880  -2.362  1.00  0.00     0.055 C 
ENDROOT
BRANCH   1   5
HETATM    5  C   UNL     1      51.854 -32.403  -0.298  1.00  0.00     0.020 C 
HETATM    6  C   UNL     1      53.196 -32.919  -0.840  1.00  0.00     0.013 C 
HETATM    7  C   UNL     1      51.205 -33.505   0.558  1.00  0.00     0.013 C 
ENDBRANCH   1   5
BRANCH   1   8
HETATM    8  N   UNL     1      49.732 -31.152  -0.791  1.00  0.00    -0.335 N 
HETATM    9  C   UNL     1      49.825 -30.164   0.162  1.00  0.00     0.257 C 
HETATM   10  O   UNL     1      50.898 -29.724   0.559  1.00  0.00    -0.267 OA
HETATM   11  H   UNL     1      48.809 -31.475  -1.065  1.00  0.00     0.164 HD
BRANCH   9  12
HETATM   12  C   UNL     1      48.564 -29.659   0.770  1.00  0.00     0.085 A 
HETATM   13  C   UNL     1      47.615 -28.874   0.118  1.00  0.00     0.185 A 
HETATM   14  N   UNL     1      46.450 -28.477   0.697  1.00  0.00    -0.236 NA
HETATM   15  C   UNL     1      46.234 -28.838   1.979  1.00  0.00     0.119 A 
HETATM   16  C   UNL     1      47.128 -29.588   2.720  1.00  0.00     0.020 A 
HETATM   17  C   UNL     1      48.307 -30.002   2.105  1.00  0.00     0.023 A 
BRANCH  13  18
HETATM   18  O   UNL     1      47.848 -28.513  -1.205  1.00  0.00    -0.291 OA
BRANCH  18  19
HETATM   19  C   UNL     1      46.917 -28.892  -2.144  1.00  0.00     0.078 A 
HETATM   20  C   UNL     1      45.982 -27.996  -2.669  1.00  0.00     0.039 A 
HETATM   21  C   UNL     1      45.088 -28.424  -3.653  1.00  0.00     0.026 A 
HETATM   22  C   UNL     1      45.152 -29.735  -4.123  1.00  0.00     0.034 A 
HETATM   23 CL   UNL     1      44.048 -30.262  -5.333  1.00  0.00    -0.084 Cl
HETATM   24  C   UNL     1      46.107 -30.621  -3.625  1.00  0.00     0.026 A 
HETATM   25  C   UNL     1      46.999 -30.195  -2.638  1.00  0.00     0.039 A 
ENDBRANCH  18  19
ENDBRANCH  13  18
ENDBRANCH   9  12
ENDBRANCH   1   8
TORSDOF 5
ENDMDL
