MODEL 1
REMARK VINA RESULT:      -8.5      0.000      0.000
REMARK  3 active torsions:
REMARK  status: ('A' for Active; 'I' for Inactive)
REMARK    1  A    between atoms: C_3  and  N_4 
REMARK       I    between atoms: N_4  and  C_5 
REMARK    2  A    between atoms: C_5  and  C_6 
REMARK    3  A    between atoms: C_6  and  C_7 
ROOT
HETATM    1  C   UNL     1      41.320 -14.711   1.503  1.00  0.00     0.286 C 
HETATM    2  N   UNL     1      40.336 -15.159   0.414  1.00  0.00    -0.056 N 
HETATM    3  H   UNL     1      40.662 -16.065   0.025  1.00  0.00     0.278 HD
HETATM    4  H   UNL     1      39.413 -15.333   0.831  1.00  0.00     0.278 HD
HETATM    5  C   UNL     1      40.215 -14.220  -0.759  1.00  0.00     0.209 C 
HETATM    6  C   UNL     1      39.966 -12.789  -0.245  1.00  0.00     0.115 C 
HETATM    7  N   UNL     1      41.029 -12.373   0.654  1.00  0.00    -0.353 N 
HETATM    8  C   UNL     1      41.682 -13.210   1.514  1.00  0.00     0.249 C 
HETATM    9  O   UNL     1      42.560 -12.764   2.247  1.00  0.00    -0.271 OA
HETATM   10  C   UNL     1      39.093 -14.685  -1.679  1.00  0.00     0.035 C 
HETATM   11  C   UNL     1      38.958 -13.730  -2.865  1.00  0.00     0.002 C 
HETATM   12  C   UNL     1      38.769 -12.282  -2.415  1.00  0.00     0.002 C 
HETATM   13  C   UNL     1      39.847 -11.828  -1.431  1.00  0.00     0.027 C 
HETATM   14  H   UNL     1      41.239 -11.383   0.772  1.00  0.00     0.163 HD
ENDROOT
BRANCH   1  15
HETATM   15  C   UNL     1      42.599 -15.558   1.509  1.00  0.00     0.146 C 
BRANCH  15  16
HETATM   16  C   UNL     1      42.462 -16.625   2.559  1.00  0.00     0.224 C 
HETATM   17  N   UNL     1      43.597 -17.374   2.766  1.00  0.00    -0.327 N 
HETATM   18  H   UNL     1      44.375 -17.237   2.123  1.00  0.00     0.169 HD
HETATM   19  O   UNL     1      41.326 -16.852   2.977  1.00  0.00    -0.273 OA
BRANCH  17  20
HETATM   20  C   UNL     1      43.677 -18.557   3.543  1.00  0.00     0.040 A 
HETATM   21  C   UNL     1      43.699 -19.868   3.036  1.00  0.00    -0.035 A 
HETATM   22  C   UNL     1      43.466 -20.237   1.597  1.00  0.00     0.050 C 
HETATM   23  C   UNL     1      43.884 -20.939   3.935  1.00  0.00     0.009 A 
HETATM   24  C   UNL     1      43.978 -20.724   5.308  1.00  0.00     0.001 A 
HETATM   25  C   UNL     1      43.876 -19.435   5.811  1.00  0.00     0.002 A 
HETATM   26  C   UNL     1      43.717 -18.360   4.935  1.00  0.00     0.030 A 
ENDBRANCH  17  20
ENDBRANCH  15  16
ENDBRANCH   1  15
TORSDOF 3
ENDMDL
MODEL 2
REMARK VINA RESULT:      -8.4      0.730      1.628
REMARK  3 active torsions:
REMARK  status: ('A' for Active; 'I' for Inactive)
REMARK    1  A    between atoms: C_3  and  N_4 
REMARK       I    between atoms: N_4  and  C_5 
REMARK    2  A    between atoms: C_5  and  C_6 
REMARK    3  A    between atoms: C_6  and  C_7 
ROOT
HETATM    1  C   UNL     1      40.846 -14.519   1.430  1.00  0.00     0.286 C 
HETATM    2  N   UNL     1      40.102 -15.128   0.234  1.00  0.00    -0.056 N 
HETATM    3  H   UNL     1      40.672 -15.906  -0.151  1.00  0.00     0.278 HD
HETATM    4  H   UNL     1      39.216 -15.541   0.551  1.00  0.00     0.278 HD
HETATM    5  C   UNL     1      39.859 -14.180  -0.914  1.00  0.00     0.209 C 
HETATM    6  C   UNL     1      39.224 -12.882  -0.380  1.00  0.00     0.115 C 
HETATM    7  N   UNL     1      40.069 -12.275   0.634  1.00  0.00    -0.353 N 
HETATM    8  C   UNL     1      40.828 -12.978   1.526  1.00  0.00     0.249 C 
HETATM    9  O   UNL     1      41.502 -12.376   2.358  1.00  0.00    -0.271 OA
HETATM   10  C   UNL     1      38.970 -14.848  -1.956  1.00  0.00     0.035 C 
HETATM   11  C   UNL     1      38.713 -13.888  -3.117  1.00  0.00     0.002 C 
HETATM   12  C   UNL     1      38.136 -12.555  -2.641  1.00  0.00     0.002 C 
HETATM   13  C   UNL     1      38.979 -11.912  -1.539  1.00  0.00     0.027 C 
HETATM   14  H   UNL     1      40.019 -11.272   0.806  1.00  0.00     0.163 HD
ENDROOT
BRANCH   1  15
HETATM   15  C   UNL     1      42.287 -15.033   1.535  1.00  0.00     0.146 C 
BRANCH  15  16
HETATM   16  C   UNL     1      42.308 -16.211   2.468  1.00  0.00     0.224 C 
HETATM   17  N   UNL     1      43.483 -16.927   2.460  1.00  0.00    -0.327 N 
HETATM   18  H   UNL     1      44.174 -16.688   1.752  1.00  0.00     0.169 HD
HETATM   19  O   UNL     1      41.238 -16.531   2.986  1.00  0.00    -0.273 OA
BRANCH  17  20
HETATM   20  C   UNL     1      43.691 -18.182   3.086  1.00  0.00     0.040 A 
HETATM   21  C   UNL     1      44.035 -18.374   4.435  1.00  0.00    -0.035 A 
HETATM   22  C   UNL     1      44.410 -17.276   5.392  1.00  0.00     0.050 C 
HETATM   23  C   UNL     1      44.108 -19.691   4.935  1.00  0.00     0.009 A 
HETATM   24  C   UNL     1      43.912 -20.793   4.105  1.00  0.00     0.001 A 
HETATM   25  C   UNL     1      43.650 -20.599   2.756  1.00  0.00     0.002 A 
HETATM   26  C   UNL     1      43.550 -19.303   2.248  1.00  0.00     0.030 A 
ENDBRANCH  17  20
ENDBRANCH  15  16
ENDBRANCH   1  15
TORSDOF 3
ENDMDL
MODEL 3
REMARK VINA RESULT:      -8.4      3.156      4.285
REMARK  3 active torsions:
REMARK  status: ('A' for Active; 'I' for Inactive)
REMARK    1  A    between atoms: C_3  and  N_4 
REMARK       I    between atoms: N_4  and  C_5 
REMARK    2  A    between atoms: C_5  and  C_6 
REMARK    3  A    between atoms: C_6  and  C_7 
ROOT
HETATM    1  C   UNL     1      42.840 -14.283   6.377  1.00  0.00     0.286 C 
HETATM    2  N   UNL     1      42.096 -14.532   5.059  1.00  0.00    -0.056 N 
HETATM    3  H   UNL     1      42.359 -15.471   4.701  1.00  0.00     0.278 HD
HETATM    4  H   UNL     1      41.083 -14.557   5.232  1.00  0.00     0.278 HD
HETATM    5  C   UNL     1      42.416 -13.557   3.953  1.00  0.00     0.209 C 
HETATM    6  C   UNL     1      42.279 -12.118   4.484  1.00  0.00     0.115 C 
HETATM    7  N   UNL     1      43.141 -11.910   5.636  1.00  0.00    -0.353 N 
HETATM    8  C   UNL     1      43.422 -12.866   6.570  1.00  0.00     0.249 C 
HETATM    9  O   UNL     1      44.152 -12.593   7.519  1.00  0.00    -0.271 OA
HETATM   10  C   UNL     1      41.494 -13.804   2.765  1.00  0.00     0.035 C 
HETATM   11  C   UNL     1      41.808 -12.812   1.645  1.00  0.00     0.002 C 
HETATM   12  C   UNL     1      41.746 -11.363   2.129  1.00  0.00     0.002 C 
HETATM   13  C   UNL     1      42.608 -11.122   3.369  1.00  0.00     0.027 C 
HETATM   14  H   UNL     1      43.469 -10.973   5.864  1.00  0.00     0.163 HD
ENDROOT
BRANCH   1  15
HETATM   15  C   UNL     1      43.928 -15.334   6.632  1.00  0.00     0.146 C 
BRANCH  15  16
HETATM   16  C   UNL     1      43.462 -16.651   6.077  1.00  0.00     0.224 C 
HETATM   17  N   UNL     1      44.298 -17.204   5.135  1.00  0.00    -0.327 N 
HETATM   18  H   UNL     1      45.076 -16.635   4.805  1.00  0.00     0.169 HD
HETATM   19  O   UNL     1      42.315 -17.000   6.359  1.00  0.00    -0.273 OA
BRANCH  17  20
HETATM   20  C   UNL     1      44.000 -18.323   4.319  1.00  0.00     0.040 A 
HETATM   21  C   UNL     1      43.574 -18.268   2.980  1.00  0.00    -0.035 A 
HETATM   22  C   UNL     1      43.198 -17.009   2.249  1.00  0.00     0.050 C 
HETATM   23  C   UNL     1      43.414 -19.476   2.270  1.00  0.00     0.009 A 
HETATM   24  C   UNL     1      43.605 -20.711   2.887  1.00  0.00     0.001 A 
HETATM   25  C   UNL     1      43.949 -20.761   4.231  1.00  0.00     0.002 A 
HETATM   26  C   UNL     1      44.135 -19.576   4.944  1.00  0.00     0.030 A 
ENDBRANCH  17  20
ENDBRANCH  15  16
ENDBRANCH   1  15
TORSDOF 3
ENDMDL
MODEL 4
REMARK VINA RESULT:      -8.1      2.148      7.561
REMARK  3 active torsions:
REMARK  status: ('A' for Active; 'I' for Inactive)
REMARK    1  A    between atoms: C_3  and  N_4 
REMARK       I    between atoms: N_4  and  C_5 
REMARK    2  A    between atoms: C_5  and  C_6 
REMARK    3  A    between atoms: C_6  and  C_7 
ROOT
HETATM    1  C   UNL     1      43.409 -16.103   5.166  1.00  0.00     0.286 C 
HETATM    2  N   UNL     1      43.456 -16.673   3.742  1.00  0.00    -0.056 N 
HETATM    3  H   UNL     1      42.721 -16.210   3.174  1.00  0.00     0.278 HD
HETATM    4  H   UNL     1      44.356 -16.439   3.305  1.00  0.00     0.278 HD
HETATM    5  C   UNL     1      43.192 -18.155   3.641  1.00  0.00     0.209 C 
HETATM    6  C   UNL     1      44.090 -18.904   4.643  1.00  0.00     0.115 C 
HETATM    7  N   UNL     1      43.867 -18.421   5.995  1.00  0.00    -0.353 N 
HETATM    8  C   UNL     1      43.574 -17.125   6.311  1.00  0.00     0.249 C 
HETATM    9  O   UNL     1      43.416 -16.806   7.486  1.00  0.00    -0.271 OA
HETATM   10  C   UNL     1      43.435 -18.626   2.212  1.00  0.00     0.035 C 
HETATM   11  C   UNL     1      43.178 -20.129   2.106  1.00  0.00     0.002 C 
HETATM   12  C   UNL     1      44.000 -20.923   3.121  1.00  0.00     0.002 C 
HETATM   13  C   UNL     1      43.824 -20.409   4.550  1.00  0.00     0.027 C 
HETATM   14  H   UNL     1      44.060 -19.026   6.791  1.00  0.00     0.163 HD
ENDROOT
BRANCH   1  15
HETATM   15  C   UNL     1      42.157 -15.249   5.403  1.00  0.00     0.146 C 
BRANCH  15  16
HETATM   16  C   UNL     1      41.876 -14.454   4.159  1.00  0.00     0.224 C 
HETATM   17  N   UNL     1      40.653 -14.708   3.581  1.00  0.00    -0.327 N 
HETATM   18  H   UNL     1      40.108 -15.482   3.956  1.00  0.00     0.169 HD
HETATM   19  O   UNL     1      42.816 -13.821   3.677  1.00  0.00    -0.273 OA
BRANCH  17  20
HETATM   20  C   UNL     1      40.229 -14.251   2.309  1.00  0.00     0.040 A 
HETATM   21  C   UNL     1      39.735 -12.966   2.025  1.00  0.00    -0.035 A 
HETATM   22  C   UNL     1      39.412 -11.922   3.058  1.00  0.00     0.050 C 
HETATM   23  C   UNL     1      39.448 -12.630   0.686  1.00  0.00     0.009 A 
HETATM   24  C   UNL     1      39.582 -13.564  -0.340  1.00  0.00     0.001 A 
HETATM   25  C   UNL     1      39.995 -14.855  -0.044  1.00  0.00     0.002 A 
HETATM   26  C   UNL     1      40.307 -15.199   1.272  1.00  0.00     0.030 A 
ENDBRANCH  17  20
ENDBRANCH  15  16
ENDBRANCH   1  15
TORSDOF 3
ENDMDL
MODEL 5
REMARK VINA RESULT:      -8.0      5.870      7.906
REMARK  3 active torsions:
REMARK  status: ('A' for Active; 'I' for Inactive)
REMARK    1  A    between atoms: C_3  and  N_4 
REMARK       I    between atoms: N_4  and  C_5 
REMARK    2  A    between atoms: C_5  and  C_6 
REMARK    3  A    between atoms: C_6  and  C_7 
ROOT
HETATM    1  C   UNL     1      43.759 -12.297   6.432  1.00  0.00     0.286 C 
HETATM    2  N   UNL     1      43.512 -12.100   7.933  1.00  0.00    -0.056 N 
HETATM    3  H   UNL     1      42.489 -12.135   8.109  1.00  0.00     0.278 HD
HETATM    4  H   UNL     1      43.927 -12.880   8.458  1.00  0.00     0.278 HD
HETATM    5  C   UNL     1      43.988 -10.781   8.488  1.00  0.00     0.209 C 
HETATM    6  C   UNL     1      45.448 -10.542   8.060  1.00  0.00     0.115 C 
HETATM    7  N   UNL     1      45.572 -10.580   6.613  1.00  0.00    -0.353 N 
HETATM    8  C   UNL     1      44.837 -11.393   5.797  1.00  0.00     0.249 C 
HETATM    9  O   UNL     1      45.023 -11.364   4.584  1.00  0.00    -0.271 OA
HETATM   10  C   UNL     1      43.843 -10.777  10.005  1.00  0.00     0.035 C 
HETATM   11  C   UNL     1      44.333  -9.446  10.574  1.00  0.00     0.002 C 
HETATM   12  C   UNL     1      45.761  -9.125  10.133  1.00  0.00     0.002 C 
HETATM   13  C   UNL     1      45.937  -9.202   8.616  1.00  0.00     0.027 C 
HETATM   14  H   UNL     1      46.332 -10.080   6.153  1.00  0.00     0.163 HD
ENDROOT
BRANCH   1  15
HETATM   15  C   UNL     1      42.462 -12.214   5.618  1.00  0.00     0.146 C 
BRANCH  15  16
HETATM   16  C   UNL     1      42.152 -13.578   5.068  1.00  0.00     0.224 C 
HETATM   17  N   UNL     1      43.246 -14.267   4.597  1.00  0.00    -0.327 N 
HETATM   18  H   UNL     1      44.129 -13.765   4.540  1.00  0.00     0.169 HD
HETATM   19  O   UNL     1      40.963 -13.859   4.912  1.00  0.00    -0.273 OA
BRANCH  17  20
HETATM   20  C   UNL     1      43.205 -15.473   3.853  1.00  0.00     0.040 A 
HETATM   21  C   UNL     1      42.973 -15.574   2.471  1.00  0.00    -0.035 A 
HETATM   22  C   UNL     1      42.555 -14.433   1.584  1.00  0.00     0.050 C 
HETATM   23  C   UNL     1      43.064 -16.841   1.858  1.00  0.00     0.009 A 
HETATM   24  C   UNL     1      43.313 -17.991   2.605  1.00  0.00     0.001 A 
HETATM   25  C   UNL     1      43.463 -17.896   3.982  1.00  0.00     0.002 A 
HETATM   26  C   UNL     1      43.400 -16.648   4.602  1.00  0.00     0.030 A 
ENDBRANCH  17  20
ENDBRANCH  15  16
ENDBRANCH   1  15
TORSDOF 3
ENDMDL
MODEL 6
REMARK VINA RESULT:      -7.8      5.201      7.051
REMARK  3 active torsions:
REMARK  status: ('A' for Active; 'I' for Inactive)
REMARK    1  A    between atoms: C_3  and  N_4 
REMARK       I    between atoms: N_4  and  C_5 
REMARK    2  A    between atoms: C_5  and  C_6 
REMARK    3  A    between atoms: C_6  and  C_7 
ROOT
HETATM    1  C   UNL     1      42.335 -12.220   5.804  1.00  0.00     0.286 C 
HETATM    2  N   UNL     1      43.809 -11.951   6.138  1.00  0.00    -0.056 N 
HETATM    3  H   UNL     1      44.282 -12.859   6.309  1.00  0.00     0.278 HD
HETATM    4  H   UNL     1      44.275 -11.524   5.328  1.00  0.00     0.278 HD
HETATM    5  C   UNL     1      44.038 -11.120   7.376  1.00  0.00     0.209 C 
HETATM    6  C   UNL     1      43.172  -9.849   7.307  1.00  0.00     0.115 C 
HETATM    7  N   UNL     1      41.768 -10.190   7.155  1.00  0.00    -0.353 N 
HETATM    8  C   UNL     1      41.308 -11.263   6.446  1.00  0.00     0.249 C 
HETATM    9  O   UNL     1      40.100 -11.464   6.362  1.00  0.00    -0.271 OA
HETATM   10  C   UNL     1      45.519 -10.781   7.502  1.00  0.00     0.035 C 
HETATM   11  C   UNL     1      45.756  -9.931   8.750  1.00  0.00     0.002 C 
HETATM   12  C   UNL     1      44.877  -8.681   8.767  1.00  0.00     0.002 C 
HETATM   13  C   UNL     1      43.396  -9.002   8.563  1.00  0.00     0.027 C 
HETATM   14  H   UNL     1      41.049  -9.542   7.473  1.00  0.00     0.163 HD
ENDROOT
BRANCH   1  15
HETATM   15  C   UNL     1      41.938 -13.676   6.079  1.00  0.00     0.146 C 
BRANCH  15  16
HETATM   16  C   UNL     1      42.426 -14.529   4.942  1.00  0.00     0.224 C 
HETATM   17  N   UNL     1      42.221 -15.879   5.110  1.00  0.00    -0.327 N 
HETATM   18  H   UNL     1      41.883 -16.194   6.017  1.00  0.00     0.169 HD
HETATM   19  O   UNL     1      43.120 -13.976   4.089  1.00  0.00    -0.273 OA
BRANCH  17  20
HETATM   20  C   UNL     1      42.758 -16.905   4.293  1.00  0.00     0.040 A 
HETATM   21  C   UNL     1      42.389 -17.168   2.962  1.00  0.00    -0.035 A 
HETATM   22  C   UNL     1      41.240 -16.515   2.244  1.00  0.00     0.050 C 
HETATM   23  C   UNL     1      43.090 -18.161   2.248  1.00  0.00     0.009 A 
HETATM   24  C   UNL     1      44.086 -18.924   2.855  1.00  0.00     0.001 A 
HETATM   25  C   UNL     1      44.392 -18.715   4.193  1.00  0.00     0.002 A 
HETATM   26  C   UNL     1      43.726 -17.719   4.909  1.00  0.00     0.030 A 
ENDBRANCH  17  20
ENDBRANCH  15  16
ENDBRANCH   1  15
TORSDOF 3
ENDMDL
MODEL 7
REMARK VINA RESULT:      -7.8      2.525      3.430
REMARK  3 active torsions:
REMARK  status: ('A' for Active; 'I' for Inactive)
REMARK    1  A    between atoms: C_3  and  N_4 
REMARK       I    between atoms: N_4  and  C_5 
REMARK    2  A    between atoms: C_5  and  C_6 
REMARK    3  A    between atoms: C_6  and  C_7 
ROOT
HETATM    1  C   UNL     1      39.910 -13.200   4.695  1.00  0.00     0.286 C 
HETATM    2  N   UNL     1      39.844 -14.336   3.665  1.00  0.00    -0.056 N 
HETATM    3  H   UNL     1      40.535 -15.064   3.929  1.00  0.00     0.278 HD
HETATM    4  H   UNL     1      38.919 -14.782   3.700  1.00  0.00     0.278 HD
HETATM    5  C   UNL     1      40.181 -13.932   2.251  1.00  0.00     0.209 C 
HETATM    6  C   UNL     1      39.356 -12.690   1.864  1.00  0.00     0.115 C 
HETATM    7  N   UNL     1      39.599 -11.600   2.794  1.00  0.00    -0.353 N 
HETATM    8  C   UNL     1      39.836 -11.766   4.129  1.00  0.00     0.249 C 
HETATM    9  O   UNL     1      40.017 -10.782   4.841  1.00  0.00    -0.271 OA
HETATM   10  C   UNL     1      39.914 -15.096   1.305  1.00  0.00     0.035 C 
HETATM   11  C   UNL     1      40.244 -14.690  -0.131  1.00  0.00     0.002 C 
HETATM   12  C   UNL     1      39.498 -13.424  -0.553  1.00  0.00     0.002 C 
HETATM   13  C   UNL     1      39.696 -12.271   0.431  1.00  0.00     0.027 C 
HETATM   14  H   UNL     1      39.465 -10.635   2.496  1.00  0.00     0.163 HD
ENDROOT
BRANCH   1  15
HETATM   15  C   UNL     1      41.123 -13.334   5.624  1.00  0.00     0.146 C 
BRANCH  15  16
HETATM   16  C   UNL     1      41.633 -14.746   5.547  1.00  0.00     0.224 C 
HETATM   17  N   UNL     1      42.703 -14.923   4.701  1.00  0.00    -0.327 N 
HETATM   18  H   UNL     1      42.975 -14.136   4.115  1.00  0.00     0.169 HD
HETATM   19  O   UNL     1      40.941 -15.617   6.075  1.00  0.00    -0.273 OA
BRANCH  17  20
HETATM   20  C   UNL     1      43.240 -16.171   4.297  1.00  0.00     0.040 A 
HETATM   21  C   UNL     1      44.068 -16.997   5.077  1.00  0.00    -0.035 A 
HETATM   22  C   UNL     1      44.662 -16.610   6.403  1.00  0.00     0.050 C 
HETATM   23  C   UNL     1      44.438 -18.259   4.570  1.00  0.00     0.009 A 
HETATM   24  C   UNL     1      44.055 -18.668   3.294  1.00  0.00     0.001 A 
HETATM   25  C   UNL     1      43.304 -17.817   2.496  1.00  0.00     0.002 A 
HETATM   26  C   UNL     1      42.907 -16.574   2.990  1.00  0.00     0.030 A 
ENDBRANCH  17  20
ENDBRANCH  15  16
ENDBRANCH   1  15
TORSDOF 3
ENDMDL
MODEL 8
REMARK VINA RESULT:      -7.6      1.614      2.802
REMARK  3 active torsions:
REMARK  status: ('A' for Active; 'I' for Inactive)
REMARK    1  A    between atoms: C_3  and  N_4 
REMARK       I    between atoms: N_4  and  C_5 
REMARK    2  A    between atoms: C_5  and  C_6 
REMARK    3  A    between atoms: C_6  and  C_7 
ROOT
HETATM    1  C   UNL     1      41.251 -14.286   1.735  1.00  0.00     0.286 C 
HETATM    2  N   UNL     1      41.631 -12.835   1.413  1.00  0.00    -0.056 N 
HETATM    3  H   UNL     1      41.667 -12.296   2.300  1.00  0.00     0.278 HD
HETATM    4  H   UNL     1      42.577 -12.805   1.012  1.00  0.00     0.278 HD
HETATM    5  C   UNL     1      40.658 -12.106   0.520  1.00  0.00     0.209 C 
HETATM    6  C   UNL     1      40.365 -12.964  -0.725  1.00  0.00     0.115 C 
HETATM    7  N   UNL     1      39.852 -14.268  -0.341  1.00  0.00    -0.353 N 
HETATM    8  C   UNL     1      40.242 -14.952   0.775  1.00  0.00     0.249 C 
HETATM    9  O   UNL     1      39.761 -16.057   1.011  1.00  0.00    -0.271 OA
HETATM   10  C   UNL     1      41.229 -10.745   0.138  1.00  0.00     0.035 C 
HETATM   11  C   UNL     1      40.251 -10.006  -0.775  1.00  0.00     0.002 C 
HETATM   12  C   UNL     1      39.875 -10.836  -2.003  1.00  0.00     0.002 C 
HETATM   13  C   UNL     1      39.374 -12.233  -1.634  1.00  0.00     0.027 C 
HETATM   14  H   UNL     1      39.261 -14.793  -0.985  1.00  0.00     0.163 HD
ENDROOT
BRANCH   1  15
HETATM   15  C   UNL     1      40.782 -14.451   3.185  1.00  0.00     0.146 C 
BRANCH  15  16
HETATM   16  C   UNL     1      41.341 -15.736   3.727  1.00  0.00     0.224 C 
HETATM   17  N   UNL     1      42.431 -16.221   3.042  1.00  0.00    -0.327 N 
HETATM   18  H   UNL     1      42.685 -15.756   2.173  1.00  0.00     0.169 HD
HETATM   19  O   UNL     1      40.672 -16.319   4.581  1.00  0.00    -0.273 OA
BRANCH  17  20
HETATM   20  C   UNL     1      43.017 -17.499   3.218  1.00  0.00     0.040 A 
HETATM   21  C   UNL     1      43.796 -17.897   4.319  1.00  0.00    -0.035 A 
HETATM   22  C   UNL     1      44.280 -16.978   5.406  1.00  0.00     0.050 C 
HETATM   23  C   UNL     1      44.225 -19.238   4.396  1.00  0.00     0.009 A 
HETATM   24  C   UNL     1      43.948 -20.148   3.378  1.00  0.00     0.001 A 
HETATM   25  C   UNL     1      43.246 -19.730   2.255  1.00  0.00     0.002 A 
HETATM   26  C   UNL     1      42.793 -18.413   2.172  1.00  0.00     0.030 A 
ENDBRANCH  17  20
ENDBRANCH  15  16
ENDBRANCH   1  15
TORSDOF 3
ENDMDL
MODEL 9
REMARK VINA RESULT:      -7.6      1.999      7.645
REMARK  3 active torsions:
REMARK  status: ('A' for Active; 'I' for Inactive)
REMARK    1  A    between atoms: C_3  and  N_4 
REMARK       I    between atoms: N_4  and  C_5 
REMARK    2  A    between atoms: C_5  and  C_6 
REMARK    3  A    between atoms: C_6  and  C_7 
ROOT
HETATM    1  C   UNL     1      41.990 -14.162   3.769  1.00  0.00     0.286 C 
HETATM    2  N   UNL     1      42.442 -15.220   2.754  1.00  0.00    -0.056 N 
HETATM    3  H   UNL     1      41.695 -15.338   2.042  1.00  0.00     0.278 HD
HETATM    4  H   UNL     1      43.276 -14.886   2.253  1.00  0.00     0.278 HD
HETATM    5  C   UNL     1      42.689 -16.591   3.332  1.00  0.00     0.209 C 
HETATM    6  C   UNL     1      43.612 -16.470   4.559  1.00  0.00     0.115 C 
HETATM    7  N   UNL     1      43.036 -15.577   5.550  1.00  0.00    -0.353 N 
HETATM    8  C   UNL     1      42.295 -14.470   5.251  1.00  0.00     0.249 C 
HETATM    9  O   UNL     1      41.860 -13.766   6.158  1.00  0.00    -0.271 OA
HETATM   10  C   UNL     1      43.293 -17.499   2.267  1.00  0.00     0.035 C 
HETATM   11  C   UNL     1      43.555 -18.887   2.850  1.00  0.00     0.002 C 
HETATM   12  C   UNL     1      44.419 -18.825   4.109  1.00  0.00     0.002 C 
HETATM   13  C   UNL     1      43.864 -17.858   5.155  1.00  0.00     0.027 C 
HETATM   14  H   UNL     1      43.286 -15.676   6.533  1.00  0.00     0.163 HD
ENDROOT
BRANCH   1  15
HETATM   15  C   UNL     1      40.509 -13.799   3.603  1.00  0.00     0.146 C 
BRANCH  15  16
HETATM   16  C   UNL     1      40.081 -14.158   2.208  1.00  0.00     0.224 C 
HETATM   17  N   UNL     1      40.157 -13.126   1.302  1.00  0.00    -0.327 N 
HETATM   18  H   UNL     1      40.367 -12.198   1.663  1.00  0.00     0.169 HD
HETATM   19  O   UNL     1      39.531 -15.250   2.058  1.00  0.00    -0.273 OA
BRANCH  17  20
HETATM   20  C   UNL     1      39.630 -13.141  -0.014  1.00  0.00     0.040 A 
HETATM   21  C   UNL     1      38.593 -12.319  -0.488  1.00  0.00    -0.035 A 
HETATM   22  C   UNL     1      37.754 -11.412   0.369  1.00  0.00     0.050 C 
HETATM   23  C   UNL     1      38.250 -12.382  -1.854  1.00  0.00     0.009 A 
HETATM   24  C   UNL     1      38.870 -13.284  -2.717  1.00  0.00     0.001 A 
HETATM   25  C   UNL     1      39.838 -14.149  -2.226  1.00  0.00     0.002 A 
HETATM   26  C   UNL     1      40.209 -14.084  -0.882  1.00  0.00     0.030 A 
ENDBRANCH  17  20
ENDBRANCH  15  16
ENDBRANCH   1  15
TORSDOF 3
ENDMDL
MODEL 10
REMARK VINA RESULT:      -7.4      3.730      5.357
REMARK  3 active torsions:
REMARK  status: ('A' for Active; 'I' for Inactive)
REMARK    1  A    between atoms: C_3  and  N_4 
REMARK       I    between atoms: N_4  and  C_5 
REMARK    2  A    between atoms: C_5  and  C_6 
REMARK    3  A    between atoms: C_6  and  C_7 
ROOT
HETATM    1  C   UNL     1      42.591 -13.047   4.226  1.00  0.00     0.286 C 
HETATM    2  N   UNL     1      41.291 -13.086   5.041  1.00  0.00    -0.056 N 
HETATM    3  H   UNL     1      40.546 -13.513   4.458  1.00  0.00     0.278 HD
HETATM    4  H   UNL     1      41.412 -13.697   5.858  1.00  0.00     0.278 HD
HETATM    5  C   UNL     1      40.767 -11.737   5.466  1.00  0.00     0.209 C 
HETATM    6  C   UNL     1      41.900 -10.936   6.136  1.00  0.00     0.115 C 
HETATM    7  N   UNL     1      43.035 -10.801   5.239  1.00  0.00    -0.353 N 
HETATM    8  C   UNL     1      43.429 -11.756   4.346  1.00  0.00     0.249 C 
HETATM    9  O   UNL     1      44.411 -11.557   3.637  1.00  0.00    -0.271 OA
HETATM   10  C   UNL     1      39.580 -11.917   6.404  1.00  0.00     0.035 C 
HETATM   11  C   UNL     1      39.052 -10.553   6.847  1.00  0.00     0.002 C 
HETATM   12  C   UNL     1      40.148  -9.687   7.468  1.00  0.00     0.002 C 
HETATM   13  C   UNL     1      41.377  -9.563   6.567  1.00  0.00     0.027 C 
HETATM   14  H   UNL     1      43.677 -10.017   5.344  1.00  0.00     0.163 HD
ENDROOT
BRANCH   1  15
HETATM   15  C   UNL     1      42.356 -13.384   2.748  1.00  0.00     0.146 C 
BRANCH  15  16
HETATM   16  C   UNL     1      42.960 -14.729   2.461  1.00  0.00     0.224 C 
HETATM   17  N   UNL     1      42.515 -15.744   3.276  1.00  0.00    -0.327 N 
HETATM   18  H   UNL     1      41.928 -15.488   4.068  1.00  0.00     0.169 HD
HETATM   19  O   UNL     1      43.913 -14.757   1.681  1.00  0.00    -0.273 OA
BRANCH  17  20
HETATM   20  C   UNL     1      43.065 -17.048   3.349  1.00  0.00     0.040 A 
HETATM   21  C   UNL     1      43.850 -17.546   4.403  1.00  0.00    -0.035 A 
HETATM   22  C   UNL     1      44.381 -16.722   5.544  1.00  0.00     0.050 C 
HETATM   23  C   UNL     1      44.240 -18.901   4.376  1.00  0.00     0.009 A 
HETATM   24  C   UNL     1      43.918 -19.727   3.301  1.00  0.00     0.001 A 
HETATM   25  C   UNL     1      43.210 -19.209   2.225  1.00  0.00     0.002 A 
HETATM   26  C   UNL     1      42.795 -17.877   2.245  1.00  0.00     0.030 A 
ENDBRANCH  17  20
ENDBRANCH  15  16
ENDBRANCH   1  15
TORSDOF 3
ENDMDL
