MODEL 1
REMARK VINA RESULT:      -9.2      0.000      0.000
REMARK  8 active torsions:
REMARK  status: ('A' for Active; 'I' for Inactive)
REMARK    1  A    between atoms: C_2  and  O_3 
REMARK    2  A    between atoms: O_3  and  C_4 
REMARK    3  A    between atoms: C_4  and  C_5 
REMARK    4  A    between atoms: C_6  and  O_7 
REMARK    5  A    between atoms: C_6  and  C_8 
REMARK    6  A    between atoms: C_16  and  C_17 
REMARK    7  A    between atoms: C_18  and  C_19 
REMARK    8  A    between atoms: N_26  and  C_27 
ROOT
HETATM    1  C   UNL     1      42.722 -13.099   4.838  1.00  0.00     0.177 C 
HETATM    2  C   UNL     1      42.616 -12.665   6.302  1.00  0.00     0.250 C 
HETATM    3  N   UNL     1      41.309 -12.123   6.630  1.00  0.00    -0.303 N 
HETATM    4  C   UNL     1      40.159 -12.407   5.979  1.00  0.00     0.319 C 
HETATM    5  O   UNL     1      39.083 -11.984   6.382  1.00  0.00    -0.247 OA
HETATM    6  N   UNL     1      40.260 -13.154   4.858  1.00  0.00    -0.333 N 
HETATM    7  C   UNL     1      41.457 -13.876   4.482  1.00  0.00     0.142 C 
HETATM    8  H   UNL     1      41.188 -11.536   7.448  1.00  0.00     0.167 HD
HETATM    9  H   UNL     1      39.370 -13.424   4.458  1.00  0.00     0.165 HD
ENDROOT
BRANCH   7  10
HETATM   10  C   UNL     1      41.349 -14.278   3.041  1.00  0.00     0.015 A 
HETATM   11  C   UNL     1      41.901 -15.421   2.384  1.00  0.00     0.097 A 
HETATM   12  N   UNL     1      41.553 -15.445   1.091  1.00  0.00    -0.167 NA
HETATM   13  N   UNL     1      40.795 -14.346   0.884  1.00  0.00    -0.244 N 
HETATM   14  C   UNL     1      40.642 -13.629   2.044  1.00  0.00     0.130 A 
BRANCH  11  15
HETATM   15  C   UNL     1      42.707 -16.510   2.937  1.00  0.00    -0.005 A 
HETATM   16  C   UNL     1      42.900 -17.678   2.183  1.00  0.00     0.014 A 
HETATM   17  C   UNL     1      43.658 -18.736   2.690  1.00  0.00     0.001 A 
HETATM   18  C   UNL     1      44.234 -18.637   3.954  1.00  0.00     0.000 A 
HETATM   19  C   UNL     1      44.063 -17.476   4.706  1.00  0.00     0.001 A 
HETATM   20  C   UNL     1      43.309 -16.414   4.198  1.00  0.00     0.014 A 
ENDBRANCH  11  15
BRANCH  13  21
HETATM   21  C   UNL     1      40.263 -14.057  -0.404  1.00  0.00     0.058 A 
HETATM   22  C   UNL     1      40.553 -12.822  -1.008  1.00  0.00     0.031 A 
HETATM   23  C   UNL     1      40.045 -12.518  -2.272  1.00  0.00     0.002 A 
HETATM   24  C   UNL     1      39.242 -13.439  -2.941  1.00  0.00     0.000 A 
HETATM   25  C   UNL     1      38.946 -14.665  -2.347  1.00  0.00     0.002 A 
HETATM   26  C   UNL     1      39.452 -14.977  -1.083  1.00  0.00     0.031 A 
ENDBRANCH  13  21
ENDBRANCH   7  10
BRANCH   1  27
HETATM   27  C   UNL     1      42.955 -11.917   3.926  1.00  0.00     0.270 C 
HETATM   28  O   UNL     1      43.906 -11.784   3.174  1.00  0.00    -0.265 OA
BRANCH  27  29
HETATM   29  O   UNL     1      41.926 -11.032   4.047  1.00  0.00    -0.321 OA
BRANCH  29  30
HETATM   30  C   UNL     1      41.645 -10.226   2.891  1.00  0.00     0.174 C 
HETATM   31  C   UNL     1      40.152 -10.008   2.734  1.00  0.00     0.034 C 
ENDBRANCH  29  30
ENDBRANCH  27  29
ENDBRANCH   1  27
BRANCH   2  32
HETATM   32  O   UNL     1      42.691 -13.872   7.092  1.00  0.00    -0.363 OA
HETATM   33  H   UNL     1      43.516 -13.802   7.605  1.00  0.00     0.213 HD
ENDBRANCH   2  32
BRANCH   2  34
HETATM   34  C   UNL     1      43.795 -11.719   6.714  1.00  0.00     0.439 C 
HETATM   35  F   UNL     1      44.956 -12.095   6.131  1.00  0.00    -0.166 F 
HETATM   36  F   UNL     1      43.578 -10.427   6.401  1.00  0.00    -0.166 F 
HETATM   37  F   UNL     1      43.977 -11.777   8.059  1.00  0.00    -0.166 F 
ENDBRANCH   2  34
TORSDOF 8
ENDMDL
MODEL 2
REMARK VINA RESULT:      -8.7      1.927      5.613
REMARK  8 active torsions:
REMARK  status: ('A' for Active; 'I' for Inactive)
REMARK    1  A    between atoms: C_2  and  O_3 
REMARK    2  A    between atoms: O_3  and  C_4 
REMARK    3  A    between atoms: C_4  and  C_5 
REMARK    4  A    between atoms: C_6  and  O_7 
REMARK    5  A    between atoms: C_6  and  C_8 
REMARK    6  A    between atoms: C_16  and  C_17 
REMARK    7  A    between atoms: C_18  and  C_19 
REMARK    8  A    between atoms: N_26  and  C_27 
ROOT
HETATM    1  C   UNL     1      41.470 -12.413   4.380  1.00  0.00     0.177 C 
HETATM    2  C   UNL     1      41.747 -10.961   4.774  1.00  0.00     0.250 C 
HETATM    3  N   UNL     1      43.150 -10.717   5.056  1.00  0.00    -0.303 N 
HETATM    4  C   UNL     1      44.183 -11.437   4.566  1.00  0.00     0.319 C 
HETATM    5  O   UNL     1      45.343 -11.104   4.774  1.00  0.00    -0.247 OA
HETATM    6  N   UNL     1      43.873 -12.547   3.860  1.00  0.00    -0.333 N 
HETATM    7  C   UNL     1      42.541 -12.845   3.381  1.00  0.00     0.142 C 
HETATM    8  H   UNL     1      43.431  -9.910   5.602  1.00  0.00     0.167 HD
HETATM    9  H   UNL     1      44.671 -13.001   3.431  1.00  0.00     0.165 HD
ENDROOT
BRANCH   7  10
HETATM   10  C   UNL     1      42.481 -14.289   2.978  1.00  0.00     0.015 A 
HETATM   11  C   UNL     1      41.813 -14.883   1.864  1.00  0.00     0.097 A 
HETATM   12  N   UNL     1      42.025 -16.205   1.826  1.00  0.00    -0.167 NA
HETATM   13  N   UNL     1      42.807 -16.491   2.890  1.00  0.00    -0.244 N 
HETATM   14  C   UNL     1      43.112 -15.354   3.596  1.00  0.00     0.130 A 
BRANCH  11  15
HETATM   15  C   UNL     1      41.019 -14.248   0.811  1.00  0.00    -0.005 A 
HETATM   16  C   UNL     1      41.197 -12.883   0.538  1.00  0.00     0.014 A 
HETATM   17  C   UNL     1      40.446 -12.251  -0.456  1.00  0.00     0.001 A 
HETATM   18  C   UNL     1      39.512 -12.978  -1.191  1.00  0.00     0.000 A 
HETATM   19  C   UNL     1      39.337 -14.337  -0.940  1.00  0.00     0.001 A 
HETATM   20  C   UNL     1      40.092 -14.973   0.051  1.00  0.00     0.014 A 
ENDBRANCH  11  15
BRANCH  13  21
HETATM   21  C   UNL     1      43.217 -17.828   3.158  1.00  0.00     0.058 A 
HETATM   22  C   UNL     1      43.046 -18.812   2.170  1.00  0.00     0.031 A 
HETATM   23  C   UNL     1      43.445 -20.128   2.409  1.00  0.00     0.002 A 
HETATM   24  C   UNL     1      44.012 -20.474   3.634  1.00  0.00     0.000 A 
HETATM   25  C   UNL     1      44.182 -19.504   4.621  1.00  0.00     0.002 A 
HETATM   26  C   UNL     1      43.786 -18.184   4.388  1.00  0.00     0.031 A 
ENDBRANCH  13  21
ENDBRANCH   7  10
BRANCH   1  27
HETATM   27  C   UNL     1      41.409 -13.314   5.592  1.00  0.00     0.270 C 
HETATM   28  O   UNL     1      42.283 -13.419   6.437  1.00  0.00    -0.265 OA
BRANCH  27  29
HETATM   29  O   UNL     1      40.217 -13.973   5.617  1.00  0.00    -0.321 OA
BRANCH  29  30
HETATM   30  C   UNL     1      40.168 -15.162   6.422  1.00  0.00     0.174 C 
HETATM   31  C   UNL     1      40.347 -16.402   5.566  1.00  0.00     0.034 C 
ENDBRANCH  29  30
ENDBRANCH  27  29
ENDBRANCH   1  27
BRANCH   2  32
HETATM   32  O   UNL     1      41.494 -10.163   3.596  1.00  0.00    -0.363 OA
HETATM   33  H   UNL     1      41.059 -10.760   2.960  1.00  0.00     0.213 HD
ENDBRANCH   2  32
BRANCH   2  34
HETATM   34  C   UNL     1      40.796 -10.479   5.922  1.00  0.00     0.439 C 
HETATM   35  F   UNL     1      40.475  -9.173   5.781  1.00  0.00    -0.166 F 
HETATM   36  F   UNL     1      39.646 -11.177   5.993  1.00  0.00    -0.166 F 
HETATM   37  F   UNL     1      41.421 -10.618   7.120  1.00  0.00    -0.166 F 
ENDBRANCH   2  34
TORSDOF 8
ENDMDL
MODEL 3
REMARK VINA RESULT:      -8.4      3.384      7.563
REMARK  8 active torsions:
REMARK  status: ('A' for Active; 'I' for Inactive)
REMARK    1  A    between atoms: C_2  and  O_3 
REMARK    2  A    between atoms: O_3  and  C_4 
REMARK    3  A    between atoms: C_4  and  C_5 
REMARK    4  A    between atoms: C_6  and  O_7 
REMARK    5  A    between atoms: C_6  and  C_8 
REMARK    6  A    between atoms: C_16  and  C_17 
REMARK    7  A    between atoms: C_18  and  C_19 
REMARK    8  A    between atoms: N_26  and  C_27 
ROOT
HETATM    1  C   UNL     1      41.206 -13.988   3.183  1.00  0.00     0.177 C 
HETATM    2  C   UNL     1      40.268 -15.180   2.977  1.00  0.00     0.250 C 
HETATM    3  N   UNL     1      40.089 -15.965   4.185  1.00  0.00    -0.303 N 
HETATM    4  C   UNL     1      40.243 -15.505   5.446  1.00  0.00     0.319 C 
HETATM    5  O   UNL     1      39.976 -16.207   6.413  1.00  0.00    -0.247 OA
HETATM    6  N   UNL     1      40.726 -14.250   5.584  1.00  0.00    -0.333 N 
HETATM    7  C   UNL     1      40.820 -13.304   4.493  1.00  0.00     0.142 C 
HETATM    8  H   UNL     1      39.753 -16.920   4.131  1.00  0.00     0.167 HD
HETATM    9  H   UNL     1      40.733 -13.912   6.539  1.00  0.00     0.165 HD
ENDROOT
BRANCH   7  10
HETATM   10  C   UNL     1      41.720 -12.177   4.904  1.00  0.00     0.015 A 
HETATM   11  C   UNL     1      41.960 -10.933   4.243  1.00  0.00     0.097 A 
HETATM   12  N   UNL     1      42.810 -10.173   4.946  1.00  0.00    -0.167 NA
HETATM   13  N   UNL     1      43.136 -10.888   6.044  1.00  0.00    -0.244 N 
HETATM   14  C   UNL     1      42.484 -12.096   6.055  1.00  0.00     0.130 A 
BRANCH  11  15
HETATM   15  C   UNL     1      41.388 -10.418   2.998  1.00  0.00    -0.005 A 
HETATM   16  C   UNL     1      41.985 -10.751   1.773  1.00  0.00     0.014 A 
HETATM   17  C   UNL     1      41.464 -10.266   0.571  1.00  0.00     0.001 A 
HETATM   18  C   UNL     1      40.340  -9.445   0.581  1.00  0.00     0.000 A 
HETATM   19  C   UNL     1      39.728  -9.119   1.790  1.00  0.00     0.001 A 
HETATM   20  C   UNL     1      40.245  -9.608   2.994  1.00  0.00     0.014 A 
ENDBRANCH  11  15
BRANCH  13  21
HETATM   21  C   UNL     1      44.043 -10.371   7.012  1.00  0.00     0.058 A 
HETATM   22  C   UNL     1      45.369 -10.832   7.029  1.00  0.00     0.031 A 
HETATM   23  C   UNL     1      46.276 -10.336   7.967  1.00  0.00     0.002 A 
HETATM   24  C   UNL     1      45.868  -9.381   8.895  1.00  0.00     0.000 A 
HETATM   25  C   UNL     1      44.552  -8.920   8.887  1.00  0.00     0.002 A 
HETATM   26  C   UNL     1      43.639  -9.411   7.950  1.00  0.00     0.031 A 
ENDBRANCH  13  21
ENDBRANCH   7  10
BRANCH   1  27
HETATM   27  C   UNL     1      42.656 -14.412   3.154  1.00  0.00     0.270 C 
HETATM   28  O   UNL     1      43.479 -14.051   2.328  1.00  0.00    -0.265 OA
BRANCH  27  29
HETATM   29  O   UNL     1      42.916 -15.238   4.206  1.00  0.00    -0.321 OA
BRANCH  29  30
HETATM   30  C   UNL     1      43.700 -16.406   3.914  1.00  0.00     0.174 C 
HETATM   31  C   UNL     1      43.383 -17.527   4.887  1.00  0.00     0.034 C 
ENDBRANCH  29  30
ENDBRANCH  27  29
ENDBRANCH   1  27
BRANCH   2  32
HETATM   32  O   UNL     1      38.955 -14.630   2.732  1.00  0.00    -0.363 OA
HETATM   33  H   UNL     1      38.687 -14.203   3.566  1.00  0.00     0.213 HD
ENDBRANCH   2  32
BRANCH   2  34
HETATM   34  C   UNL     1      40.691 -16.043   1.740  1.00  0.00     0.439 C 
HETATM   35  F   UNL     1      41.386 -15.310   0.841  1.00  0.00    -0.166 F 
HETATM   36  F   UNL     1      41.444 -17.112   2.065  1.00  0.00    -0.166 F 
HETATM   37  F   UNL     1      39.583 -16.514   1.111  1.00  0.00    -0.166 F 
ENDBRANCH   2  34
TORSDOF 8
ENDMDL
MODEL 4
REMARK VINA RESULT:      -8.4      3.692      6.840
REMARK  8 active torsions:
REMARK  status: ('A' for Active; 'I' for Inactive)
REMARK    1  A    between atoms: C_2  and  O_3 
REMARK    2  A    between atoms: O_3  and  C_4 
REMARK    3  A    between atoms: C_4  and  C_5 
REMARK    4  A    between atoms: C_6  and  O_7 
REMARK    5  A    between atoms: C_6  and  C_8 
REMARK    6  A    between atoms: C_16  and  C_17 
REMARK    7  A    between atoms: C_18  and  C_19 
REMARK    8  A    between atoms: N_26  and  C_27 
ROOT
HETATM    1  C   UNL     1      40.231 -11.826   2.108  1.00  0.00     0.177 C 
HETATM    2  C   UNL     1      39.605 -11.410   0.775  1.00  0.00     0.250 C 
HETATM    3  N   UNL     1      40.122 -10.145   0.286  1.00  0.00    -0.303 N 
HETATM    4  C   UNL     1      41.327  -9.618   0.599  1.00  0.00     0.319 C 
HETATM    5  O   UNL     1      41.728  -8.592   0.066  1.00  0.00    -0.247 OA
HETATM    6  N   UNL     1      42.049 -10.265   1.542  1.00  0.00    -0.333 N 
HETATM    7  C   UNL     1      41.738 -11.596   2.015  1.00  0.00     0.142 C 
HETATM    8  H   UNL     1      39.604  -9.611  -0.403  1.00  0.00     0.167 HD
HETATM    9  H   UNL     1      42.982  -9.894   1.674  1.00  0.00     0.165 HD
ENDROOT
BRANCH   7  10
HETATM   10  C   UNL     1      42.493 -11.847   3.287  1.00  0.00     0.015 A 
HETATM   11  C   UNL     1      42.976 -13.084   3.813  1.00  0.00     0.097 A 
HETATM   12  N   UNL     1      43.635 -12.891   4.964  1.00  0.00    -0.167 NA
HETATM   13  N   UNL     1      43.588 -11.563   5.206  1.00  0.00    -0.244 N 
HETATM   14  C   UNL     1      42.919 -10.904   4.205  1.00  0.00     0.130 A 
BRANCH  11  15
HETATM   15  C   UNL     1      42.879 -14.433   3.255  1.00  0.00    -0.005 A 
HETATM   16  C   UNL     1      42.264 -15.449   4.003  1.00  0.00     0.014 A 
HETATM   17  C   UNL     1      42.165 -16.747   3.496  1.00  0.00     0.001 A 
HETATM   18  C   UNL     1      42.676 -17.043   2.235  1.00  0.00     0.000 A 
HETATM   19  C   UNL     1      43.274 -16.040   1.475  1.00  0.00     0.001 A 
HETATM   20  C   UNL     1      43.369 -14.739   1.978  1.00  0.00     0.014 A 
ENDBRANCH  11  15
BRANCH  13  21
HETATM   21  C   UNL     1      44.191 -11.010   6.371  1.00  0.00     0.058 A 
HETATM   22  C   UNL     1      45.577 -11.144   6.559  1.00  0.00     0.031 A 
HETATM   23  C   UNL     1      46.190 -10.606   7.692  1.00  0.00     0.002 A 
HETATM   24  C   UNL     1      45.427  -9.935   8.646  1.00  0.00     0.000 A 
HETATM   25  C   UNL     1      44.051  -9.801   8.468  1.00  0.00     0.002 A 
HETATM   26  C   UNL     1      43.430 -10.335   7.336  1.00  0.00     0.031 A 
ENDBRANCH  13  21
ENDBRANCH   7  10
BRANCH   1  27
HETATM   27  C   UNL     1      39.601 -11.091   3.269  1.00  0.00     0.270 C 
HETATM   28  O   UNL     1      39.528  -9.879   3.379  1.00  0.00    -0.265 OA
BRANCH  27  29
HETATM   29  O   UNL     1      39.099 -11.988   4.164  1.00  0.00    -0.321 OA
BRANCH  29  30
HETATM   30  C   UNL     1      39.532 -11.833   5.525  1.00  0.00     0.174 C 
HETATM   31  C   UNL     1      40.105 -13.131   6.062  1.00  0.00     0.034 C 
ENDBRANCH  29  30
ENDBRANCH  27  29
ENDBRANCH   1  27
BRANCH   2  32
HETATM   32  O   UNL     1      40.063 -12.366  -0.207  1.00  0.00    -0.363 OA
HETATM   33  H   UNL     1      39.493 -12.239  -0.987  1.00  0.00     0.213 HD
ENDBRANCH   2  32
BRANCH   2  34
HETATM   34  C   UNL     1      38.040 -11.455   0.829  1.00  0.00     0.439 C 
HETATM   35  F   UNL     1      37.519 -11.904  -0.335  1.00  0.00    -0.166 F 
HETATM   36  F   UNL     1      37.561 -12.234   1.819  1.00  0.00    -0.166 F 
HETATM   37  F   UNL     1      37.554 -10.204   1.037  1.00  0.00    -0.166 F 
ENDBRANCH   2  34
TORSDOF 8
ENDMDL
MODEL 5
REMARK VINA RESULT:      -8.0      3.299      5.852
REMARK  8 active torsions:
REMARK  status: ('A' for Active; 'I' for Inactive)
REMARK    1  A    between atoms: C_2  and  O_3 
REMARK    2  A    between atoms: O_3  and  C_4 
REMARK    3  A    between atoms: C_4  and  C_5 
REMARK    4  A    between atoms: C_6  and  O_7 
REMARK    5  A    between atoms: C_6  and  C_8 
REMARK    6  A    between atoms: C_16  and  C_17 
REMARK    7  A    between atoms: C_18  and  C_19 
REMARK    8  A    between atoms: N_26  and  C_27 
ROOT
HETATM    1  C   UNL     1      40.789 -13.834   1.958  1.00  0.00     0.177 C 
HETATM    2  C   UNL     1      40.269 -14.684   3.119  1.00  0.00     0.250 C 
HETATM    3  N   UNL     1      39.889 -13.885   4.270  1.00  0.00    -0.303 N 
HETATM    4  C   UNL     1      39.513 -12.587   4.231  1.00  0.00     0.319 C 
HETATM    5  O   UNL     1      39.112 -12.013   5.236  1.00  0.00    -0.247 OA
HETATM    6  N   UNL     1      39.623 -11.955   3.041  1.00  0.00    -0.333 N 
HETATM    7  C   UNL     1      39.850 -12.642   1.788  1.00  0.00     0.142 C 
HETATM    8  H   UNL     1      39.817 -14.309   5.188  1.00  0.00     0.167 HD
HETATM    9  H   UNL     1      39.240 -11.017   3.034  1.00  0.00     0.165 HD
ENDROOT
BRANCH   7  10
HETATM   10  C   UNL     1      40.283 -11.641   0.758  1.00  0.00     0.015 A 
HETATM   11  C   UNL     1      40.104 -11.677  -0.659  1.00  0.00     0.097 A 
HETATM   12  N   UNL     1      40.605 -10.575  -1.234  1.00  0.00    -0.167 NA
HETATM   13  N   UNL     1      41.113  -9.825  -0.232  1.00  0.00    -0.244 N 
HETATM   14  C   UNL     1      40.921 -10.434   0.983  1.00  0.00     0.130 A 
BRANCH  11  15
HETATM   15  C   UNL     1      39.443 -12.687  -1.486  1.00  0.00    -0.005 A 
HETATM   16  C   UNL     1      38.137 -12.458  -1.946  1.00  0.00     0.014 A 
HETATM   17  C   UNL     1      37.480 -13.409  -2.730  1.00  0.00     0.001 A 
HETATM   18  C   UNL     1      38.123 -14.598  -3.066  1.00  0.00     0.000 A 
HETATM   19  C   UNL     1      39.426 -14.831  -2.630  1.00  0.00     0.001 A 
HETATM   20  C   UNL     1      40.087 -13.877  -1.849  1.00  0.00     0.014 A 
ENDBRANCH  11  15
BRANCH  13  21
HETATM   21  C   UNL     1      41.740  -8.575  -0.499  1.00  0.00     0.058 A 
HETATM   22  C   UNL     1      41.261  -7.416   0.134  1.00  0.00     0.031 A 
HETATM   23  C   UNL     1      41.863  -6.180  -0.110  1.00  0.00     0.002 A 
HETATM   24  C   UNL     1      42.942  -6.090  -0.987  1.00  0.00     0.000 A 
HETATM   25  C   UNL     1      43.421  -7.236  -1.621  1.00  0.00     0.002 A 
HETATM   26  C   UNL     1      42.825  -8.477  -1.381  1.00  0.00     0.031 A 
ENDBRANCH  13  21
ENDBRANCH   7  10
BRANCH   1  27
HETATM   27  C   UNL     1      42.225 -13.418   2.175  1.00  0.00     0.270 C 
HETATM   28  O   UNL     1      43.176 -13.791   1.508  1.00  0.00    -0.265 OA
BRANCH  27  29
HETATM   29  O   UNL     1      42.297 -12.537   3.213  1.00  0.00    -0.321 OA
BRANCH  29  30
HETATM   30  C   UNL     1      43.551 -11.854   3.377  1.00  0.00     0.174 C 
HETATM   31  C   UNL     1      43.832 -11.583   4.843  1.00  0.00     0.034 C 
ENDBRANCH  29  30
ENDBRANCH  27  29
ENDBRANCH   1  27
BRANCH   2  32
HETATM   32  O   UNL     1      39.020 -15.259   2.678  1.00  0.00    -0.363 OA
HETATM   33  H   UNL     1      39.117 -15.402   1.719  1.00  0.00     0.213 HD
ENDBRANCH   2  32
BRANCH   2  34
HETATM   34  C   UNL     1      41.259 -15.845   3.477  1.00  0.00     0.439 C 
HETATM   35  F   UNL     1      41.661 -16.509   2.370  1.00  0.00    -0.166 F 
HETATM   36  F   UNL     1      42.363 -15.425   4.126  1.00  0.00    -0.166 F 
HETATM   37  F   UNL     1      40.638 -16.741   4.288  1.00  0.00    -0.166 F 
ENDBRANCH   2  34
TORSDOF 8
ENDMDL
MODEL 6
REMARK VINA RESULT:      -7.9     16.109     19.697
REMARK  8 active torsions:
REMARK  status: ('A' for Active; 'I' for Inactive)
REMARK    1  A    between atoms: C_2  and  O_3 
REMARK    2  A    between atoms: O_3  and  C_4 
REMARK    3  A    between atoms: C_4  and  C_5 
REMARK    4  A    between atoms: C_6  and  O_7 
REMARK    5  A    between atoms: C_6  and  C_8 
REMARK    6  A    between atoms: C_16  and  C_17 
REMARK    7  A    between atoms: C_18  and  C_19 
REMARK    8  A    between atoms: N_26  and  C_27 
ROOT
HETATM    1  C   UNL     1      47.663 -29.556  -1.703  1.00  0.00     0.177 C 
HETATM    2  C   UNL     1      46.527 -28.539  -1.582  1.00  0.00     0.250 C 
HETATM    3  N   UNL     1      46.289 -28.128  -0.210  1.00  0.00    -0.303 N 
HETATM    4  C   UNL     1      47.201 -28.163   0.786  1.00  0.00     0.319 C 
HETATM    5  O   UNL     1      46.949 -27.705   1.893  1.00  0.00    -0.247 OA
HETATM    6  N   UNL     1      48.388 -28.747   0.507  1.00  0.00    -0.333 N 
HETATM    7  C   UNL     1      48.823 -29.075  -0.834  1.00  0.00     0.142 C 
HETATM    8  H   UNL     1      45.404 -27.708   0.054  1.00  0.00     0.167 HD
HETATM    9  H   UNL     1      49.074 -28.665   1.247  1.00  0.00     0.165 HD
ENDROOT
BRANCH   7  10
HETATM   10  C   UNL     1      49.983 -30.022  -0.750  1.00  0.00     0.015 A 
HETATM   11  C   UNL     1      50.475 -30.740   0.384  1.00  0.00     0.097 A 
HETATM   12  N   UNL     1      51.514 -31.515   0.046  1.00  0.00    -0.167 NA
HETATM   13  N   UNL     1      51.718 -31.318  -1.274  1.00  0.00    -0.244 N 
HETATM   14  C   UNL     1      50.801 -30.434  -1.786  1.00  0.00     0.130 A 
BRANCH  11  15
HETATM   15  C   UNL     1      49.978 -30.755   1.760  1.00  0.00    -0.005 A 
HETATM   16  C   UNL     1      48.913 -31.602   2.102  1.00  0.00     0.014 A 
HETATM   17  C   UNL     1      48.415 -31.630   3.407  1.00  0.00     0.001 A 
HETATM   18  C   UNL     1      48.979 -30.815   4.385  1.00  0.00     0.000 A 
HETATM   19  C   UNL     1      50.048 -29.981   4.062  1.00  0.00     0.001 A 
HETATM   20  C   UNL     1      50.551 -29.956   2.758  1.00  0.00     0.014 A 
ENDBRANCH  11  15
BRANCH  13  21
HETATM   21  C   UNL     1      52.769 -31.990  -1.960  1.00  0.00     0.058 A 
HETATM   22  C   UNL     1      53.795 -32.601  -1.221  1.00  0.00     0.031 A 
HETATM   23  C   UNL     1      54.833 -33.269  -1.872  1.00  0.00     0.002 A 
HETATM   24  C   UNL     1      54.858 -33.329  -3.264  1.00  0.00     0.000 A 
HETATM   25  C   UNL     1      53.845 -32.723  -4.006  1.00  0.00     0.002 A 
HETATM   26  C   UNL     1      52.802 -32.054  -3.360  1.00  0.00     0.031 A 
ENDBRANCH  13  21
ENDBRANCH   7  10
BRANCH   1  27
HETATM   27  C   UNL     1      47.203 -30.948  -1.339  1.00  0.00     0.270 C 
HETATM   28  O   UNL     1      46.619 -31.251  -0.311  1.00  0.00    -0.265 OA
BRANCH  27  29
HETATM   29  O   UNL     1      47.511 -31.814  -2.345  1.00  0.00    -0.321 OA
BRANCH  29  30
HETATM   30  C   UNL     1      47.546 -33.207  -1.993  1.00  0.00     0.174 C 
HETATM   31  C   UNL     1      48.945 -33.625  -1.579  1.00  0.00     0.034 C 
ENDBRANCH  29  30
ENDBRANCH  27  29
ENDBRANCH   1  27
BRANCH   2  32
HETATM   32  O   UNL     1      46.990 -27.330  -2.223  1.00  0.00    -0.363 OA
HETATM   33  H   UNL     1      46.741 -27.415  -3.162  1.00  0.00     0.213 HD
ENDBRANCH   2  32
BRANCH   2  34
HETATM   34  C   UNL     1      45.229 -29.030  -2.311  1.00  0.00     0.439 C 
HETATM   35  F   UNL     1      45.524 -29.852  -3.343  1.00  0.00    -0.166 F 
HETATM   36  F   UNL     1      44.374 -29.682  -1.499  1.00  0.00    -0.166 F 
HETATM   37  F   UNL     1      44.560 -27.962  -2.819  1.00  0.00    -0.166 F 
ENDBRANCH   2  34
TORSDOF 8
ENDMDL
MODEL 7
REMARK VINA RESULT:      -7.9      1.786      5.309
REMARK  8 active torsions:
REMARK  status: ('A' for Active; 'I' for Inactive)
REMARK    1  A    between atoms: C_2  and  O_3 
REMARK    2  A    between atoms: O_3  and  C_4 
REMARK    3  A    between atoms: C_4  and  C_5 
REMARK    4  A    between atoms: C_6  and  O_7 
REMARK    5  A    between atoms: C_6  and  C_8 
REMARK    6  A    between atoms: C_16  and  C_17 
REMARK    7  A    between atoms: C_18  and  C_19 
REMARK    8  A    between atoms: N_26  and  C_27 
ROOT
HETATM    1  C   UNL     1      40.714 -12.514   4.732  1.00  0.00     0.177 C 
HETATM    2  C   UNL     1      39.788 -11.366   5.139  1.00  0.00     0.250 C 
HETATM    3  N   UNL     1      39.043 -10.825   4.016  1.00  0.00    -0.303 N 
HETATM    4  C   UNL     1      38.743 -11.496   2.881  1.00  0.00     0.319 C 
HETATM    5  O   UNL     1      38.025 -10.999   2.023  1.00  0.00    -0.247 OA
HETATM    6  N   UNL     1      39.292 -12.722   2.733  1.00  0.00    -0.333 N 
HETATM    7  C   UNL     1      39.934 -13.446   3.808  1.00  0.00     0.142 C 
HETATM    8  H   UNL     1      38.633  -9.900   4.070  1.00  0.00     0.167 HD
HETATM    9  H   UNL     1      38.964 -13.226   1.918  1.00  0.00     0.165 HD
ENDROOT
BRANCH   7  10
HETATM   10  C   UNL     1      40.737 -14.571   3.223  1.00  0.00     0.015 A 
HETATM   11  C   UNL     1      41.040 -14.839   1.853  1.00  0.00     0.097 A 
HETATM   12  N   UNL     1      41.816 -15.925   1.737  1.00  0.00    -0.167 NA
HETATM   13  N   UNL     1      42.022 -16.376   2.994  1.00  0.00    -0.244 N 
HETATM   14  C   UNL     1      41.397 -15.572   3.914  1.00  0.00     0.130 A 
BRANCH  11  15
HETATM   15  C   UNL     1      40.662 -14.091   0.654  1.00  0.00    -0.005 A 
HETATM   16  C   UNL     1      41.251 -12.842   0.403  1.00  0.00     0.014 A 
HETATM   17  C   UNL     1      40.902 -12.103  -0.730  1.00  0.00     0.001 A 
HETATM   18  C   UNL     1      39.962 -12.606  -1.626  1.00  0.00     0.000 A 
HETATM   19  C   UNL     1      39.380 -13.852  -1.396  1.00  0.00     0.001 A 
HETATM   20  C   UNL     1      39.733 -14.595  -0.266  1.00  0.00     0.014 A 
ENDBRANCH  11  15
BRANCH  13  21
HETATM   21  C   UNL     1      42.808 -17.539   3.234  1.00  0.00     0.058 A 
HETATM   22  C   UNL     1      42.874 -18.540   2.251  1.00  0.00     0.031 A 
HETATM   23  C   UNL     1      43.641 -19.687   2.463  1.00  0.00     0.002 A 
HETATM   24  C   UNL     1      44.343 -19.846   3.656  1.00  0.00     0.000 A 
HETATM   25  C   UNL     1      44.280 -18.858   4.638  1.00  0.00     0.002 A 
HETATM   26  C   UNL     1      43.516 -17.707   4.432  1.00  0.00     0.031 A 
ENDBRANCH  13  21
ENDBRANCH   7  10
BRANCH   1  27
HETATM   27  C   UNL     1      41.988 -12.001   4.101  1.00  0.00     0.270 C 
HETATM   28  O   UNL     1      42.047 -11.264   3.131  1.00  0.00    -0.265 OA
BRANCH  27  29
HETATM   29  O   UNL     1      43.065 -12.464   4.796  1.00  0.00    -0.321 OA
BRANCH  29  30
HETATM   30  C   UNL     1      44.157 -11.543   4.957  1.00  0.00     0.174 C 
HETATM   31  C   UNL     1      44.715 -11.607   6.366  1.00  0.00     0.034 C 
ENDBRANCH  29  30
ENDBRANCH  27  29
ENDBRANCH   1  27
BRANCH   2  32
HETATM   32  O   UNL     1      38.764 -11.944   5.978  1.00  0.00    -0.363 OA
HETATM   33  H   UNL     1      38.345 -12.642   5.442  1.00  0.00     0.213 HD
ENDBRANCH   2  32
BRANCH   2  34
HETATM   34  C   UNL     1      40.549 -10.268   5.957  1.00  0.00     0.439 C 
HETATM   35  F   UNL     1      41.242  -9.439   5.144  1.00  0.00    -0.166 F 
HETATM   36  F   UNL     1      39.737  -9.509   6.719  1.00  0.00    -0.166 F 
HETATM   37  F   UNL     1      41.442 -10.859   6.793  1.00  0.00    -0.166 F 
ENDBRANCH   2  34
TORSDOF 8
ENDMDL
MODEL 8
REMARK VINA RESULT:      -7.8      3.106      5.443
REMARK  8 active torsions:
REMARK  status: ('A' for Active; 'I' for Inactive)
REMARK    1  A    between atoms: C_2  and  O_3 
REMARK    2  A    between atoms: O_3  and  C_4 
REMARK    3  A    between atoms: C_4  and  C_5 
REMARK    4  A    between atoms: C_6  and  O_7 
REMARK    5  A    between atoms: C_6  and  C_8 
REMARK    6  A    between atoms: C_16  and  C_17 
REMARK    7  A    between atoms: C_18  and  C_19 
REMARK    8  A    between atoms: N_26  and  C_27 
ROOT
HETATM    1  C   UNL     1      42.493 -14.575   5.107  1.00  0.00     0.177 C 
HETATM    2  C   UNL     1      42.969 -16.015   5.306  1.00  0.00     0.250 C 
HETATM    3  N   UNL     1      43.036 -16.759   4.061  1.00  0.00    -0.303 N 
HETATM    4  C   UNL     1      43.193 -16.215   2.833  1.00  0.00     0.319 C 
HETATM    5  O   UNL     1      43.339 -16.919   1.843  1.00  0.00    -0.247 OA
HETATM    6  N   UNL     1      43.155 -14.866   2.753  1.00  0.00    -0.333 N 
HETATM    7  C   UNL     1      43.234 -13.994   3.905  1.00  0.00     0.142 C 
HETATM    8  H   UNL     1      43.042 -17.773   4.068  1.00  0.00     0.167 HD
HETATM    9  H   UNL     1      43.373 -14.500   1.835  1.00  0.00     0.165 HD
ENDROOT
BRANCH   7  10
HETATM   10  C   UNL     1      42.797 -12.617   3.501  1.00  0.00     0.015 A 
HETATM   11  C   UNL     1      42.970 -11.381   4.197  1.00  0.00     0.097 A 
HETATM   12  N   UNL     1      42.467 -10.359   3.491  1.00  0.00    -0.167 NA
HETATM   13  N   UNL     1      41.965 -10.895   2.357  1.00  0.00    -0.244 N 
HETATM   14  C   UNL     1      42.162 -12.253   2.327  1.00  0.00     0.130 A 
BRANCH  11  15
HETATM   15  C   UNL     1      43.626 -11.120   5.479  1.00  0.00    -0.005 A 
HETATM   16  C   UNL     1      42.885 -10.567   6.535  1.00  0.00     0.014 A 
HETATM   17  C   UNL     1      43.489 -10.301   7.766  1.00  0.00     0.001 A 
HETATM   18  C   UNL     1      44.839 -10.587   7.956  1.00  0.00     0.000 A 
HETATM   19  C   UNL     1      45.581 -11.151   6.920  1.00  0.00     0.001 A 
HETATM   20  C   UNL     1      44.977 -11.424   5.689  1.00  0.00     0.014 A 
ENDBRANCH  11  15
BRANCH  13  21
HETATM   21  C   UNL     1      41.338 -10.077   1.376  1.00  0.00     0.058 A 
HETATM   22  C   UNL     1      41.378 -10.466   0.027  1.00  0.00     0.031 A 
HETATM   23  C   UNL     1      40.767  -9.681  -0.953  1.00  0.00     0.002 A 
HETATM   24  C   UNL     1      40.115  -8.503  -0.595  1.00  0.00     0.000 A 
HETATM   25  C   UNL     1      40.073  -8.108   0.741  1.00  0.00     0.002 A 
HETATM   26  C   UNL     1      40.681  -8.889   1.727  1.00  0.00     0.031 A 
ENDBRANCH  13  21
ENDBRANCH   7  10
BRANCH   1  27
HETATM   27  C   UNL     1      40.991 -14.504   4.954  1.00  0.00     0.270 C 
HETATM   28  O   UNL     1      40.340 -15.096   4.109  1.00  0.00    -0.265 OA
BRANCH  27  29
HETATM   29  O   UNL     1      40.467 -13.700   5.921  1.00  0.00    -0.321 OA
BRANCH  29  30
HETATM   30  C   UNL     1      39.596 -12.651   5.468  1.00  0.00     0.174 C 
HETATM   31  C   UNL     1      39.482 -11.555   6.512  1.00  0.00     0.034 C 
ENDBRANCH  29  30
ENDBRANCH  27  29
ENDBRANCH   1  27
BRANCH   2  32
HETATM   32  O   UNL     1      44.349 -15.935   5.728  1.00  0.00    -0.363 OA
HETATM   33  H   UNL     1      44.603 -15.000   5.627  1.00  0.00     0.213 HD
ENDBRANCH   2  32
BRANCH   2  34
HETATM   34  C   UNL     1      42.145 -16.751   6.417  1.00  0.00     0.439 C 
HETATM   35  F   UNL     1      41.993 -15.975   7.514  1.00  0.00    -0.166 F 
HETATM   36  F   UNL     1      40.918 -17.130   6.010  1.00  0.00    -0.166 F 
HETATM   37  F   UNL     1      42.801 -17.877   6.802  1.00  0.00    -0.166 F 
ENDBRANCH   2  34
TORSDOF 8
ENDMDL
MODEL 9
REMARK VINA RESULT:      -7.7      7.131      8.762
REMARK  8 active torsions:
REMARK  status: ('A' for Active; 'I' for Inactive)
REMARK    1  A    between atoms: C_2  and  O_3 
REMARK    2  A    between atoms: O_3  and  C_4 
REMARK    3  A    between atoms: C_4  and  C_5 
REMARK    4  A    between atoms: C_6  and  O_7 
REMARK    5  A    between atoms: C_6  and  C_8 
REMARK    6  A    between atoms: C_16  and  C_17 
REMARK    7  A    between atoms: C_18  and  C_19 
REMARK    8  A    between atoms: N_26  and  C_27 
ROOT
HETATM    1  C   UNL     1      41.767  -8.554  11.679  1.00  0.00     0.177 C 
HETATM    2  C   UNL     1      41.853  -9.141  13.090  1.00  0.00     0.250 C 
HETATM    3  N   UNL     1      40.656  -9.873  13.463  1.00  0.00    -0.303 N 
HETATM    4  C   UNL     1      39.790 -10.450  12.600  1.00  0.00     0.319 C 
HETATM    5  O   UNL     1      38.857 -11.134  13.001  1.00  0.00    -0.247 OA
HETATM    6  N   UNL     1      39.992 -10.215  11.284  1.00  0.00    -0.333 N 
HETATM    7  C   UNL     1      41.204  -9.630  10.753  1.00  0.00     0.142 C 
HETATM    8  H   UNL     1      40.448 -10.053  14.439  1.00  0.00     0.167 HD
HETATM    9  H   UNL     1      39.383 -10.743  10.672  1.00  0.00     0.165 HD
ENDROOT
BRANCH   7  10
HETATM   10  C   UNL     1      40.948  -9.178   9.346  1.00  0.00     0.015 A 
HETATM   11  C   UNL     1      41.864  -9.078   8.254  1.00  0.00     0.097 A 
HETATM   12  N   UNL     1      41.243  -8.662   7.142  1.00  0.00    -0.167 NA
HETATM   13  N   UNL     1      39.948  -8.482   7.480  1.00  0.00    -0.244 N 
HETATM   14  C   UNL     1      39.735  -8.799   8.798  1.00  0.00     0.130 A 
BRANCH  11  15
HETATM   15  C   UNL     1      43.292  -9.397   8.208  1.00  0.00    -0.005 A 
HETATM   16  C   UNL     1      43.705 -10.648   7.727  1.00  0.00     0.014 A 
HETATM   17  C   UNL     1      45.061 -10.982   7.680  1.00  0.00     0.001 A 
HETATM   18  C   UNL     1      46.018 -10.066   8.109  1.00  0.00     0.000 A 
HETATM   19  C   UNL     1      45.622  -8.813   8.575  1.00  0.00     0.001 A 
HETATM   20  C   UNL     1      44.265  -8.476   8.617  1.00  0.00     0.014 A 
ENDBRANCH  11  15
BRANCH  13  21
HETATM   21  C   UNL     1      38.998  -8.028   6.522  1.00  0.00     0.058 A 
HETATM   22  C   UNL     1      38.780  -8.782   5.357  1.00  0.00     0.031 A 
HETATM   23  C   UNL     1      37.852  -8.358   4.405  1.00  0.00     0.002 A 
HETATM   24  C   UNL     1      37.136  -7.178   4.606  1.00  0.00     0.000 A 
HETATM   25  C   UNL     1      37.349  -6.422   5.758  1.00  0.00     0.002 A 
HETATM   26  C   UNL     1      38.276  -6.842   6.715  1.00  0.00     0.031 A 
ENDBRANCH  13  21
ENDBRANCH   7  10
BRANCH   1  27
HETATM   27  C   UNL     1      40.952  -7.283  11.657  1.00  0.00     0.270 C 
HETATM   28  O   UNL     1      39.771  -7.197  11.950  1.00  0.00    -0.265 OA
BRANCH  27  29
HETATM   29  O   UNL     1      41.742  -6.236  11.286  1.00  0.00    -0.321 OA
BRANCH  29  30
HETATM   30  C   UNL     1      41.153  -5.290  10.378  1.00  0.00     0.174 C 
HETATM   31  C   UNL     1      41.685  -5.488   8.970  1.00  0.00     0.034 C 
ENDBRANCH  29  30
ENDBRANCH  27  29
ENDBRANCH   1  27
BRANCH   2  32
HETATM   32  O   UNL     1      42.874 -10.162  13.046  1.00  0.00    -0.363 OA
HETATM   33  H   UNL     1      43.062 -10.310  12.102  1.00  0.00     0.213 HD
ENDBRANCH   2  32
BRANCH   2  34
HETATM   34  C   UNL     1      42.266  -8.060  14.144  1.00  0.00     0.439 C 
HETATM   35  F   UNL     1      43.439  -7.471  13.814  1.00  0.00    -0.166 F 
HETATM   36  F   UNL     1      41.349  -7.085  14.299  1.00  0.00    -0.166 F 
HETATM   37  F   UNL     1      42.432  -8.646  15.359  1.00  0.00    -0.166 F 
ENDBRANCH   2  34
TORSDOF 8
ENDMDL
MODEL 10
REMARK VINA RESULT:      -7.7      3.201      6.209
REMARK  8 active torsions:
REMARK  status: ('A' for Active; 'I' for Inactive)
REMARK    1  A    between atoms: C_2  and  O_3 
REMARK    2  A    between atoms: O_3  and  C_4 
REMARK    3  A    between atoms: C_4  and  C_5 
REMARK    4  A    between atoms: C_6  and  O_7 
REMARK    5  A    between atoms: C_6  and  C_8 
REMARK    6  A    between atoms: C_16  and  C_17 
REMARK    7  A    between atoms: C_18  and  C_19 
REMARK    8  A    between atoms: N_26  and  C_27 
ROOT
HETATM    1  C   UNL     1      41.519  -9.992   5.443  1.00  0.00     0.177 C 
HETATM    2  C   UNL     1      40.411  -8.967   5.697  1.00  0.00     0.250 C 
HETATM    3  N   UNL     1      39.124  -9.587   5.953  1.00  0.00    -0.303 N 
HETATM    4  C   UNL     1      38.940 -10.836   6.438  1.00  0.00     0.319 C 
HETATM    5  O   UNL     1      37.822 -11.248   6.719  1.00  0.00    -0.247 OA
HETATM    6  N   UNL     1      40.042 -11.607   6.572  1.00  0.00    -0.333 N 
HETATM    7  C   UNL     1      41.392 -11.094   6.493  1.00  0.00     0.142 C 
HETATM    8  H   UNL     1      38.267  -9.057   5.842  1.00  0.00     0.167 HD
HETATM    9  H   UNL     1      39.872 -12.495   7.028  1.00  0.00     0.165 HD
ENDROOT
BRANCH   7  10
HETATM   10  C   UNL     1      42.339 -12.244   6.315  1.00  0.00     0.015 A 
HETATM   11  C   UNL     1      43.699 -12.360   6.737  1.00  0.00     0.097 A 
HETATM   12  N   UNL     1      44.199 -13.562   6.420  1.00  0.00    -0.167 NA
HETATM   13  N   UNL     1      43.205 -14.230   5.796  1.00  0.00    -0.244 N 
HETATM   14  C   UNL     1      42.065 -13.468   5.731  1.00  0.00     0.130 A 
BRANCH  11  15
HETATM   15  C   UNL     1      44.532 -11.400   7.463  1.00  0.00    -0.005 A 
HETATM   16  C   UNL     1      44.069 -10.859   8.672  1.00  0.00     0.014 A 
HETATM   17  C   UNL     1      44.840  -9.935   9.381  1.00  0.00     0.001 A 
HETATM   18  C   UNL     1      46.084  -9.544   8.891  1.00  0.00     0.000 A 
HETATM   19  C   UNL     1      46.562 -10.086   7.699  1.00  0.00     0.001 A 
HETATM   20  C   UNL     1      45.794 -11.016   6.991  1.00  0.00     0.014 A 
ENDBRANCH  11  15
BRANCH  13  21
HETATM   21  C   UNL     1      43.404 -15.554   5.312  1.00  0.00     0.058 A 
HETATM   22  C   UNL     1      43.127 -15.843   3.965  1.00  0.00     0.031 A 
HETATM   23  C   UNL     1      43.319 -17.132   3.466  1.00  0.00     0.002 A 
HETATM   24  C   UNL     1      43.785 -18.143   4.306  1.00  0.00     0.000 A 
HETATM   25  C   UNL     1      44.060 -17.865   5.644  1.00  0.00     0.002 A 
HETATM   26  C   UNL     1      43.871 -16.576   6.150  1.00  0.00     0.031 A 
ENDBRANCH  13  21
ENDBRANCH   7  10
BRANCH   1  27
HETATM   27  C   UNL     1      41.466 -10.525   4.031  1.00  0.00     0.270 C 
HETATM   28  O   UNL     1      42.378 -10.469   3.221  1.00  0.00    -0.265 OA
BRANCH  27  29
HETATM   29  O   UNL     1      40.255 -11.106   3.802  1.00  0.00    -0.321 OA
BRANCH  29  30
HETATM   30  C   UNL     1      40.209 -12.080   2.746  1.00  0.00     0.174 C 
HETATM   31  C   UNL     1      38.788 -12.272   2.249  1.00  0.00     0.034 C 
ENDBRANCH  29  30
ENDBRANCH  27  29
ENDBRANCH   1  27
BRANCH   2  32
HETATM   32  O   UNL     1      40.731  -8.321   6.949  1.00  0.00    -0.363 OA
HETATM   33  H   UNL     1      40.163  -8.744   7.618  1.00  0.00     0.213 HD
ENDBRANCH   2  32
BRANCH   2  34
HETATM   34  C   UNL     1      40.356  -7.880   4.570  1.00  0.00     0.439 C 
HETATM   35  F   UNL     1      41.594  -7.573   4.120  1.00  0.00    -0.166 F 
HETATM   36  F   UNL     1      39.615  -8.249   3.507  1.00  0.00    -0.166 F 
HETATM   37  F   UNL     1      39.806  -6.739   5.061  1.00  0.00    -0.166 F 
ENDBRANCH   2  34
TORSDOF 8
ENDMDL
