MODEL 1
REMARK VINA RESULT:     -10.4      0.000      0.000
REMARK  6 active torsions:
REMARK  status: ('A' for Active; 'I' for Inactive)
REMARK    1  A    between atoms: C_6  and  N_7 
REMARK       I    between atoms: N_7  and  C_8 
REMARK    2  A    between atoms: C_8  and  C_9 
REMARK    3  A    between atoms: C_11  and  N_12 
REMARK    4  A    between atoms: N_12  and  N_13 
REMARK       I    between atoms: N_13  and  C_14 
REMARK    5  A    between atoms: C_14  and  C_15 
REMARK    6  A    between atoms: C_16  and  C_17 
ROOT
HETATM    1  C   UNL     1      42.441 -13.270   5.525  1.00  0.00     0.151 A 
HETATM    2  N   UNL     1      43.306 -13.054   6.568  1.00  0.00    -0.210 NA
HETATM    3  C   UNL     1      43.564 -11.783   6.894  1.00  0.00     0.220 A 
HETATM    4  N   UNL     1      43.006 -10.729   6.271  1.00  0.00    -0.228 NA
HETATM    5  C   UNL     1      42.152 -10.990   5.258  1.00  0.00     0.146 A 
HETATM    6  C   UNL     1      41.823 -12.254   4.825  1.00  0.00     0.086 A 
HETATM    7 CL   UNL     1      40.722 -12.406   3.519  1.00  0.00    -0.080 Cl
ENDROOT
BRANCH   3   8
HETATM    8  N   UNL     1      44.483 -11.550   7.926  1.00  0.00    -0.169 NA
HETATM    9  H   UNL     1      45.119 -12.345   8.012  1.00  0.00     0.156 HD
BRANCH   8  10
HETATM   10  N   UNL     1      43.872 -11.183   9.139  1.00  0.00    -0.281 N 
HETATM   11  C   UNL     1      44.488 -10.225   9.909  1.00  0.00     0.255 C 
HETATM   12  O   UNL     1      45.506  -9.631   9.571  1.00  0.00    -0.267 OA
HETATM   13  H   UNL     1      43.087 -11.761   9.432  1.00  0.00     0.184 HD
BRANCH  11  14
HETATM   14  C   UNL     1      43.797  -9.995  11.203  1.00  0.00     0.076 C 
HETATM   15  C   UNL     1      43.642  -8.744  11.662  1.00  0.00     0.017 C 
BRANCH  15  16
HETATM   16  C   UNL     1      42.997  -8.369  12.932  1.00  0.00    -0.036 A 
HETATM   17  C   UNL     1      41.936  -9.162  13.399  1.00  0.00     0.013 A 
HETATM   18  C   UNL     1      41.293  -8.866  14.606  1.00  0.00     0.024 A 
HETATM   19  C   UNL     1      41.711  -7.775  15.361  1.00  0.00     0.034 A 
HETATM   20 CL   UNL     1      40.920  -7.406  16.843  1.00  0.00    -0.084 Cl
HETATM   21  C   UNL     1      42.768  -6.983  14.923  1.00  0.00     0.024 A 
HETATM   22  C   UNL     1      43.413  -7.283  13.717  1.00  0.00     0.013 A 
ENDBRANCH  15  16
ENDBRANCH  11  14
ENDBRANCH   8  10
ENDBRANCH   3   8
BRANCH   1  23
HETATM   23  C   UNL     1      42.240 -14.731   5.205  1.00  0.00     0.276 C 
HETATM   24  N   UNL     1      43.245 -15.251   4.404  1.00  0.00    -0.322 N 
HETATM   25  H   UNL     1      43.976 -14.589   4.158  1.00  0.00     0.169 HD
HETATM   26  O   UNL     1      41.273 -15.346   5.630  1.00  0.00    -0.266 OA
BRANCH  24  27
HETATM   27  C   UNL     1      43.368 -16.560   3.899  1.00  0.00     0.035 A 
HETATM   28  C   UNL     1      43.795 -17.653   4.656  1.00  0.00     0.037 A 
HETATM   29  C   UNL     1      43.888 -18.940   4.095  1.00  0.00    -0.054 A 
HETATM   30  C   UNL     1      43.577 -19.128   2.735  1.00  0.00    -0.056 A 
HETATM   31  C   UNL     1      44.362 -20.077   4.961  1.00  0.00     0.049 C 
HETATM   32  C   UNL     1      43.672 -20.479   2.082  1.00  0.00     0.049 C 
HETATM   33  C   UNL     1      43.138 -18.031   1.983  1.00  0.00     0.009 A 
HETATM   34  C   UNL     1      43.034 -16.762   2.559  1.00  0.00     0.030 A 
ENDBRANCH  24  27
ENDBRANCH   1  23
TORSDOF 6
ENDMDL
MODEL 2
REMARK VINA RESULT:      -9.6      1.244      2.022
REMARK  6 active torsions:
REMARK  status: ('A' for Active; 'I' for Inactive)
REMARK    1  A    between atoms: C_6  and  N_7 
REMARK       I    between atoms: N_7  and  C_8 
REMARK    2  A    between atoms: C_8  and  C_9 
REMARK    3  A    between atoms: C_11  and  N_12 
REMARK    4  A    between atoms: N_12  and  N_13 
REMARK       I    between atoms: N_13  and  C_14 
REMARK    5  A    between atoms: C_14  and  C_15 
REMARK    6  A    between atoms: C_16  and  C_17 
ROOT
HETATM    1  C   UNL     1      42.642 -13.331   4.310  1.00  0.00     0.151 A 
HETATM    2  N   UNL     1      43.451 -12.891   5.326  1.00  0.00    -0.210 NA
HETATM    3  C   UNL     1      43.782 -11.596   5.325  1.00  0.00     0.220 A 
HETATM    4  N   UNL     1      43.345 -10.718   4.403  1.00  0.00    -0.228 NA
HETATM    5  C   UNL     1      42.541 -11.194   3.428  1.00  0.00     0.146 A 
HETATM    6  C   UNL     1      42.147 -12.508   3.318  1.00  0.00     0.086 A 
HETATM    7 CL   UNL     1      41.124 -12.945   2.013  1.00  0.00    -0.080 Cl
ENDROOT
BRANCH   3   8
HETATM    8  N   UNL     1      44.647 -11.144   6.331  1.00  0.00    -0.169 NA
HETATM    9  H   UNL     1      45.290 -11.892   6.597  1.00  0.00     0.156 HD
BRANCH   8  10
HETATM   10  N   UNL     1      43.974 -10.565   7.421  1.00  0.00    -0.281 N 
HETATM   11  C   UNL     1      44.646  -9.628   8.171  1.00  0.00     0.255 C 
HETATM   12  O   UNL     1      45.773  -9.226   7.908  1.00  0.00    -0.267 OA
HETATM   13  H   UNL     1      43.082 -10.988   7.667  1.00  0.00     0.184 HD
BRANCH  11  14
HETATM   14  C   UNL     1      43.864  -9.162   9.345  1.00  0.00     0.076 C 
HETATM   15  C   UNL     1      44.110  -9.682  10.558  1.00  0.00     0.017 C 
BRANCH  15  16
HETATM   16  C   UNL     1      43.405  -9.331  11.802  1.00  0.00    -0.036 A 
HETATM   17  C   UNL     1      43.690  -8.094  12.402  1.00  0.00     0.013 A 
HETATM   18  C   UNL     1      43.042  -7.697  13.576  1.00  0.00     0.024 A 
HETATM   19  C   UNL     1      42.095  -8.533  14.158  1.00  0.00     0.034 A 
HETATM   20 CL   UNL     1      41.298  -8.050  15.604  1.00  0.00    -0.084 Cl
HETATM   21  C   UNL     1      41.787  -9.758  13.574  1.00  0.00     0.024 A 
HETATM   22  C   UNL     1      42.435 -10.152  12.397  1.00  0.00     0.013 A 
ENDBRANCH  15  16
ENDBRANCH  11  14
ENDBRANCH   8  10
ENDBRANCH   3   8
BRANCH   1  23
HETATM   23  C   UNL     1      42.353 -14.811   4.370  1.00  0.00     0.276 C 
HETATM   24  N   UNL     1      43.497 -15.589   4.282  1.00  0.00    -0.322 N 
HETATM   25  H   UNL     1      44.362 -15.061   4.203  1.00  0.00     0.169 HD
HETATM   26  O   UNL     1      41.210 -15.230   4.484  1.00  0.00    -0.266 OA
BRANCH  24  27
HETATM   27  C   UNL     1      43.600 -16.993   4.285  1.00  0.00     0.035 A 
HETATM   28  C   UNL     1      43.517 -17.786   3.140  1.00  0.00     0.037 A 
HETATM   29  C   UNL     1      43.637 -19.187   3.208  1.00  0.00    -0.054 A 
HETATM   30  C   UNL     1      43.814 -19.807   4.460  1.00  0.00    -0.056 A 
HETATM   31  C   UNL     1      43.530 -19.988   1.938  1.00  0.00     0.049 C 
HETATM   32  C   UNL     1      43.935 -21.300   4.591  1.00  0.00     0.049 C 
HETATM   33  C   UNL     1      43.909 -19.006   5.605  1.00  0.00     0.009 A 
HETATM   34  C   UNL     1      43.804 -17.615   5.518  1.00  0.00     0.030 A 
ENDBRANCH  24  27
ENDBRANCH   1  23
TORSDOF 6
ENDMDL
MODEL 3
REMARK VINA RESULT:      -9.6      2.718     11.447
REMARK  6 active torsions:
REMARK  status: ('A' for Active; 'I' for Inactive)
REMARK    1  A    between atoms: C_6  and  N_7 
REMARK       I    between atoms: N_7  and  C_8 
REMARK    2  A    between atoms: C_8  and  C_9 
REMARK    3  A    between atoms: C_11  and  N_12 
REMARK    4  A    between atoms: N_12  and  N_13 
REMARK       I    between atoms: N_13  and  C_14 
REMARK    5  A    between atoms: C_14  and  C_15 
REMARK    6  A    between atoms: C_16  and  C_17 
ROOT
HETATM    1  C   UNL     1      43.255  -9.874   8.142  1.00  0.00     0.151 A 
HETATM    2  N   UNL     1      42.226 -10.391   7.398  1.00  0.00    -0.210 NA
HETATM    3  C   UNL     1      42.553 -11.106   6.317  1.00  0.00     0.220 A 
HETATM    4  N   UNL     1      43.823 -11.356   5.948  1.00  0.00    -0.228 NA
HETATM    5  C   UNL     1      44.804 -10.836   6.718  1.00  0.00     0.146 A 
HETATM    6  C   UNL     1      44.588 -10.073   7.842  1.00  0.00     0.086 A 
HETATM    7 CL   UNL     1      45.951  -9.488   8.703  1.00  0.00    -0.080 Cl
ENDROOT
BRANCH   3   8
HETATM    8  N   UNL     1      41.510 -11.599   5.522  1.00  0.00    -0.169 NA
HETATM    9  H   UNL     1      40.615 -11.448   5.991  1.00  0.00     0.156 HD
BRANCH   8  10
HETATM   10  N   UNL     1      41.711 -12.928   5.106  1.00  0.00    -0.281 N 
HETATM   11  C   UNL     1      40.894 -13.900   5.633  1.00  0.00     0.255 C 
HETATM   12  O   UNL     1      39.964 -13.668   6.398  1.00  0.00    -0.267 OA
HETATM   13  H   UNL     1      42.546 -13.097   4.550  1.00  0.00     0.184 HD
BRANCH  11  14
HETATM   14  C   UNL     1      41.266 -15.267   5.189  1.00  0.00     0.076 C 
HETATM   15  C   UNL     1      42.312 -15.439   4.365  1.00  0.00     0.017 C 
BRANCH  15  16
HETATM   16  C   UNL     1      42.782 -16.728   3.831  1.00  0.00    -0.036 A 
HETATM   17  C   UNL     1      42.235 -17.187   2.623  1.00  0.00     0.013 A 
HETATM   18  C   UNL     1      42.652 -18.397   2.057  1.00  0.00     0.024 A 
HETATM   19  C   UNL     1      43.628 -19.156   2.694  1.00  0.00     0.034 A 
HETATM   20 CL   UNL     1      44.141 -20.646   2.003  1.00  0.00    -0.084 Cl
HETATM   21  C   UNL     1      44.193 -18.714   3.886  1.00  0.00     0.024 A 
HETATM   22  C   UNL     1      43.777 -17.502   4.449  1.00  0.00     0.013 A 
ENDBRANCH  15  16
ENDBRANCH  11  14
ENDBRANCH   8  10
ENDBRANCH   3   8
BRANCH   1  23
HETATM   23  C   UNL     1      42.792  -9.050   9.318  1.00  0.00     0.276 C 
HETATM   24  N   UNL     1      42.812  -9.756  10.512  1.00  0.00    -0.322 N 
HETATM   25  H   UNL     1      43.143 -10.713  10.432  1.00  0.00     0.169 HD
HETATM   26  O   UNL     1      42.445  -7.886   9.181  1.00  0.00    -0.266 OA
BRANCH  24  27
HETATM   27  C   UNL     1      42.431  -9.312  11.794  1.00  0.00     0.035 A 
HETATM   28  C   UNL     1      43.105  -8.322  12.510  1.00  0.00     0.037 A 
HETATM   29  C   UNL     1      42.668  -7.916  13.785  1.00  0.00    -0.054 A 
HETATM   30  C   UNL     1      41.548  -8.541  14.366  1.00  0.00    -0.056 A 
HETATM   31  C   UNL     1      43.442  -6.848  14.512  1.00  0.00     0.049 C 
HETATM   32  C   UNL     1      41.047  -8.154  15.730  1.00  0.00     0.049 C 
HETATM   33  C   UNL     1      40.868  -9.525  13.638  1.00  0.00     0.009 A 
HETATM   34  C   UNL     1      41.304  -9.905  12.366  1.00  0.00     0.030 A 
ENDBRANCH  24  27
ENDBRANCH   1  23
TORSDOF 6
ENDMDL
MODEL 4
REMARK VINA RESULT:      -9.4      2.742      3.921
REMARK  6 active torsions:
REMARK  status: ('A' for Active; 'I' for Inactive)
REMARK    1  A    between atoms: C_6  and  N_7 
REMARK       I    between atoms: N_7  and  C_8 
REMARK    2  A    between atoms: C_8  and  C_9 
REMARK    3  A    between atoms: C_11  and  N_12 
REMARK    4  A    between atoms: N_12  and  N_13 
REMARK       I    between atoms: N_13  and  C_14 
REMARK    5  A    between atoms: C_14  and  C_15 
REMARK    6  A    between atoms: C_16  and  C_17 
ROOT
HETATM    1  C   UNL     1      42.234 -13.748   1.908  1.00  0.00     0.151 A 
HETATM    2  N   UNL     1      42.802 -12.694   2.577  1.00  0.00    -0.210 NA
HETATM    3  C   UNL     1      42.196 -11.507   2.473  1.00  0.00     0.220 A 
HETATM    4  N   UNL     1      41.062 -11.310   1.776  1.00  0.00    -0.228 NA
HETATM    5  C   UNL     1      40.532 -12.379   1.142  1.00  0.00     0.146 A 
HETATM    6  C   UNL     1      41.075 -13.643   1.164  1.00  0.00     0.086 A 
HETATM    7 CL   UNL     1      40.273 -14.888   0.300  1.00  0.00    -0.080 Cl
ENDROOT
BRANCH   3   8
HETATM    8  N   UNL     1      42.794 -10.413   3.113  1.00  0.00    -0.169 NA
HETATM    9  H   UNL     1      43.799 -10.409   2.929  1.00  0.00     0.156 HD
BRANCH   8  10
HETATM   10  N   UNL     1      42.471 -10.326   4.479  1.00  0.00    -0.281 N 
HETATM   11  C   UNL     1      43.407 -10.752   5.392  1.00  0.00     0.255 C 
HETATM   12  O   UNL     1      44.527 -11.146   5.087  1.00  0.00    -0.267 OA
HETATM   13  H   UNL     1      41.505 -10.087   4.693  1.00  0.00     0.184 HD
BRANCH  11  14
HETATM   14  C   UNL     1      42.912 -10.697   6.792  1.00  0.00     0.076 C 
HETATM   15  C   UNL     1      43.630 -10.056   7.727  1.00  0.00     0.017 C 
BRANCH  15  16
HETATM   16  C   UNL     1      43.273  -9.938   9.152  1.00  0.00    -0.036 A 
HETATM   17  C   UNL     1      42.113  -9.223   9.489  1.00  0.00     0.013 A 
HETATM   18  C   UNL     1      41.712  -9.089  10.823  1.00  0.00     0.024 A 
HETATM   19  C   UNL     1      42.469  -9.674  11.833  1.00  0.00     0.034 A 
HETATM   20 CL   UNL     1      41.983  -9.507  13.474  1.00  0.00    -0.084 Cl
HETATM   21  C   UNL     1      43.616 -10.397  11.520  1.00  0.00     0.024 A 
HETATM   22  C   UNL     1      44.013 -10.534  10.184  1.00  0.00     0.013 A 
ENDBRANCH  15  16
ENDBRANCH  11  14
ENDBRANCH   8  10
ENDBRANCH   3   8
BRANCH   1  23
HETATM   23  C   UNL     1      43.005 -15.036   2.050  1.00  0.00     0.276 C 
HETATM   24  N   UNL     1      42.528 -15.842   3.072  1.00  0.00    -0.322 N 
HETATM   25  H   UNL     1      41.726 -15.464   3.569  1.00  0.00     0.169 HD
HETATM   26  O   UNL     1      43.948 -15.296   1.315  1.00  0.00    -0.266 OA
BRANCH  24  27
HETATM   27  C   UNL     1      43.014 -17.094   3.496  1.00  0.00     0.035 A 
HETATM   28  C   UNL     1      43.158 -18.201   2.658  1.00  0.00     0.037 A 
HETATM   29  C   UNL     1      43.660 -19.424   3.141  1.00  0.00    -0.054 A 
HETATM   30  C   UNL     1      43.994 -19.547   4.503  1.00  0.00    -0.056 A 
HETATM   31  C   UNL     1      43.784 -20.585   2.189  1.00  0.00     0.049 C 
HETATM   32  C   UNL     1      44.521 -20.835   5.073  1.00  0.00     0.049 C 
HETATM   33  C   UNL     1      43.859 -18.430   5.337  1.00  0.00     0.009 A 
HETATM   34  C   UNL     1      43.376 -17.217   4.839  1.00  0.00     0.030 A 
ENDBRANCH  24  27
ENDBRANCH   1  23
TORSDOF 6
ENDMDL
MODEL 5
REMARK VINA RESULT:      -9.2      2.822      3.946
REMARK  6 active torsions:
REMARK  status: ('A' for Active; 'I' for Inactive)
REMARK    1  A    between atoms: C_6  and  N_7 
REMARK       I    between atoms: N_7  and  C_8 
REMARK    2  A    between atoms: C_8  and  C_9 
REMARK    3  A    between atoms: C_11  and  N_12 
REMARK    4  A    between atoms: N_12  and  N_13 
REMARK       I    between atoms: N_13  and  C_14 
REMARK    5  A    between atoms: C_14  and  C_15 
REMARK    6  A    between atoms: C_16  and  C_17 
ROOT
HETATM    1  C   UNL     1      42.117 -13.548   5.367  1.00  0.00     0.151 A 
HETATM    2  N   UNL     1      42.612 -12.331   5.763  1.00  0.00    -0.210 NA
HETATM    3  C   UNL     1      43.435 -12.320   6.816  1.00  0.00     0.220 A 
HETATM    4  N   UNL     1      43.813 -13.431   7.475  1.00  0.00    -0.228 NA
HETATM    5  C   UNL     1      43.310 -14.608   7.043  1.00  0.00     0.146 A 
HETATM    6  C   UNL     1      42.443 -14.740   5.983  1.00  0.00     0.086 A 
HETATM    7 CL   UNL     1      41.897 -16.312   5.568  1.00  0.00    -0.080 Cl
ENDROOT
BRANCH   3   8
HETATM    8  N   UNL     1      43.909 -11.078   7.259  1.00  0.00    -0.169 NA
HETATM    9  H   UNL     1      44.930 -11.090   7.300  1.00  0.00     0.156 HD
BRANCH   8  10
HETATM   10  N   UNL     1      43.301 -10.647   8.452  1.00  0.00    -0.281 N 
HETATM   11  C   UNL     1      44.096 -10.501   9.565  1.00  0.00     0.255 C 
HETATM   12  O   UNL     1      45.311 -10.666   9.561  1.00  0.00    -0.267 OA
HETATM   13  H   UNL     1      42.285 -10.613   8.445  1.00  0.00     0.184 HD
BRANCH  11  14
HETATM   14  C   UNL     1      43.324 -10.134  10.779  1.00  0.00     0.076 C 
HETATM   15  C   UNL     1      43.703  -9.078  11.516  1.00  0.00     0.017 C 
BRANCH  15  16
HETATM   16  C   UNL     1      43.047  -8.610  12.748  1.00  0.00    -0.036 A 
HETATM   17  C   UNL     1      41.970  -9.356  13.253  1.00  0.00     0.013 A 
HETATM   18  C   UNL     1      41.316  -8.973  14.428  1.00  0.00     0.024 A 
HETATM   19  C   UNL     1      41.738  -7.838  15.114  1.00  0.00     0.034 A 
HETATM   20 CL   UNL     1      40.934  -7.360  16.558  1.00  0.00    -0.084 Cl
HETATM   21  C   UNL     1      42.812  -7.091  14.639  1.00  0.00     0.024 A 
HETATM   22  C   UNL     1      43.467  -7.479  13.465  1.00  0.00     0.013 A 
ENDBRANCH  15  16
ENDBRANCH  11  14
ENDBRANCH   8  10
ENDBRANCH   3   8
BRANCH   1  23
HETATM   23  C   UNL     1      41.167 -13.459   4.198  1.00  0.00     0.276 C 
HETATM   24  N   UNL     1      41.709 -13.956   3.023  1.00  0.00    -0.322 N 
HETATM   25  H   UNL     1      42.654 -14.318   3.113  1.00  0.00     0.169 HD
HETATM   26  O   UNL     1      40.046 -12.988   4.326  1.00  0.00    -0.266 OA
BRANCH  24  27
HETATM   27  C   UNL     1      41.119 -14.013   1.746  1.00  0.00     0.035 A 
HETATM   28  C   UNL     1      41.180 -12.981   0.809  1.00  0.00     0.037 A 
HETATM   29  C   UNL     1      40.577 -13.104  -0.457  1.00  0.00    -0.054 A 
HETATM   30  C   UNL     1      39.868 -14.277  -0.776  1.00  0.00    -0.056 A 
HETATM   31  C   UNL     1      40.671 -11.951  -1.422  1.00  0.00     0.049 C 
HETATM   32  C   UNL     1      39.193 -14.455  -2.108  1.00  0.00     0.049 C 
HETATM   33  C   UNL     1      39.819 -15.315   0.163  1.00  0.00     0.009 A 
HETATM   34  C   UNL     1      40.438 -15.185   1.409  1.00  0.00     0.030 A 
ENDBRANCH  24  27
ENDBRANCH   1  23
TORSDOF 6
ENDMDL
MODEL 6
REMARK VINA RESULT:      -9.1      3.504      5.004
REMARK  6 active torsions:
REMARK  status: ('A' for Active; 'I' for Inactive)
REMARK    1  A    between atoms: C_6  and  N_7 
REMARK       I    between atoms: N_7  and  C_8 
REMARK    2  A    between atoms: C_8  and  C_9 
REMARK    3  A    between atoms: C_11  and  N_12 
REMARK    4  A    between atoms: N_12  and  N_13 
REMARK       I    between atoms: N_13  and  C_14 
REMARK    5  A    between atoms: C_14  and  C_15 
REMARK    6  A    between atoms: C_16  and  C_17 
ROOT
HETATM    1  C   UNL     1      40.975 -13.653   1.119  1.00  0.00     0.151 A 
HETATM    2  N   UNL     1      41.570 -12.577   1.728  1.00  0.00    -0.210 NA
HETATM    3  C   UNL     1      41.529 -11.409   1.080  1.00  0.00     0.220 A 
HETATM    4  N   UNL     1      40.921 -11.240  -0.109  1.00  0.00    -0.228 NA
HETATM    5  C   UNL     1      40.339 -12.324  -0.666  1.00  0.00     0.146 A 
HETATM    6  C   UNL     1      40.331 -13.579  -0.100  1.00  0.00     0.086 A 
HETATM    7 CL   UNL     1      39.547 -14.848  -0.946  1.00  0.00    -0.080 Cl
ENDROOT
BRANCH   3   8
HETATM    8  N   UNL     1      42.175 -10.314   1.669  1.00  0.00    -0.169 NA
HETATM    9  H   UNL     1      43.005 -10.067   1.127  1.00  0.00     0.156 HD
BRANCH   8  10
HETATM   10  N   UNL     1      42.430 -10.495   3.041  1.00  0.00    -0.281 N 
HETATM   11  C   UNL     1      41.619  -9.842   3.940  1.00  0.00     0.255 C 
HETATM   12  O   UNL     1      40.652  -9.162   3.616  1.00  0.00    -0.267 OA
HETATM   13  H   UNL     1      43.292 -10.983   3.271  1.00  0.00     0.184 HD
BRANCH  11  14
HETATM   14  C   UNL     1      42.048 -10.038   5.348  1.00  0.00     0.076 C 
HETATM   15  C   UNL     1      41.740  -9.115   6.273  1.00  0.00     0.017 C 
BRANCH  15  16
HETATM   16  C   UNL     1      42.113  -9.167   7.697  1.00  0.00    -0.036 A 
HETATM   17  C   UNL     1      43.449  -9.447   8.024  1.00  0.00     0.013 A 
HETATM   18  C   UNL     1      43.869  -9.494   9.358  1.00  0.00     0.024 A 
HETATM   19  C   UNL     1      42.953  -9.257  10.378  1.00  0.00     0.034 A 
HETATM   20 CL   UNL     1      43.464  -9.319  12.020  1.00  0.00    -0.084 Cl
HETATM   21  C   UNL     1      41.626  -8.965  10.076  1.00  0.00     0.024 A 
HETATM   22  C   UNL     1      41.209  -8.914   8.740  1.00  0.00     0.013 A 
ENDBRANCH  15  16
ENDBRANCH  11  14
ENDBRANCH   8  10
ENDBRANCH   3   8
BRANCH   1  23
HETATM   23  C   UNL     1      41.103 -14.935   1.904  1.00  0.00     0.276 C 
HETATM   24  N   UNL     1      42.414 -15.378   2.003  1.00  0.00    -0.322 N 
HETATM   25  H   UNL     1      43.098 -14.778   1.551  1.00  0.00     0.169 HD
HETATM   26  O   UNL     1      40.123 -15.488   2.381  1.00  0.00    -0.266 OA
BRANCH  24  27
HETATM   27  C   UNL     1      42.896 -16.537   2.641  1.00  0.00     0.035 A 
HETATM   28  C   UNL     1      42.953 -17.794   2.039  1.00  0.00     0.037 A 
HETATM   29  C   UNL     1      43.456 -18.914   2.727  1.00  0.00    -0.054 A 
HETATM   30  C   UNL     1      43.883 -18.773   4.061  1.00  0.00    -0.056 A 
HETATM   31  C   UNL     1      43.483 -20.247   2.026  1.00  0.00     0.049 C 
HETATM   32  C   UNL     1      44.416 -19.939   4.847  1.00  0.00     0.049 C 
HETATM   33  C   UNL     1      43.835 -17.507   4.658  1.00  0.00     0.009 A 
HETATM   34  C   UNL     1      43.349 -16.401   3.955  1.00  0.00     0.030 A 
ENDBRANCH  24  27
ENDBRANCH   1  23
TORSDOF 6
ENDMDL
MODEL 7
REMARK VINA RESULT:      -8.9      7.186     11.539
REMARK  6 active torsions:
REMARK  status: ('A' for Active; 'I' for Inactive)
REMARK    1  A    between atoms: C_6  and  N_7 
REMARK       I    between atoms: N_7  and  C_8 
REMARK    2  A    between atoms: C_8  and  C_9 
REMARK    3  A    between atoms: C_11  and  N_12 
REMARK    4  A    between atoms: N_12  and  N_13 
REMARK       I    between atoms: N_13  and  C_14 
REMARK    5  A    between atoms: C_14  and  C_15 
REMARK    6  A    between atoms: C_16  and  C_17 
ROOT
HETATM    1  C   UNL     1      41.495 -13.522   2.253  1.00  0.00     0.151 A 
HETATM    2  N   UNL     1      41.331 -13.662   0.898  1.00  0.00    -0.210 NA
HETATM    3  C   UNL     1      41.198 -12.542   0.181  1.00  0.00     0.220 A 
HETATM    4  N   UNL     1      41.243 -11.308   0.715  1.00  0.00    -0.228 NA
HETATM    5  C   UNL     1      41.417 -11.218   2.051  1.00  0.00     0.146 A 
HETATM    6  C   UNL     1      41.549 -12.299   2.892  1.00  0.00     0.086 A 
HETATM    7 CL   UNL     1      41.761 -12.006   4.568  1.00  0.00    -0.080 Cl
ENDROOT
BRANCH   3   8
HETATM    8  N   UNL     1      40.982 -12.674  -1.198  1.00  0.00    -0.169 NA
HETATM    9  H   UNL     1      41.645 -12.090  -1.711  1.00  0.00     0.156 HD
BRANCH   8  10
HETATM   10  N   UNL     1      39.642 -12.467  -1.571  1.00  0.00    -0.281 N 
HETATM   11  C   UNL     1      38.859 -13.573  -1.803  1.00  0.00     0.255 C 
HETATM   12  O   UNL     1      39.244 -14.726  -1.647  1.00  0.00    -0.267 OA
HETATM   13  H   UNL     1      39.384 -11.507  -1.783  1.00  0.00     0.184 HD
BRANCH  11  14
HETATM   14  C   UNL     1      37.496 -13.223  -2.280  1.00  0.00     0.076 C 
HETATM   15  C   UNL     1      37.197 -11.946  -2.564  1.00  0.00     0.017 C 
BRANCH  15  16
HETATM   16  C   UNL     1      35.888 -11.452  -3.026  1.00  0.00    -0.036 A 
HETATM   17  C   UNL     1      35.508 -10.148  -2.673  1.00  0.00     0.013 A 
HETATM   18  C   UNL     1      34.284  -9.616  -3.094  1.00  0.00     0.024 A 
HETATM   19  C   UNL     1      33.431 -10.386  -3.879  1.00  0.00     0.034 A 
HETATM   20 CL   UNL     1      31.924  -9.737  -4.396  1.00  0.00    -0.084 Cl
HETATM   21  C   UNL     1      33.794 -11.677  -4.251  1.00  0.00     0.024 A 
HETATM   22  C   UNL     1      35.021 -12.205  -3.831  1.00  0.00     0.013 A 
ENDBRANCH  15  16
ENDBRANCH  11  14
ENDBRANCH   8  10
ENDBRANCH   3   8
BRANCH   1  23
HETATM   23  C   UNL     1      41.598 -14.837   2.985  1.00  0.00     0.276 C 
HETATM   24  N   UNL     1      42.772 -15.520   2.708  1.00  0.00    -0.322 N 
HETATM   25  H   UNL     1      43.399 -15.040   2.068  1.00  0.00     0.169 HD
HETATM   26  O   UNL     1      40.709 -15.217   3.734  1.00  0.00    -0.266 OA
BRANCH  24  27
HETATM   27  C   UNL     1      43.188 -16.774   3.195  1.00  0.00     0.035 A 
HETATM   28  C   UNL     1      43.227 -17.938   2.425  1.00  0.00     0.037 A 
HETATM   29  C   UNL     1      43.663 -19.161   2.969  1.00  0.00    -0.054 A 
HETATM   30  C   UNL     1      44.037 -19.222   4.324  1.00  0.00    -0.056 A 
HETATM   31  C   UNL     1      43.674 -20.383   2.090  1.00  0.00     0.049 C 
HETATM   32  C   UNL     1      44.497 -20.506   4.959  1.00  0.00     0.049 C 
HETATM   33  C   UNL     1      44.008 -18.050   5.090  1.00  0.00     0.009 A 
HETATM   34  C   UNL     1      43.589 -16.839   4.531  1.00  0.00     0.030 A 
ENDBRANCH  24  27
ENDBRANCH   1  23
TORSDOF 6
ENDMDL
MODEL 8
REMARK VINA RESULT:      -8.5      4.821     11.116
REMARK  6 active torsions:
REMARK  status: ('A' for Active; 'I' for Inactive)
REMARK    1  A    between atoms: C_6  and  N_7 
REMARK       I    between atoms: N_7  and  C_8 
REMARK    2  A    between atoms: C_8  and  C_9 
REMARK    3  A    between atoms: C_11  and  N_12 
REMARK    4  A    between atoms: N_12  and  N_13 
REMARK       I    between atoms: N_13  and  C_14 
REMARK    5  A    between atoms: C_14  and  C_15 
REMARK    6  A    between atoms: C_16  and  C_17 
ROOT
HETATM    1  C   UNL     1      42.101 -15.161   4.800  1.00  0.00     0.151 A 
HETATM    2  N   UNL     1      40.950 -14.729   4.192  1.00  0.00    -0.210 NA
HETATM    3  C   UNL     1      40.509 -15.435   3.147  1.00  0.00     0.220 A 
HETATM    4  N   UNL     1      41.119 -16.544   2.689  1.00  0.00    -0.228 NA
HETATM    5  C   UNL     1      42.243 -16.939   3.326  1.00  0.00     0.146 A 
HETATM    6  C   UNL     1      42.799 -16.283   4.401  1.00  0.00     0.086 A 
HETATM    7 CL   UNL     1      44.234 -16.920   5.089  1.00  0.00    -0.080 Cl
ENDROOT
BRANCH   3   8
HETATM    8  N   UNL     1      39.361 -14.976   2.488  1.00  0.00    -0.169 NA
HETATM    9  H   UNL     1      38.999 -15.705   1.871  1.00  0.00     0.156 HD
BRANCH   8  10
HETATM   10  N   UNL     1      39.547 -13.737   1.848  1.00  0.00    -0.281 N 
HETATM   11  C   UNL     1      39.976 -13.744   0.542  1.00  0.00     0.255 C 
HETATM   12  O   UNL     1      40.147 -14.766  -0.114  1.00  0.00    -0.267 OA
HETATM   13  H   UNL     1      39.490 -12.916   2.446  1.00  0.00     0.184 HD
BRANCH  11  14
HETATM   14  C   UNL     1      40.224 -12.379   0.011  1.00  0.00     0.076 C 
HETATM   15  C   UNL     1      40.725 -12.226  -1.226  1.00  0.00     0.017 C 
BRANCH  15  16
HETATM   16  C   UNL     1      41.037 -10.941  -1.873  1.00  0.00    -0.036 A 
HETATM   17  C   UNL     1      40.618 -10.744  -3.198  1.00  0.00     0.013 A 
HETATM   18  C   UNL     1      40.871  -9.539  -3.862  1.00  0.00     0.024 A 
HETATM   19  C   UNL     1      41.542  -8.515  -3.201  1.00  0.00     0.034 A 
HETATM   20 CL   UNL     1      41.858  -7.033  -4.015  1.00  0.00    -0.084 Cl
HETATM   21  C   UNL     1      41.955  -8.684  -1.883  1.00  0.00     0.024 A 
HETATM   22  C   UNL     1      41.698  -9.889  -1.219  1.00  0.00     0.013 A 
ENDBRANCH  15  16
ENDBRANCH  11  14
ENDBRANCH   8  10
ENDBRANCH   3   8
BRANCH   1  23
HETATM   23  C   UNL     1      42.544 -14.282   5.944  1.00  0.00     0.276 C 
HETATM   24  N   UNL     1      43.081 -13.076   5.521  1.00  0.00    -0.322 N 
HETATM   25  H   UNL     1      43.090 -12.947   4.513  1.00  0.00     0.169 HD
HETATM   26  O   UNL     1      42.421 -14.642   7.105  1.00  0.00    -0.266 OA
BRANCH  24  27
HETATM   27  C   UNL     1      43.607 -12.032   6.306  1.00  0.00     0.035 A 
HETATM   28  C   UNL     1      42.861 -10.946   6.765  1.00  0.00     0.037 A 
HETATM   29  C   UNL     1      43.444  -9.938   7.557  1.00  0.00    -0.054 A 
HETATM   30  C   UNL     1      44.815 -10.007   7.866  1.00  0.00    -0.056 A 
HETATM   31  C   UNL     1      42.587  -8.788   8.015  1.00  0.00     0.049 C 
HETATM   32  C   UNL     1      45.491  -8.951   8.696  1.00  0.00     0.049 C 
HETATM   33  C   UNL     1      45.558 -11.104   7.413  1.00  0.00     0.009 A 
HETATM   34  C   UNL     1      44.961 -12.106   6.643  1.00  0.00     0.030 A 
ENDBRANCH  24  27
ENDBRANCH   1  23
TORSDOF 6
ENDMDL
MODEL 9
REMARK VINA RESULT:      -8.3      3.574      4.844
REMARK  6 active torsions:
REMARK  status: ('A' for Active; 'I' for Inactive)
REMARK    1  A    between atoms: C_6  and  N_7 
REMARK       I    between atoms: N_7  and  C_8 
REMARK    2  A    between atoms: C_8  and  C_9 
REMARK    3  A    between atoms: C_11  and  N_12 
REMARK    4  A    between atoms: N_12  and  N_13 
REMARK       I    between atoms: N_13  and  C_14 
REMARK    5  A    between atoms: C_14  and  C_15 
REMARK    6  A    between atoms: C_16  and  C_17 
ROOT
HETATM    1  C   UNL     1      39.776 -13.427   1.775  1.00  0.00     0.151 A 
HETATM    2  N   UNL     1      39.339 -12.581   2.762  1.00  0.00    -0.210 NA
HETATM    3  C   UNL     1      38.982 -11.347   2.394  1.00  0.00     0.220 A 
HETATM    4  N   UNL     1      39.008 -10.915   1.120  1.00  0.00    -0.228 NA
HETATM    5  C   UNL     1      39.434 -11.786   0.180  1.00  0.00     0.146 A 
HETATM    6  C   UNL     1      39.842 -13.074   0.442  1.00  0.00     0.086 A 
HETATM    7 CL   UNL     1      40.357 -14.048  -0.871  1.00  0.00    -0.080 Cl
ENDROOT
BRANCH   3   8
HETATM    8  N   UNL     1      38.579 -10.458   3.400  1.00  0.00    -0.169 NA
HETATM    9  H   UNL     1      38.314  -9.562   2.987  1.00  0.00     0.156 HD
BRANCH   8  10
HETATM   10  N   UNL     1      39.516 -10.341   4.444  1.00  0.00    -0.281 N 
HETATM   11  C   UNL     1      39.039 -10.213   5.727  1.00  0.00     0.255 C 
HETATM   12  O   UNL     1      37.849 -10.255   6.019  1.00  0.00    -0.267 OA
HETATM   13  H   UNL     1      40.484 -10.215   4.159  1.00  0.00     0.184 HD
BRANCH  11  14
HETATM   14  C   UNL     1      40.120 -10.005   6.724  1.00  0.00     0.076 C 
HETATM   15  C   UNL     1      39.834  -9.444   7.909  1.00  0.00     0.017 C 
BRANCH  15  16
HETATM   16  C   UNL     1      40.803  -9.161   8.982  1.00  0.00    -0.036 A 
HETATM   17  C   UNL     1      40.310  -8.758  10.233  1.00  0.00     0.013 A 
HETATM   18  C   UNL     1      41.179  -8.490  11.297  1.00  0.00     0.024 A 
HETATM   19  C   UNL     1      42.552  -8.629  11.118  1.00  0.00     0.034 A 
HETATM   20 CL   UNL     1      43.624  -8.297  12.421  1.00  0.00    -0.084 Cl
HETATM   21  C   UNL     1      43.061  -9.040   9.889  1.00  0.00     0.024 A 
HETATM   22  C   UNL     1      42.189  -9.311   8.828  1.00  0.00     0.013 A 
ENDBRANCH  15  16
ENDBRANCH  11  14
ENDBRANCH   8  10
ENDBRANCH   3   8
BRANCH   1  23
HETATM   23  C   UNL     1      40.194 -14.783   2.288  1.00  0.00     0.276 C 
HETATM   24  N   UNL     1      41.552 -14.863   2.558  1.00  0.00    -0.322 N 
HETATM   25  H   UNL     1      42.068 -14.005   2.389  1.00  0.00     0.169 HD
HETATM   26  O   UNL     1      39.381 -15.686   2.431  1.00  0.00    -0.266 OA
BRANCH  24  27
HETATM   27  C   UNL     1      42.284 -15.971   3.027  1.00  0.00     0.035 A 
HETATM   28  C   UNL     1      42.416 -17.173   2.330  1.00  0.00     0.037 A 
HETATM   29  C   UNL     1      43.172 -18.241   2.849  1.00  0.00    -0.054 A 
HETATM   30  C   UNL     1      43.780 -18.111   4.111  1.00  0.00    -0.056 A 
HETATM   31  C   UNL     1      43.270 -19.515   2.052  1.00  0.00     0.049 C 
HETATM   32  C   UNL     1      44.586 -19.226   4.718  1.00  0.00     0.049 C 
HETATM   33  C   UNL     1      43.654 -16.899   4.802  1.00  0.00     0.009 A 
HETATM   34  C   UNL     1      42.916 -15.841   4.266  1.00  0.00     0.030 A 
ENDBRANCH  24  27
ENDBRANCH   1  23
TORSDOF 6
ENDMDL
MODEL 10
REMARK VINA RESULT:      -8.3      1.954      2.855
REMARK  6 active torsions:
REMARK  status: ('A' for Active; 'I' for Inactive)
REMARK    1  A    between atoms: C_6  and  N_7 
REMARK       I    between atoms: N_7  and  C_8 
REMARK    2  A    between atoms: C_8  and  C_9 
REMARK    3  A    between atoms: C_11  and  N_12 
REMARK    4  A    between atoms: N_12  and  N_13 
REMARK       I    between atoms: N_13  and  C_14 
REMARK    5  A    between atoms: C_14  and  C_15 
REMARK    6  A    between atoms: C_16  and  C_17 
ROOT
HETATM    1  C   UNL     1      40.776 -10.763   5.996  1.00  0.00     0.151 A 
HETATM    2  N   UNL     1      41.894 -10.542   6.760  1.00  0.00    -0.210 NA
HETATM    3  C   UNL     1      42.128  -9.285   7.150  1.00  0.00     0.220 A 
HETATM    4  N   UNL     1      41.317  -8.252   6.853  1.00  0.00    -0.228 NA
HETATM    5  C   UNL     1      40.222  -8.519   6.109  1.00  0.00     0.146 A 
HETATM    6  C   UNL     1      39.888  -9.768   5.638  1.00  0.00     0.086 A 
HETATM    7 CL   UNL     1      38.461  -9.930   4.702  1.00  0.00    -0.080 Cl
ENDROOT
BRANCH   3   8
HETATM    8  N   UNL     1      43.292  -9.039   7.890  1.00  0.00    -0.169 NA
HETATM    9  H   UNL     1      44.007  -9.728   7.652  1.00  0.00     0.156 HD
BRANCH   8  10
HETATM   10  N   UNL     1      43.056  -8.926   9.272  1.00  0.00    -0.281 N 
HETATM   11  C   UNL     1      44.098  -9.196  10.128  1.00  0.00     0.255 C 
HETATM   12  O   UNL     1      45.233  -9.469   9.756  1.00  0.00    -0.267 OA
HETATM   13  H   UNL     1      42.086  -8.792   9.547  1.00  0.00     0.184 HD
BRANCH  11  14
HETATM   14  C   UNL     1      43.698  -9.133  11.558  1.00  0.00     0.076 C 
HETATM   15  C   UNL     1      43.000  -8.080  12.009  1.00  0.00     0.017 C 
BRANCH  15  16
HETATM   16  C   UNL     1      42.554  -7.876  13.398  1.00  0.00    -0.036 A 
HETATM   17  C   UNL     1      41.529  -8.698  13.894  1.00  0.00     0.013 A 
HETATM   18  C   UNL     1      41.072  -8.564  15.210  1.00  0.00     0.024 A 
HETATM   19  C   UNL     1      41.643  -7.608  16.044  1.00  0.00     0.034 A 
HETATM   20 CL   UNL     1      41.082  -7.437  17.661  1.00  0.00    -0.084 Cl
HETATM   21  C   UNL     1      42.669  -6.792  15.577  1.00  0.00     0.024 A 
HETATM   22  C   UNL     1      43.127  -6.930  14.261  1.00  0.00     0.013 A 
ENDBRANCH  15  16
ENDBRANCH  11  14
ENDBRANCH   8  10
ENDBRANCH   3   8
BRANCH   1  23
HETATM   23  C   UNL     1      40.614 -12.201   5.571  1.00  0.00     0.276 C 
HETATM   24  N   UNL     1      41.575 -12.606   4.657  1.00  0.00    -0.322 N 
HETATM   25  H   UNL     1      42.255 -11.890   4.414  1.00  0.00     0.169 HD
HETATM   26  O   UNL     1      39.711 -12.896   6.014  1.00  0.00    -0.266 OA
BRANCH  24  27
HETATM   27  C   UNL     1      41.716 -13.862   4.038  1.00  0.00     0.035 A 
HETATM   28  C   UNL     1      40.851 -14.353   3.059  1.00  0.00     0.037 A 
HETATM   29  C   UNL     1      41.052 -15.616   2.470  1.00  0.00    -0.054 A 
HETATM   30  C   UNL     1      42.128 -16.416   2.897  1.00  0.00    -0.056 A 
HETATM   31  C   UNL     1      40.078 -16.093   1.425  1.00  0.00     0.049 C 
HETATM   32  C   UNL     1      42.380 -17.778   2.311  1.00  0.00     0.049 C 
HETATM   33  C   UNL     1      43.001 -15.915   3.871  1.00  0.00     0.009 A 
HETATM   34  C   UNL     1      42.798 -14.652   4.434  1.00  0.00     0.030 A 
ENDBRANCH  24  27
ENDBRANCH   1  23
TORSDOF 6
ENDMDL
