MODEL 1
REMARK VINA RESULT:      -8.4      0.000      0.000
REMARK  10 active torsions:
REMARK  status: ('A' for Active; 'I' for Inactive)
REMARK    1  A    between atoms: C_2  and  C_3 
REMARK    2  A    between atoms: C_3  and  C_4 
REMARK    3  A    between atoms: N_7  and  C_9 
REMARK    4  A    between atoms: C_9  and  C_10 
REMARK    5  A    between atoms: C_11  and  O_12 
REMARK    6  A    between atoms: C_13  and  O_14 
REMARK    7  A    between atoms: O_14  and  C_15 
REMARK    8  A    between atoms: N_25  and  C_26 
REMARK    9  A    between atoms: C_26  and  C_27 
REMARK   10  A    between atoms: C_27  and  C_28 
ROOT
HETATM    1  C   UNL     1      40.429 -13.933   5.522  1.00  0.00     0.026 C 
HETATM    2  C   UNL     1      39.869 -12.576   5.988  1.00  0.00     0.035 C 
HETATM    3  C   UNL     1      40.896 -11.451   6.035  1.00  0.00     0.235 C 
HETATM    4  N   UNL     1      42.138 -11.842   6.798  1.00  0.00    -0.067 N 
HETATM    5  H   UNL     1      41.895 -11.931   7.792  1.00  0.00     0.280 HD
HETATM    6  C   UNL     1      42.718 -13.171   6.382  1.00  0.00     0.235 C 
HETATM    7  C   UNL     1      41.653 -14.252   6.400  1.00  0.00     0.035 C 
ENDROOT
BRANCH   1   8
HETATM    8  C   UNL     1      40.651 -14.063   3.978  1.00  0.00     0.119 C 
HETATM    9  N   UNL     1      41.953 -13.593   3.537  1.00  0.00    -0.324 N 
HETATM   10  C   UNL     1      42.617 -14.545   2.790  1.00  0.00     0.326 C 
HETATM   11  H   UNL     1      42.148 -12.639   3.256  1.00  0.00     0.165 HD
HETATM   12  O   UNL     1      43.612 -14.289   2.135  1.00  0.00    -0.247 OA
HETATM   13  N   UNL     1      41.975 -15.732   2.917  1.00  0.00    -0.268 N 
HETATM   14  C   UNL     1      40.780 -15.551   3.559  1.00  0.00     0.256 C 
HETATM   15  O   UNL     1      39.939 -16.410   3.782  1.00  0.00    -0.270 OA
BRANCH   8  16
HETATM   16  C   UNL     1      39.581 -13.378   3.097  1.00  0.00     0.037 C 
HETATM   17  C   UNL     1      39.985 -12.053   2.468  1.00  0.00     0.008 C 
ENDBRANCH   8  16
BRANCH  13  18
HETATM   18  C   UNL     1      42.368 -16.959   2.239  1.00  0.00     0.142 C 
BRANCH  18  19
HETATM   19  C   UNL     1      43.809 -17.382   2.550  1.00  0.00     0.068 C 
BRANCH  19  20
HETATM   20  C   UNL     1      43.854 -18.599   3.419  1.00  0.00     0.010 A 
HETATM   21  S   UNL     1      44.047 -18.452   5.120  1.00  0.00    -0.085 SA
HETATM   22  C   UNL     1      43.999 -20.157   5.258  1.00  0.00     0.166 A 
HETATM   23  N   UNL     1      43.849 -20.820   4.135  1.00  0.00    -0.258 NA
HETATM   24  C   UNL     1      43.768 -19.939   3.071  1.00  0.00     0.044 A 
HETATM   25  C   UNL     1      43.601 -20.503   1.705  1.00  0.00     0.071 C 
ENDBRANCH  19  20
ENDBRANCH  18  19
ENDBRANCH  13  18
ENDBRANCH   1   8
BRANCH   4  26
HETATM   26  C   UNL     1      43.158 -10.700   6.712  1.00  0.00     0.276 C 
BRANCH  26  27
HETATM   27  C   UNL     1      43.787 -10.270   8.007  1.00  0.00     0.004 A 
HETATM   28  C   UNL     1      42.987  -9.821   9.065  1.00  0.00     0.107 A 
HETATM   29  C   UNL     1      43.547  -9.394  10.267  1.00  0.00     0.102 A 
HETATM   30  C   UNL     1      44.927  -9.377  10.424  1.00  0.00     0.039 A 
HETATM   31  C   UNL     1      45.743  -9.823   9.382  1.00  0.00     0.003 A 
HETATM   32  C   UNL     1      45.180 -10.267   8.179  1.00  0.00     0.012 A 
BRANCH  28  33
HETATM   33  O   UNL     1      41.631  -9.762   8.889  1.00  0.00    -0.357 OA
HETATM   34  H   UNL     1      41.378  -8.817   8.959  1.00  0.00     0.218 HD
ENDBRANCH  28  33
BRANCH  29  35
HETATM   35  O   UNL     1      42.744  -8.893  11.253  1.00  0.00    -0.349 OA
BRANCH  35  36
HETATM   36  C   UNL     1      42.555  -9.849  12.308  1.00  0.00     0.171 C 
HETATM   37  C   UNL     1      42.352  -9.090  13.605  1.00  0.00     0.034 C 
ENDBRANCH  35  36
ENDBRANCH  29  35
ENDBRANCH  26  27
ENDBRANCH   4  26
TORSDOF 10
ENDMDL
MODEL 2
REMARK VINA RESULT:      -8.1      4.029      9.634
REMARK  10 active torsions:
REMARK  status: ('A' for Active; 'I' for Inactive)
REMARK    1  A    between atoms: C_2  and  C_3 
REMARK    2  A    between atoms: C_3  and  C_4 
REMARK    3  A    between atoms: N_7  and  C_9 
REMARK    4  A    between atoms: C_9  and  C_10 
REMARK    5  A    between atoms: C_11  and  O_12 
REMARK    6  A    between atoms: C_13  and  O_14 
REMARK    7  A    between atoms: O_14  and  C_15 
REMARK    8  A    between atoms: N_25  and  C_26 
REMARK    9  A    between atoms: C_26  and  C_27 
REMARK   10  A    between atoms: C_27  and  C_28 
ROOT
HETATM    1  C   UNL     1      40.417 -14.218   3.371  1.00  0.00     0.026 C 
HETATM    2  C   UNL     1      39.910 -15.475   2.640  1.00  0.00     0.035 C 
HETATM    3  C   UNL     1      40.141 -15.466   1.134  1.00  0.00     0.235 C 
HETATM    4  N   UNL     1      39.644 -14.196   0.486  1.00  0.00    -0.067 N 
HETATM    5  H   UNL     1      38.618 -14.188   0.530  1.00  0.00     0.280 HD
HETATM    6  C   UNL     1      40.108 -12.937   1.175  1.00  0.00     0.235 C 
HETATM    7  C   UNL     1      39.808 -12.995   2.662  1.00  0.00     0.035 C 
ENDROOT
BRANCH   1   8
HETATM    8  C   UNL     1      41.964 -14.165   3.603  1.00  0.00     0.119 C 
HETATM    9  N   UNL     1      42.589 -12.964   3.077  1.00  0.00    -0.324 N 
HETATM   10  C   UNL     1      43.345 -12.317   4.034  1.00  0.00     0.326 C 
HETATM   11  H   UNL     1      42.955 -12.878   2.136  1.00  0.00     0.165 HD
HETATM   12  O   UNL     1      44.130 -11.427   3.759  1.00  0.00    -0.247 OA
HETATM   13  N   UNL     1      43.063 -12.844   5.250  1.00  0.00    -0.268 N 
HETATM   14  C   UNL     1      42.295 -13.968   5.106  1.00  0.00     0.256 C 
HETATM   15  O   UNL     1      41.916 -14.707   6.002  1.00  0.00    -0.270 OA
BRANCH   8  16
HETATM   16  C   UNL     1      42.755 -15.380   3.064  1.00  0.00     0.037 C 
HETATM   17  C   UNL     1      43.515 -15.157   1.765  1.00  0.00     0.008 C 
ENDBRANCH   8  16
BRANCH  13  18
HETATM   18  C   UNL     1      43.698 -12.435   6.495  1.00  0.00     0.142 C 
BRANCH  18  19
HETATM   19  C   UNL     1      43.147 -11.114   7.045  1.00  0.00     0.068 C 
BRANCH  19  20
HETATM   20  C   UNL     1      44.245 -10.203   7.499  1.00  0.00     0.010 A 
HETATM   21  S   UNL     1      45.887 -10.695   7.399  1.00  0.00    -0.085 SA
HETATM   22  C   UNL     1      46.363  -9.194   8.069  1.00  0.00     0.166 A 
HETATM   23  N   UNL     1      45.390  -8.360   8.357  1.00  0.00    -0.258 NA
HETATM   24  C   UNL     1      44.169  -8.928   8.039  1.00  0.00     0.044 A 
HETATM   25  C   UNL     1      42.938  -8.133   8.299  1.00  0.00     0.071 C 
ENDBRANCH  19  20
ENDBRANCH  18  19
ENDBRANCH  13  18
ENDBRANCH   1   8
BRANCH   4  26
HETATM   26  C   UNL     1      40.004 -14.221  -1.004  1.00  0.00     0.276 C 
BRANCH  26  27
HETATM   27  C   UNL     1      39.749 -12.955  -1.772  1.00  0.00     0.004 A 
HETATM   28  C   UNL     1      38.437 -12.533  -2.020  1.00  0.00     0.107 A 
HETATM   29  C   UNL     1      38.174 -11.375  -2.751  1.00  0.00     0.102 A 
HETATM   30  C   UNL     1      39.223 -10.631  -3.276  1.00  0.00     0.039 A 
HETATM   31  C   UNL     1      40.538 -11.034  -3.037  1.00  0.00     0.003 A 
HETATM   32  C   UNL     1      40.804 -12.188  -2.290  1.00  0.00     0.012 A 
BRANCH  28  33
HETATM   33  O   UNL     1      37.399 -13.303  -1.571  1.00  0.00    -0.357 OA
HETATM   34  H   UNL     1      37.757 -14.205  -1.430  1.00  0.00     0.218 HD
ENDBRANCH  28  33
BRANCH  29  35
HETATM   35  O   UNL     1      36.883 -11.030  -3.038  1.00  0.00    -0.349 OA
BRANCH  35  36
HETATM   36  C   UNL     1      36.587  -9.698  -2.591  1.00  0.00     0.171 C 
HETATM   37  C   UNL     1      36.265  -9.753  -1.111  1.00  0.00     0.034 C 
ENDBRANCH  35  36
ENDBRANCH  29  35
ENDBRANCH  26  27
ENDBRANCH   4  26
TORSDOF 10
ENDMDL
MODEL 3
REMARK VINA RESULT:      -8.0      3.041      9.264
REMARK  10 active torsions:
REMARK  status: ('A' for Active; 'I' for Inactive)
REMARK    1  A    between atoms: C_2  and  C_3 
REMARK    2  A    between atoms: C_3  and  C_4 
REMARK    3  A    between atoms: N_7  and  C_9 
REMARK    4  A    between atoms: C_9  and  C_10 
REMARK    5  A    between atoms: C_11  and  O_12 
REMARK    6  A    between atoms: C_13  and  O_14 
REMARK    7  A    between atoms: O_14  and  C_15 
REMARK    8  A    between atoms: N_25  and  C_26 
REMARK    9  A    between atoms: C_26  and  C_27 
REMARK   10  A    between atoms: C_27  and  C_28 
ROOT
HETATM    1  C   UNL     1      42.951 -10.857   4.671  1.00  0.00     0.026 C 
HETATM    2  C   UNL     1      41.412 -10.884   4.626  1.00  0.00     0.035 C 
HETATM    3  C   UNL     1      40.808 -12.272   4.452  1.00  0.00     0.235 C 
HETATM    4  N   UNL     1      41.420 -13.021   3.293  1.00  0.00    -0.067 N 
HETATM    5  H   UNL     1      41.127 -12.566   2.421  1.00  0.00     0.280 HD
HETATM    6  C   UNL     1      42.929 -13.014   3.289  1.00  0.00     0.235 C 
HETATM    7  C   UNL     1      43.461 -11.599   3.421  1.00  0.00     0.035 C 
ENDROOT
BRANCH   1   8
HETATM    8  C   UNL     1      43.583 -11.308   6.030  1.00  0.00     0.119 C 
HETATM    9  N   UNL     1      45.025 -11.469   5.974  1.00  0.00    -0.324 N 
HETATM   10  C   UNL     1      45.661 -10.750   6.966  1.00  0.00     0.326 C 
HETATM   11  H   UNL     1      45.493 -12.334   5.729  1.00  0.00     0.165 HD
HETATM   12  O   UNL     1      46.835 -10.915   7.247  1.00  0.00    -0.247 OA
HETATM   13  N   UNL     1      44.773  -9.894   7.528  1.00  0.00    -0.268 N 
HETATM   14  C   UNL     1      43.510 -10.170   7.082  1.00  0.00     0.256 C 
HETATM   15  O   UNL     1      42.478  -9.620   7.436  1.00  0.00    -0.270 OA
BRANCH   8  16
HETATM   16  C   UNL     1      42.989 -12.601   6.637  1.00  0.00     0.037 C 
HETATM   17  C   UNL     1      43.953 -13.769   6.789  1.00  0.00     0.008 C 
ENDBRANCH   8  16
BRANCH  13  18
HETATM   18  C   UNL     1      45.078  -8.999   8.636  1.00  0.00     0.142 C 
BRANCH  18  19
HETATM   19  C   UNL     1      44.983  -9.683  10.005  1.00  0.00     0.068 C 
BRANCH  19  20
HETATM   20  C   UNL     1      43.776  -9.233  10.767  1.00  0.00     0.010 A 
HETATM   21  S   UNL     1      43.061  -7.704  10.448  1.00  0.00    -0.085 SA
HETATM   22  C   UNL     1      41.889  -8.016  11.656  1.00  0.00     0.166 A 
HETATM   23  N   UNL     1      41.994  -9.172  12.272  1.00  0.00    -0.258 NA
HETATM   24  C   UNL     1      43.075  -9.878  11.774  1.00  0.00     0.044 A 
HETATM   25  C   UNL     1      43.362 -11.218  12.353  1.00  0.00     0.071 C 
ENDBRANCH  19  20
ENDBRANCH  18  19
ENDBRANCH  13  18
ENDBRANCH   1   8
BRANCH   4  26
HETATM   26  C   UNL     1      40.836 -14.439   3.249  1.00  0.00     0.276 C 
BRANCH  26  27
HETATM   27  C   UNL     1      41.682 -15.526   3.848  1.00  0.00     0.004 A 
HETATM   28  C   UNL     1      42.501 -16.314   3.028  1.00  0.00     0.107 A 
HETATM   29  C   UNL     1      43.276 -17.345   3.556  1.00  0.00     0.102 A 
HETATM   30  C   UNL     1      43.224 -17.630   4.914  1.00  0.00     0.039 A 
HETATM   31  C   UNL     1      42.416 -16.854   5.748  1.00  0.00     0.003 A 
HETATM   32  C   UNL     1      41.648 -15.808   5.221  1.00  0.00     0.012 A 
BRANCH  28  33
HETATM   33  O   UNL     1      42.498 -16.088   1.679  1.00  0.00    -0.357 OA
HETATM   34  H   UNL     1      41.874 -16.735   1.286  1.00  0.00     0.218 HD
ENDBRANCH  28  33
BRANCH  29  35
HETATM   35  O   UNL     1      44.008 -18.142   2.721  1.00  0.00    -0.349 OA
BRANCH  35  36
HETATM   36  C   UNL     1      43.945 -19.518   3.124  1.00  0.00     0.171 C 
HETATM   37  C   UNL     1      43.312 -20.314   2.000  1.00  0.00     0.034 C 
ENDBRANCH  35  36
ENDBRANCH  29  35
ENDBRANCH  26  27
ENDBRANCH   4  26
TORSDOF 10
ENDMDL
MODEL 4
REMARK VINA RESULT:      -8.0      3.905      8.102
REMARK  10 active torsions:
REMARK  status: ('A' for Active; 'I' for Inactive)
REMARK    1  A    between atoms: C_2  and  C_3 
REMARK    2  A    between atoms: C_3  and  C_4 
REMARK    3  A    between atoms: N_7  and  C_9 
REMARK    4  A    between atoms: C_9  and  C_10 
REMARK    5  A    between atoms: C_11  and  O_12 
REMARK    6  A    between atoms: C_13  and  O_14 
REMARK    7  A    between atoms: O_14  and  C_15 
REMARK    8  A    between atoms: N_25  and  C_26 
REMARK    9  A    between atoms: C_26  and  C_27 
REMARK   10  A    between atoms: C_27  and  C_28 
ROOT
HETATM    1  C   UNL     1      42.621 -12.890   3.322  1.00  0.00     0.026 C 
HETATM    2  C   UNL     1      41.843 -11.776   2.598  1.00  0.00     0.035 C 
HETATM    3  C   UNL     1      40.804 -12.275   1.602  1.00  0.00     0.235 C 
HETATM    4  N   UNL     1      41.375 -13.285   0.636  1.00  0.00    -0.067 N 
HETATM    5  H   UNL     1      42.033 -12.803   0.012  1.00  0.00     0.280 HD
HETATM    6  C   UNL     1      42.155 -14.393   1.300  1.00  0.00     0.235 C 
HETATM    7  C   UNL     1      43.200 -13.824   2.244  1.00  0.00     0.035 C 
ENDROOT
BRANCH   1   8
HETATM    8  C   UNL     1      41.841 -13.597   4.481  1.00  0.00     0.119 C 
HETATM    9  N   UNL     1      40.843 -14.544   4.016  1.00  0.00    -0.324 N 
HETATM   10  C   UNL     1      41.003 -15.786   4.597  1.00  0.00     0.326 C 
HETATM   11  H   UNL     1      39.878 -14.303   3.819  1.00  0.00     0.165 HD
HETATM   12  O   UNL     1      40.154 -16.657   4.529  1.00  0.00    -0.247 OA
HETATM   13  N   UNL     1      42.205 -15.830   5.221  1.00  0.00    -0.268 N 
HETATM   14  C   UNL     1      42.762 -14.580   5.252  1.00  0.00     0.256 C 
HETATM   15  O   UNL     1      43.814 -14.267   5.789  1.00  0.00    -0.270 OA
BRANCH   8  16
HETATM   16  C   UNL     1      41.154 -12.647   5.490  1.00  0.00     0.037 C 
HETATM   17  C   UNL     1      39.633 -12.690   5.515  1.00  0.00     0.008 C 
ENDBRANCH   8  16
BRANCH  13  18
HETATM   18  C   UNL     1      42.703 -16.971   5.976  1.00  0.00     0.142 C 
BRANCH  18  19
HETATM   19  C   UNL     1      44.068 -17.468   5.484  1.00  0.00     0.068 C 
BRANCH  19  20
HETATM   20  C   UNL     1      43.934 -18.670   4.602  1.00  0.00     0.010 A 
HETATM   21  S   UNL     1      44.166 -20.250   5.237  1.00  0.00    -0.085 SA
HETATM   22  C   UNL     1      43.858 -20.903   3.685  1.00  0.00     0.166 A 
HETATM   23  N   UNL     1      43.596 -20.032   2.737  1.00  0.00    -0.258 NA
HETATM   24  C   UNL     1      43.640 -18.747   3.249  1.00  0.00     0.044 A 
HETATM   25  C   UNL     1      43.373 -17.614   2.322  1.00  0.00     0.071 C 
ENDBRANCH  19  20
ENDBRANCH  18  19
ENDBRANCH  13  18
ENDBRANCH   1   8
BRANCH   4  26
HETATM   26  C   UNL     1      40.249 -13.812  -0.261  1.00  0.00     0.276 C 
BRANCH  26  27
HETATM   27  C   UNL     1      39.626 -12.820  -1.201  1.00  0.00     0.004 A 
HETATM   28  C   UNL     1      40.433 -12.043  -2.042  1.00  0.00     0.107 A 
HETATM   29  C   UNL     1      39.881 -11.098  -2.906  1.00  0.00     0.102 A 
HETATM   30  C   UNL     1      38.508 -10.889  -2.922  1.00  0.00     0.039 A 
HETATM   31  C   UNL     1      37.686 -11.656  -2.094  1.00  0.00     0.003 A 
HETATM   32  C   UNL     1      38.239 -12.616  -1.237  1.00  0.00     0.012 A 
BRANCH  28  33
HETATM   33  O   UNL     1      41.792 -12.190  -1.975  1.00  0.00    -0.357 OA
HETATM   34  H   UNL     1      41.988 -13.120  -2.216  1.00  0.00     0.218 HD
ENDBRANCH  28  33
BRANCH  29  35
HETATM   35  O   UNL     1      40.700 -10.305  -3.660  1.00  0.00    -0.349 OA
BRANCH  35  36
HETATM   36  C   UNL     1      40.445  -8.913  -3.420  1.00  0.00     0.171 C 
HETATM   37  C   UNL     1      41.762  -8.168  -3.504  1.00  0.00     0.034 C 
ENDBRANCH  35  36
ENDBRANCH  29  35
ENDBRANCH  26  27
ENDBRANCH   4  26
TORSDOF 10
ENDMDL
MODEL 5
REMARK VINA RESULT:      -7.9      3.693      7.712
REMARK  10 active torsions:
REMARK  status: ('A' for Active; 'I' for Inactive)
REMARK    1  A    between atoms: C_2  and  C_3 
REMARK    2  A    between atoms: C_3  and  C_4 
REMARK    3  A    between atoms: N_7  and  C_9 
REMARK    4  A    between atoms: C_9  and  C_10 
REMARK    5  A    between atoms: C_11  and  O_12 
REMARK    6  A    between atoms: C_13  and  O_14 
REMARK    7  A    between atoms: O_14  and  C_15 
REMARK    8  A    between atoms: N_25  and  C_26 
REMARK    9  A    between atoms: C_26  and  C_27 
REMARK   10  A    between atoms: C_27  and  C_28 
ROOT
HETATM    1  C   UNL     1      43.055 -12.509   4.137  1.00  0.00     0.026 C 
HETATM    2  C   UNL     1      42.744 -11.003   4.219  1.00  0.00     0.035 C 
HETATM    3  C   UNL     1      41.523 -10.566   3.419  1.00  0.00     0.235 C 
HETATM    4  N   UNL     1      41.568 -11.057   1.993  1.00  0.00    -0.067 N 
HETATM    5  H   UNL     1      42.318 -10.557   1.500  1.00  0.00     0.280 HD
HETATM    6  C   UNL     1      41.880 -12.527   1.862  1.00  0.00     0.235 C 
HETATM    7  C   UNL     1      43.129 -12.884   2.646  1.00  0.00     0.035 C 
ENDROOT
BRANCH   1   8
HETATM    8  C   UNL     1      42.142 -13.424   5.020  1.00  0.00     0.119 C 
HETATM    9  N   UNL     1      41.236 -14.258   4.249  1.00  0.00    -0.324 N 
HETATM   10  C   UNL     1      41.343 -15.590   4.595  1.00  0.00     0.326 C 
HETATM   11  H   UNL     1      40.302 -13.978   3.971  1.00  0.00     0.165 HD
HETATM   12  O   UNL     1      40.531 -16.427   4.244  1.00  0.00    -0.247 OA
HETATM   13  N   UNL     1      42.451 -15.759   5.358  1.00  0.00    -0.268 N 
HETATM   14  C   UNL     1      42.971 -14.542   5.705  1.00  0.00     0.256 C 
HETATM   15  O   UNL     1      43.933 -14.345   6.432  1.00  0.00    -0.270 OA
BRANCH   8  16
HETATM   16  C   UNL     1      41.303 -12.685   6.089  1.00  0.00     0.037 C 
HETATM   17  C   UNL     1      39.797 -12.690   5.876  1.00  0.00     0.008 C 
ENDBRANCH   8  16
BRANCH  13  18
HETATM   18  C   UNL     1      42.867 -17.028   5.938  1.00  0.00     0.142 C 
BRANCH  18  19
HETATM   19  C   UNL     1      44.196 -17.541   5.372  1.00  0.00     0.068 C 
BRANCH  19  20
HETATM   20  C   UNL     1      43.993 -18.702   4.449  1.00  0.00     0.010 A 
HETATM   21  S   UNL     1      44.231 -20.311   5.002  1.00  0.00    -0.085 SA
HETATM   22  C   UNL     1      43.827 -20.891   3.443  1.00  0.00     0.166 A 
HETATM   23  N   UNL     1      43.529 -19.976   2.549  1.00  0.00    -0.258 NA
HETATM   24  C   UNL     1      43.624 -18.715   3.112  1.00  0.00     0.044 A 
HETATM   25  C   UNL     1      43.327 -17.539   2.250  1.00  0.00     0.071 C 
ENDBRANCH  19  20
ENDBRANCH  18  19
ENDBRANCH  13  18
ENDBRANCH   1   8
BRANCH   4  26
HETATM   26  C   UNL     1      40.264 -10.665   1.287  1.00  0.00     0.276 C 
BRANCH  26  27
HETATM   27  C   UNL     1      40.236 -10.835  -0.205  1.00  0.00     0.004 A 
HETATM   28  C   UNL     1      39.341 -11.738  -0.795  1.00  0.00     0.107 A 
HETATM   29  C   UNL     1      39.313 -11.932  -2.174  1.00  0.00     0.102 A 
HETATM   30  C   UNL     1      40.203 -11.248  -2.992  1.00  0.00     0.039 A 
HETATM   31  C   UNL     1      41.101 -10.342  -2.423  1.00  0.00     0.003 A 
HETATM   32  C   UNL     1      41.120 -10.134  -1.038  1.00  0.00     0.012 A 
BRANCH  28  33
HETATM   33  O   UNL     1      38.514 -12.471   0.012  1.00  0.00    -0.357 OA
HETATM   34  H   UNL     1      38.129 -11.847   0.664  1.00  0.00     0.218 HD
ENDBRANCH  28  33
BRANCH  29  35
HETATM   35  O   UNL     1      38.479 -12.872  -2.712  1.00  0.00    -0.349 OA
BRANCH  35  36
HETATM   36  C   UNL     1      39.214 -14.005  -3.199  1.00  0.00     0.171 C 
HETATM   37  C   UNL     1      38.727 -15.238  -2.466  1.00  0.00     0.034 C 
ENDBRANCH  35  36
ENDBRANCH  29  35
ENDBRANCH  26  27
ENDBRANCH   4  26
TORSDOF 10
ENDMDL
MODEL 6
REMARK VINA RESULT:      -7.9      1.866      2.962
REMARK  10 active torsions:
REMARK  status: ('A' for Active; 'I' for Inactive)
REMARK    1  A    between atoms: C_2  and  C_3 
REMARK    2  A    between atoms: C_3  and  C_4 
REMARK    3  A    between atoms: N_7  and  C_9 
REMARK    4  A    between atoms: C_9  and  C_10 
REMARK    5  A    between atoms: C_11  and  O_12 
REMARK    6  A    between atoms: C_13  and  O_14 
REMARK    7  A    between atoms: O_14  and  C_15 
REMARK    8  A    between atoms: N_25  and  C_26 
REMARK    9  A    between atoms: C_26  and  C_27 
REMARK   10  A    between atoms: C_27  and  C_28 
ROOT
HETATM    1  C   UNL     1      40.066 -13.387   4.281  1.00  0.00     0.026 C 
HETATM    2  C   UNL     1      39.823 -12.152   3.395  1.00  0.00     0.035 C 
HETATM    3  C   UNL     1      40.467 -10.869   3.908  1.00  0.00     0.235 C 
HETATM    4  N   UNL     1      40.134 -10.600   5.355  1.00  0.00    -0.067 N 
HETATM    5  H   UNL     1      39.137 -10.362   5.420  1.00  0.00     0.280 HD
HETATM    6  C   UNL     1      40.347 -11.787   6.262  1.00  0.00     0.235 C 
HETATM    7  C   UNL     1      39.644 -13.015   5.715  1.00  0.00     0.035 C 
ENDROOT
BRANCH   1   8
HETATM    8  C   UNL     1      41.483 -14.036   4.140  1.00  0.00     0.119 C 
HETATM    9  N   UNL     1      42.434 -13.578   5.139  1.00  0.00    -0.324 N 
HETATM   10  C   UNL     1      43.024 -14.631   5.808  1.00  0.00     0.326 C 
HETATM   11  H   UNL     1      43.039 -12.773   5.022  1.00  0.00     0.165 HD
HETATM   12  O   UNL     1      44.004 -14.491   6.518  1.00  0.00    -0.247 OA
HETATM   13  N   UNL     1      42.346 -15.769   5.524  1.00  0.00    -0.268 N 
HETATM   14  C   UNL     1      41.447 -15.540   4.518  1.00  0.00     0.256 C 
HETATM   15  O   UNL     1      40.720 -16.369   3.992  1.00  0.00    -0.270 OA
BRANCH   8  16
HETATM   16  C   UNL     1      42.148 -13.876   2.753  1.00  0.00     0.037 C 
HETATM   17  C   UNL     1      43.392 -13.003   2.706  1.00  0.00     0.008 C 
ENDBRANCH   8  16
BRANCH  13  18
HETATM   18  C   UNL     1      42.703 -17.089   6.024  1.00  0.00     0.142 C 
BRANCH  18  19
HETATM   19  C   UNL     1      44.071 -17.571   5.524  1.00  0.00     0.068 C 
BRANCH  19  20
HETATM   20  C   UNL     1      43.939 -18.711   4.563  1.00  0.00     0.010 A 
HETATM   21  S   UNL     1      44.087 -20.334   5.106  1.00  0.00    -0.085 SA
HETATM   22  C   UNL     1      43.832 -20.878   3.504  1.00  0.00     0.166 A 
HETATM   23  N   UNL     1      43.644 -19.942   2.603  1.00  0.00    -0.258 NA
HETATM   24  C   UNL     1      43.707 -18.693   3.196  1.00  0.00     0.044 A 
HETATM   25  C   UNL     1      43.522 -17.497   2.331  1.00  0.00     0.071 C 
ENDBRANCH  19  20
ENDBRANCH  18  19
ENDBRANCH  13  18
ENDBRANCH   1   8
BRANCH   4  26
HETATM   26  C   UNL     1      40.898  -9.356   5.822  1.00  0.00     0.276 C 
BRANCH  26  27
HETATM   27  C   UNL     1      41.597  -9.461   7.147  1.00  0.00     0.004 A 
HETATM   28  C   UNL     1      42.837 -10.105   7.241  1.00  0.00     0.107 A 
HETATM   29  C   UNL     1      43.494 -10.237   8.463  1.00  0.00     0.102 A 
HETATM   30  C   UNL     1      42.906  -9.754   9.625  1.00  0.00     0.039 A 
HETATM   31  C   UNL     1      41.671  -9.106   9.552  1.00  0.00     0.003 A 
HETATM   32  C   UNL     1      41.017  -8.959   8.322  1.00  0.00     0.012 A 
BRANCH  28  33
HETATM   33  O   UNL     1      43.386 -10.651   6.112  1.00  0.00    -0.357 OA
HETATM   34  H   UNL     1      43.257 -11.621   6.177  1.00  0.00     0.218 HD
ENDBRANCH  28  33
BRANCH  29  35
HETATM   35  O   UNL     1      44.668 -10.934   8.533  1.00  0.00    -0.349 OA
BRANCH  35  36
HETATM   36  C   UNL     1      45.709 -10.145   9.129  1.00  0.00     0.171 C 
HETATM   37  C   UNL     1      46.362  -9.318   8.039  1.00  0.00     0.034 C 
ENDBRANCH  35  36
ENDBRANCH  29  35
ENDBRANCH  26  27
ENDBRANCH   4  26
TORSDOF 10
ENDMDL
MODEL 7
REMARK VINA RESULT:      -7.6      3.250      9.235
REMARK  10 active torsions:
REMARK  status: ('A' for Active; 'I' for Inactive)
REMARK    1  A    between atoms: C_2  and  C_3 
REMARK    2  A    between atoms: C_3  and  C_4 
REMARK    3  A    between atoms: N_7  and  C_9 
REMARK    4  A    between atoms: C_9  and  C_10 
REMARK    5  A    between atoms: C_11  and  O_12 
REMARK    6  A    between atoms: C_13  and  O_14 
REMARK    7  A    between atoms: O_14  and  C_15 
REMARK    8  A    between atoms: N_25  and  C_26 
REMARK    9  A    between atoms: C_26  and  C_27 
REMARK   10  A    between atoms: C_27  and  C_28 
ROOT
HETATM    1  C   UNL     1      42.602 -10.761   5.227  1.00  0.00     0.026 C 
HETATM    2  C   UNL     1      42.842 -11.372   3.834  1.00  0.00     0.035 C 
HETATM    3  C   UNL     1      42.092 -12.673   3.577  1.00  0.00     0.235 C 
HETATM    4  N   UNL     1      42.300 -13.682   4.680  1.00  0.00    -0.067 N 
HETATM    5  H   UNL     1      43.275 -14.005   4.646  1.00  0.00     0.280 HD
HETATM    6  C   UNL     1      42.085 -13.125   6.065  1.00  0.00     0.235 C 
HETATM    7  C   UNL     1      42.894 -11.858   6.267  1.00  0.00     0.035 C 
ENDROOT
BRANCH   1   8
HETATM    8  C   UNL     1      41.237 -10.014   5.397  1.00  0.00     0.119 C 
HETATM    9  N   UNL     1      40.135 -10.891   5.748  1.00  0.00    -0.324 N 
HETATM   10  C   UNL     1      39.470 -10.454   6.876  1.00  0.00     0.326 C 
HETATM   11  H   UNL     1      39.539 -11.355   5.073  1.00  0.00     0.165 HD
HETATM   12  O   UNL     1      38.389 -10.902   7.216  1.00  0.00    -0.247 OA
HETATM   13  N   UNL     1      40.207  -9.489   7.476  1.00  0.00    -0.268 N 
HETATM   14  C   UNL     1      41.246  -9.121   6.665  1.00  0.00     0.256 C 
HETATM   15  O   UNL     1      42.063  -8.239   6.887  1.00  0.00    -0.270 OA
BRANCH   8  16
HETATM   16  C   UNL     1      40.793  -9.166   4.181  1.00  0.00     0.037 C 
HETATM   17  C   UNL     1      39.597  -9.693   3.403  1.00  0.00     0.008 C 
ENDBRANCH   8  16
BRANCH  13  18
HETATM   18  C   UNL     1      39.804  -8.767   8.675  1.00  0.00     0.142 C 
BRANCH  18  19
HETATM   19  C   UNL     1      39.554  -9.688   9.876  1.00  0.00     0.068 C 
BRANCH  19  20
HETATM   20  C   UNL     1      40.633  -9.560  10.905  1.00  0.00     0.010 A 
HETATM   21  S   UNL     1      42.143  -8.844  10.506  1.00  0.00    -0.085 SA
HETATM   22  C   UNL     1      42.676  -9.109  12.111  1.00  0.00     0.166 A 
HETATM   23  N   UNL     1      41.813  -9.686  12.915  1.00  0.00    -0.258 NA
HETATM   24  C   UNL     1      40.638  -9.954  12.235  1.00  0.00     0.044 A 
HETATM   25  C   UNL     1      39.533 -10.616  12.981  1.00  0.00     0.071 C 
ENDBRANCH  19  20
ENDBRANCH  18  19
ENDBRANCH  13  18
ENDBRANCH   1   8
BRANCH   4  26
HETATM   26  C   UNL     1      41.435 -14.917   4.399  1.00  0.00     0.276 C 
BRANCH  26  27
HETATM   27  C   UNL     1      42.137 -16.097   3.790  1.00  0.00     0.004 A 
HETATM   28  C   UNL     1      43.061 -16.833   4.543  1.00  0.00     0.107 A 
HETATM   29  C   UNL     1      43.743 -17.917   3.994  1.00  0.00     0.102 A 
HETATM   30  C   UNL     1      43.537 -18.269   2.666  1.00  0.00     0.039 A 
HETATM   31  C   UNL     1      42.617 -17.550   1.900  1.00  0.00     0.003 A 
HETATM   32  C   UNL     1      41.920 -16.470   2.455  1.00  0.00     0.012 A 
BRANCH  28  33
HETATM   33  O   UNL     1      43.327 -16.444   5.828  1.00  0.00    -0.357 OA
HETATM   34  H   UNL     1      44.295 -16.529   5.954  1.00  0.00     0.218 HD
ENDBRANCH  28  33
BRANCH  29  35
HETATM   35  O   UNL     1      44.692 -18.569   4.731  1.00  0.00    -0.349 OA
BRANCH  35  36
HETATM   36  C   UNL     1      44.401 -19.971   4.835  1.00  0.00     0.171 C 
HETATM   37  C   UNL     1      43.533 -20.186   6.059  1.00  0.00     0.034 C 
ENDBRANCH  35  36
ENDBRANCH  29  35
ENDBRANCH  26  27
ENDBRANCH   4  26
TORSDOF 10
ENDMDL
MODEL 8
REMARK VINA RESULT:      -7.6      3.184      9.183
REMARK  10 active torsions:
REMARK  status: ('A' for Active; 'I' for Inactive)
REMARK    1  A    between atoms: C_2  and  C_3 
REMARK    2  A    between atoms: C_3  and  C_4 
REMARK    3  A    between atoms: N_7  and  C_9 
REMARK    4  A    between atoms: C_9  and  C_10 
REMARK    5  A    between atoms: C_11  and  O_12 
REMARK    6  A    between atoms: C_13  and  O_14 
REMARK    7  A    between atoms: O_14  and  C_15 
REMARK    8  A    between atoms: N_25  and  C_26 
REMARK    9  A    between atoms: C_26  and  C_27 
REMARK   10  A    between atoms: C_27  and  C_28 
ROOT
HETATM    1  C   UNL     1      41.840 -10.765   4.298  1.00  0.00     0.026 C 
HETATM    2  C   UNL     1      41.580 -11.743   3.137  1.00  0.00     0.035 C 
HETATM    3  C   UNL     1      41.064 -13.111   3.567  1.00  0.00     0.235 C 
HETATM    4  N   UNL     1      41.916 -13.730   4.649  1.00  0.00    -0.067 N 
HETATM    5  H   UNL     1      42.826 -13.980   4.243  1.00  0.00     0.280 HD
HETATM    6  C   UNL     1      42.205 -12.804   5.804  1.00  0.00     0.235 C 
HETATM    7  C   UNL     1      42.756 -11.480   5.307  1.00  0.00     0.035 C 
ENDROOT
BRANCH   1   8
HETATM    8  C   UNL     1      40.559 -10.098   4.902  1.00  0.00     0.119 C 
HETATM    9  N   UNL     1      39.709 -11.025   5.628  1.00  0.00    -0.324 N 
HETATM   10  C   UNL     1      39.431 -10.575   6.903  1.00  0.00     0.326 C 
HETATM   11  H   UNL     1      38.958 -11.558   5.207  1.00  0.00     0.165 HD
HETATM   12  O   UNL     1      38.565 -11.073   7.601  1.00  0.00    -0.247 OA
HETATM   13  N   UNL     1      40.252  -9.537   7.194  1.00  0.00    -0.268 N 
HETATM   14  C   UNL     1      40.926  -9.145   6.070  1.00  0.00     0.256 C 
HETATM   15  O   UNL     1      41.700  -8.203   5.979  1.00  0.00    -0.270 OA
BRANCH   8  16
HETATM   16  C   UNL     1      39.669  -9.340   3.889  1.00  0.00     0.037 C 
HETATM   17  C   UNL     1      38.415 -10.069   3.429  1.00  0.00     0.008 C 
ENDBRANCH   8  16
BRANCH  13  18
HETATM   18  C   UNL     1      40.221  -8.784   8.440  1.00  0.00     0.142 C 
BRANCH  18  19
HETATM   19  C   UNL     1      41.522  -8.901   9.245  1.00  0.00     0.068 C 
BRANCH  19  20
HETATM   20  C   UNL     1      41.266  -9.362  10.646  1.00  0.00     0.010 A 
HETATM   21  S   UNL     1      39.682  -9.799  11.147  1.00  0.00    -0.085 SA
HETATM   22  C   UNL     1      40.287 -10.142  12.711  1.00  0.00     0.166 A 
HETATM   23  N   UNL     1      41.576  -9.957  12.881  1.00  0.00    -0.258 NA
HETATM   24  C   UNL     1      42.150  -9.506  11.705  1.00  0.00     0.044 A 
HETATM   25  C   UNL     1      43.612  -9.231  11.700  1.00  0.00     0.071 C 
ENDBRANCH  19  20
ENDBRANCH  18  19
ENDBRANCH  13  18
ENDBRANCH   1   8
BRANCH   4  26
HETATM   26  C   UNL     1      41.276 -15.050   5.096  1.00  0.00     0.276 C 
BRANCH  26  27
HETATM   27  C   UNL     1      42.206 -16.216   5.270  1.00  0.00     0.004 A 
HETATM   28  C   UNL     1      42.810 -16.809   4.155  1.00  0.00     0.107 A 
HETATM   29  C   UNL     1      43.658 -17.907   4.288  1.00  0.00     0.102 A 
HETATM   30  C   UNL     1      43.894 -18.456   5.542  1.00  0.00     0.039 A 
HETATM   31  C   UNL     1      43.303 -17.877   6.667  1.00  0.00     0.003 A 
HETATM   32  C   UNL     1      42.463 -16.764   6.536  1.00  0.00     0.012 A 
BRANCH  28  33
HETATM   33  O   UNL     1      42.521 -16.321   2.909  1.00  0.00    -0.357 OA
HETATM   34  H   UNL     1      42.502 -15.344   2.986  1.00  0.00     0.218 HD
ENDBRANCH  28  33
BRANCH  29  35
HETATM   35  O   UNL     1      44.174 -18.508   3.174  1.00  0.00    -0.349 OA
BRANCH  35  36
HETATM   36  C   UNL     1      43.895 -19.916   3.163  1.00  0.00     0.171 C 
HETATM   37  C   UNL     1      43.128 -20.239   1.896  1.00  0.00     0.034 C 
ENDBRANCH  35  36
ENDBRANCH  29  35
ENDBRANCH  26  27
ENDBRANCH   4  26
TORSDOF 10
ENDMDL
MODEL 9
REMARK VINA RESULT:      -7.5      3.159      4.584
REMARK  10 active torsions:
REMARK  status: ('A' for Active; 'I' for Inactive)
REMARK    1  A    between atoms: C_2  and  C_3 
REMARK    2  A    between atoms: C_3  and  C_4 
REMARK    3  A    between atoms: N_7  and  C_9 
REMARK    4  A    between atoms: C_9  and  C_10 
REMARK    5  A    between atoms: C_11  and  O_12 
REMARK    6  A    between atoms: C_13  and  O_14 
REMARK    7  A    between atoms: O_14  and  C_15 
REMARK    8  A    between atoms: N_25  and  C_26 
REMARK    9  A    between atoms: C_26  and  C_27 
REMARK   10  A    between atoms: C_27  and  C_28 
ROOT
HETATM    1  C   UNL     1      41.797 -13.390   5.395  1.00  0.00     0.026 C 
HETATM    2  C   UNL     1      41.176 -12.176   6.109  1.00  0.00     0.035 C 
HETATM    3  C   UNL     1      42.185 -11.129   6.567  1.00  0.00     0.235 C 
HETATM    4  N   UNL     1      43.317 -11.733   7.361  1.00  0.00    -0.067 N 
HETATM    5  H   UNL     1      42.945 -12.059   8.262  1.00  0.00     0.280 HD
HETATM    6  C   UNL     1      43.951 -12.935   6.704  1.00  0.00     0.235 C 
HETATM    7  C   UNL     1      42.896 -13.954   6.315  1.00  0.00     0.035 C 
ENDROOT
BRANCH   1   8
HETATM    8  C   UNL     1      42.221 -13.141   3.909  1.00  0.00     0.119 C 
HETATM    9  N   UNL     1      43.187 -14.105   3.411  1.00  0.00    -0.324 N 
HETATM   10  C   UNL     1      42.769 -14.690   2.233  1.00  0.00     0.326 C 
HETATM   11  H   UNL     1      44.192 -13.991   3.480  1.00  0.00     0.165 HD
HETATM   12  O   UNL     1      43.511 -15.350   1.528  1.00  0.00    -0.247 OA
HETATM   13  N   UNL     1      41.462 -14.393   2.033  1.00  0.00    -0.268 N 
HETATM   14  C   UNL     1      41.052 -13.451   2.937  1.00  0.00     0.256 C 
HETATM   15  O   UNL     1      39.949 -12.928   2.991  1.00  0.00    -0.270 OA
BRANCH   8  16
HETATM   16  C   UNL     1      42.771 -11.727   3.608  1.00  0.00     0.037 C 
HETATM   17  C   UNL     1      42.198 -11.037   2.379  1.00  0.00     0.008 C 
ENDBRANCH   8  16
BRANCH  13  18
HETATM   18  C   UNL     1      40.689 -14.810   0.872  1.00  0.00     0.142 C 
BRANCH  18  19
HETATM   19  C   UNL     1      39.778 -13.703   0.327  1.00  0.00     0.068 C 
BRANCH  19  20
HETATM   20  C   UNL     1      40.142 -13.328  -1.076  1.00  0.00     0.010 A 
HETATM   21  S   UNL     1      41.121 -11.951  -1.387  1.00  0.00    -0.085 SA
HETATM   22  C   UNL     1      41.013 -12.271  -3.065  1.00  0.00     0.166 A 
HETATM   23  N   UNL     1      40.306 -13.325  -3.404  1.00  0.00    -0.258 NA
HETATM   24  C   UNL     1      39.797 -13.938  -2.272  1.00  0.00     0.044 A 
HETATM   25  C   UNL     1      38.959 -15.154  -2.453  1.00  0.00     0.071 C 
ENDBRANCH  19  20
ENDBRANCH  18  19
ENDBRANCH  13  18
ENDBRANCH   1   8
BRANCH   4  26
HETATM   26  C   UNL     1      44.335 -10.637   7.695  1.00  0.00     0.276 C 
BRANCH  26  27
HETATM   27  C   UNL     1      43.970  -9.707   8.817  1.00  0.00     0.004 A 
HETATM   28  C   UNL     1      43.665 -10.218  10.085  1.00  0.00     0.107 A 
HETATM   29  C   UNL     1      43.299  -9.378  11.135  1.00  0.00     0.102 A 
HETATM   30  C   UNL     1      43.201  -8.008  10.929  1.00  0.00     0.039 A 
HETATM   31  C   UNL     1      43.505  -7.479   9.673  1.00  0.00     0.003 A 
HETATM   32  C   UNL     1      43.887  -8.320   8.621  1.00  0.00     0.012 A 
BRANCH  28  33
HETATM   33  O   UNL     1      43.684 -11.573  10.273  1.00  0.00    -0.357 OA
HETATM   34  H   UNL     1      43.324 -11.977   9.455  1.00  0.00     0.218 HD
ENDBRANCH  28  33
BRANCH  29  35
HETATM   35  O   UNL     1      42.937  -9.913  12.339  1.00  0.00    -0.349 OA
BRANCH  35  36
HETATM   36  C   UNL     1      41.919  -9.126  12.976  1.00  0.00     0.171 C 
HETATM   37  C   UNL     1      40.671  -9.977  13.106  1.00  0.00     0.034 C 
ENDBRANCH  35  36
ENDBRANCH  29  35
ENDBRANCH  26  27
ENDBRANCH   4  26
TORSDOF 10
ENDMDL
MODEL 10
REMARK VINA RESULT:      -7.5      1.836      2.802
REMARK  10 active torsions:
REMARK  status: ('A' for Active; 'I' for Inactive)
REMARK    1  A    between atoms: C_2  and  C_3 
REMARK    2  A    between atoms: C_3  and  C_4 
REMARK    3  A    between atoms: N_7  and  C_9 
REMARK    4  A    between atoms: C_9  and  C_10 
REMARK    5  A    between atoms: C_11  and  O_12 
REMARK    6  A    between atoms: C_13  and  O_14 
REMARK    7  A    between atoms: O_14  and  C_15 
REMARK    8  A    between atoms: N_25  and  C_26 
REMARK    9  A    between atoms: C_26  and  C_27 
REMARK   10  A    between atoms: C_27  and  C_28 
ROOT
HETATM    1  C   UNL     1      41.065 -12.274   5.086  1.00  0.00     0.026 C 
HETATM    2  C   UNL     1      41.435 -11.081   4.185  1.00  0.00     0.035 C 
HETATM    3  C   UNL     1      42.101  -9.921   4.915  1.00  0.00     0.235 C 
HETATM    4  N   UNL     1      41.323  -9.489   6.134  1.00  0.00    -0.067 N 
HETATM    5  H   UNL     1      40.447  -9.051   5.823  1.00  0.00     0.280 HD
HETATM    6  C   UNL     1      40.929 -10.627   7.043  1.00  0.00     0.235 C 
HETATM    7  C   UNL     1      40.234 -11.725   6.260  1.00  0.00     0.035 C 
ENDROOT
BRANCH   1   8
HETATM    8  C   UNL     1      42.262 -13.202   5.482  1.00  0.00     0.119 C 
HETATM    9  N   UNL     1      42.184 -13.702   6.843  1.00  0.00    -0.324 N 
HETATM   10  C   UNL     1      42.293 -15.077   6.893  1.00  0.00     0.326 C 
HETATM   11  H   UNL     1      42.581 -13.228   7.647  1.00  0.00     0.165 HD
HETATM   12  O   UNL     1      42.480 -15.683   7.933  1.00  0.00    -0.247 OA
HETATM   13  N   UNL     1      42.168 -15.575   5.639  1.00  0.00    -0.268 N 
HETATM   14  C   UNL     1      42.190 -14.555   4.726  1.00  0.00     0.256 C 
HETATM   15  O   UNL     1      42.153 -14.669   3.510  1.00  0.00    -0.270 OA
BRANCH   8  16
HETATM   16  C   UNL     1      43.668 -12.586   5.287  1.00  0.00     0.037 C 
HETATM   17  C   UNL     1      44.494 -12.399   6.551  1.00  0.00     0.008 C 
ENDBRANCH   8  16
BRANCH  13  18
HETATM   18  C   UNL     1      42.266 -16.987   5.298  1.00  0.00     0.142 C 
BRANCH  18  19
HETATM   19  C   UNL     1      43.678 -17.405   4.869  1.00  0.00     0.068 C 
BRANCH  19  20
HETATM   20  C   UNL     1      43.649 -18.571   3.931  1.00  0.00     0.010 A 
HETATM   21  S   UNL     1      43.251 -18.351   2.275  1.00  0.00    -0.085 SA
HETATM   22  C   UNL     1      43.442 -20.033   2.021  1.00  0.00     0.166 A 
HETATM   23  N   UNL     1      43.781 -20.738   3.075  1.00  0.00    -0.258 NA
HETATM   24  C   UNL     1      43.899 -19.913   4.180  1.00  0.00     0.044 A 
HETATM   25  C   UNL     1      44.274 -20.532   5.480  1.00  0.00     0.071 C 
ENDBRANCH  19  20
ENDBRANCH  18  19
ENDBRANCH  13  18
ENDBRANCH   1   8
BRANCH   4  26
HETATM   26  C   UNL     1      42.107  -8.393   6.866  1.00  0.00     0.276 C 
BRANCH  26  27
HETATM   27  C   UNL     1      42.806  -8.805   8.129  1.00  0.00     0.004 A 
HETATM   28  C   UNL     1      42.186  -8.619   9.372  1.00  0.00     0.107 A 
HETATM   29  C   UNL     1      42.825  -8.970  10.559  1.00  0.00     0.102 A 
HETATM   30  C   UNL     1      44.113  -9.488  10.531  1.00  0.00     0.039 A 
HETATM   31  C   UNL     1      44.747  -9.684   9.302  1.00  0.00     0.003 A 
HETATM   32  C   UNL     1      44.101  -9.345   8.106  1.00  0.00     0.012 A 
BRANCH  28  33
HETATM   33  O   UNL     1      40.948  -8.038   9.412  1.00  0.00    -0.357 OA
HETATM   34  H   UNL     1      40.696  -7.846   8.483  1.00  0.00     0.218 HD
ENDBRANCH  28  33
BRANCH  29  35
HETATM   35  O   UNL     1      42.223  -8.709  11.758  1.00  0.00    -0.349 OA
BRANCH  35  36
HETATM   36  C   UNL     1      41.783  -9.918  12.397  1.00  0.00     0.171 C 
HETATM   37  C   UNL     1      40.760  -9.552  13.454  1.00  0.00     0.034 C 
ENDBRANCH  35  36
ENDBRANCH  29  35
ENDBRANCH  26  27
ENDBRANCH   4  26
TORSDOF 10
ENDMDL
