MODEL 1
REMARK VINA RESULT:      -9.0      0.000      0.000
REMARK  3 active torsions:
REMARK  status: ('A' for Active; 'I' for Inactive)
REMARK    1  A    between atoms: C_10  and  C_11 
REMARK       I    between atoms: C_11  and  N_12 
REMARK    2  A    between atoms: C_14  and  O_15 
REMARK    3  A    between atoms: O_15  and  C_16 
ROOT
HETATM    1  C   UNL     1      42.394 -12.966   5.757  1.00  0.00     0.255 C 
HETATM    2  N   UNL     1      42.392 -14.312   6.072  1.00  0.00    -0.345 N 
HETATM    3  C   UNL     1      43.500 -15.104   6.603  1.00  0.00     0.158 C 
HETATM    4  C   UNL     1      43.167 -16.561   6.248  1.00  0.00     0.148 C 
HETATM    5  C   UNL     1      41.640 -16.541   6.165  1.00  0.00     0.054 C 
HETATM    6  C   UNL     1      41.347 -15.178   5.555  1.00  0.00     0.129 C 
HETATM    7  O   UNL     1      41.513 -12.433   5.088  1.00  0.00    -0.267 OA
ENDROOT
BRANCH   1   8
HETATM    8  C   UNL     1      43.518 -12.128   6.218  1.00  0.00     0.050 A 
HETATM    9  C   UNL     1      44.539 -11.839   5.315  1.00  0.00     0.136 A 
HETATM   10  N   UNL     1      45.647 -11.100   5.584  1.00  0.00    -0.240 NA
HETATM   11  C   UNL     1      45.659 -10.634   6.848  1.00  0.00     0.155 A 
HETATM   12  N   UNL     1      46.631  -9.867   7.419  1.00  0.00    -0.260 N 
HETATM   13  C   UNL     1      44.699 -10.822   7.830  1.00  0.00     0.038 A 
HETATM   14  N   UNL     1      46.387  -9.546   8.706  1.00  0.00    -0.177 NA
HETATM   15  H   UNL     1      47.479  -9.538   6.977  1.00  0.00     0.191 HD
HETATM   16  C   UNL     1      45.203 -10.122   8.960  1.00  0.00     0.065 A 
HETATM   17  C   UNL     1      44.580  -9.999  10.300  1.00  0.00     0.073 C 
HETATM   18  C   UNL     1      43.566 -11.586   7.507  1.00  0.00     0.036 A 
ENDBRANCH   1   8
BRANCH   4  19
HETATM   19  O   UNL     1      43.739 -16.849   4.968  1.00  0.00    -0.344 OA
BRANCH  19  20
HETATM   20  C   UNL     1      43.785 -18.150   4.553  1.00  0.00     0.070 A 
HETATM   21  C   UNL     1      43.679 -18.600   3.238  1.00  0.00     0.060 A 
HETATM   22  C   UNL     1      43.737 -19.969   2.969  1.00  0.00     0.036 A 
HETATM   23 CL   UNL     1      43.593 -20.523   1.344  1.00  0.00    -0.084 Cl
HETATM   24  C   UNL     1      43.910 -20.894   3.997  1.00  0.00     0.024 A 
HETATM   25  C   UNL     1      44.031 -20.446   5.310  1.00  0.00     0.004 A 
HETATM   26  C   UNL     1      43.971 -19.078   5.582  1.00  0.00     0.037 A 
ENDBRANCH  19  20
ENDBRANCH   4  19
TORSDOF 3
ENDMDL
MODEL 2
REMARK VINA RESULT:      -8.7      1.121      1.516
REMARK  3 active torsions:
REMARK  status: ('A' for Active; 'I' for Inactive)
REMARK    1  A    between atoms: C_10  and  C_11 
REMARK       I    between atoms: C_11  and  N_12 
REMARK    2  A    between atoms: C_14  and  O_15 
REMARK    3  A    between atoms: O_15  and  C_16 
ROOT
HETATM    1  C   UNL     1      41.984 -12.309   5.839  1.00  0.00     0.255 C 
HETATM    2  N   UNL     1      41.875 -13.678   5.998  1.00  0.00    -0.345 N 
HETATM    3  C   UNL     1      42.937 -14.620   6.351  1.00  0.00     0.158 C 
HETATM    4  C   UNL     1      42.445 -15.990   5.861  1.00  0.00     0.148 C 
HETATM    5  C   UNL     1      40.924 -15.830   5.897  1.00  0.00     0.054 C 
HETATM    6  C   UNL     1      40.722 -14.383   5.469  1.00  0.00     0.129 C 
HETATM    7  O   UNL     1      41.115 -11.626   5.303  1.00  0.00    -0.267 OA
ENDROOT
BRANCH   1   8
HETATM    8  C   UNL     1      43.209 -11.632   6.303  1.00  0.00     0.050 A 
HETATM    9  C   UNL     1      44.303 -11.581   5.441  1.00  0.00     0.136 A 
HETATM   10  N   UNL     1      45.505 -11.012   5.721  1.00  0.00    -0.240 NA
HETATM   11  C   UNL     1      45.538 -10.461   6.950  1.00  0.00     0.155 A 
HETATM   12  N   UNL     1      46.598  -9.820   7.520  1.00  0.00    -0.260 N 
HETATM   13  C   UNL     1      44.518 -10.417   7.888  1.00  0.00     0.038 A 
HETATM   14  N   UNL     1      46.355  -9.368   8.768  1.00  0.00    -0.177 NA
HETATM   15  H   UNL     1      47.507  -9.667   7.105  1.00  0.00     0.191 HD
HETATM   16  C   UNL     1      45.082  -9.724   8.994  1.00  0.00     0.065 A 
HETATM   17  C   UNL     1      44.431  -9.402  10.287  1.00  0.00     0.073 C 
HETATM   18  C   UNL     1      43.290 -11.009   7.554  1.00  0.00     0.036 A 
ENDBRANCH   1   8
BRANCH   4  19
HETATM   19  O   UNL     1      42.901 -16.172   4.516  1.00  0.00    -0.344 OA
BRANCH  19  20
HETATM   20  C   UNL     1      43.209 -17.435   4.098  1.00  0.00     0.070 A 
HETATM   21  C   UNL     1      43.749 -18.455   4.879  1.00  0.00     0.060 A 
HETATM   22  C   UNL     1      44.017 -19.699   4.305  1.00  0.00     0.036 A 
HETATM   23 CL   UNL     1      44.698 -20.953   5.271  1.00  0.00    -0.084 Cl
HETATM   24  C   UNL     1      43.743 -19.940   2.960  1.00  0.00     0.024 A 
HETATM   25  C   UNL     1      43.189 -18.929   2.180  1.00  0.00     0.004 A 
HETATM   26  C   UNL     1      42.922 -17.683   2.751  1.00  0.00     0.037 A 
ENDBRANCH  19  20
ENDBRANCH   4  19
TORSDOF 3
ENDMDL
MODEL 3
REMARK VINA RESULT:      -8.5      5.129      7.128
REMARK  3 active torsions:
REMARK  status: ('A' for Active; 'I' for Inactive)
REMARK    1  A    between atoms: C_10  and  C_11 
REMARK       I    between atoms: C_11  and  N_12 
REMARK    2  A    between atoms: C_14  and  O_15 
REMARK    3  A    between atoms: O_15  and  C_16 
ROOT
HETATM    1  C   UNL     1      40.301 -12.563   2.456  1.00  0.00     0.255 C 
HETATM    2  N   UNL     1      41.331 -13.174   3.148  1.00  0.00    -0.345 N 
HETATM    3  C   UNL     1      42.396 -14.012   2.600  1.00  0.00     0.158 C 
HETATM    4  C   UNL     1      42.900 -14.853   3.783  1.00  0.00     0.148 C 
HETATM    5  C   UNL     1      42.572 -13.966   4.985  1.00  0.00     0.054 C 
HETATM    6  C   UNL     1      41.247 -13.329   4.588  1.00  0.00     0.129 C 
HETATM    7  O   UNL     1      39.312 -12.087   3.008  1.00  0.00    -0.267 OA
ENDROOT
BRANCH   1   8
HETATM    8  C   UNL     1      40.369 -12.502   0.983  1.00  0.00     0.050 A 
HETATM    9  C   UNL     1      41.030 -11.425   0.397  1.00  0.00     0.136 A 
HETATM   10  N   UNL     1      41.166 -11.212  -0.938  1.00  0.00    -0.240 NA
HETATM   11  C   UNL     1      40.600 -12.188  -1.674  1.00  0.00     0.155 A 
HETATM   12  N   UNL     1      40.568 -12.260  -3.035  1.00  0.00    -0.260 N 
HETATM   13  C   UNL     1      39.943 -13.321  -1.219  1.00  0.00     0.038 A 
HETATM   14  N   UNL     1      39.928 -13.349  -3.509  1.00  0.00    -0.177 NA
HETATM   15  H   UNL     1      40.962 -11.594  -3.686  1.00  0.00     0.191 HD
HETATM   16  C   UNL     1      39.551 -14.005  -2.401  1.00  0.00     0.065 A 
HETATM   17  C   UNL     1      38.800 -15.280  -2.503  1.00  0.00     0.073 C 
HETATM   18  C   UNL     1      39.832 -13.505   0.169  1.00  0.00     0.036 A 
ENDBRANCH   1   8
BRANCH   4  19
HETATM   19  O   UNL     1      42.139 -16.064   3.826  1.00  0.00    -0.344 OA
BRANCH  19  20
HETATM   20  C   UNL     1      42.808 -17.255   3.814  1.00  0.00     0.070 A 
HETATM   21  C   UNL     1      42.912 -18.132   2.735  1.00  0.00     0.060 A 
HETATM   22  C   UNL     1      43.628 -19.323   2.878  1.00  0.00     0.036 A 
HETATM   23 CL   UNL     1      43.743 -20.411   1.547  1.00  0.00    -0.084 Cl
HETATM   24  C   UNL     1      44.250 -19.643   4.083  1.00  0.00     0.024 A 
HETATM   25  C   UNL     1      44.160 -18.762   5.158  1.00  0.00     0.004 A 
HETATM   26  C   UNL     1      43.443 -17.573   5.019  1.00  0.00     0.037 A 
ENDBRANCH  19  20
ENDBRANCH   4  19
TORSDOF 3
ENDMDL
MODEL 4
REMARK VINA RESULT:      -8.4      2.300      2.796
REMARK  3 active torsions:
REMARK  status: ('A' for Active; 'I' for Inactive)
REMARK    1  A    between atoms: C_10  and  C_11 
REMARK       I    between atoms: C_11  and  N_12 
REMARK    2  A    between atoms: C_14  and  O_15 
REMARK    3  A    between atoms: O_15  and  C_16 
ROOT
HETATM    1  C   UNL     1      42.336 -11.623   3.406  1.00  0.00     0.255 C 
HETATM    2  N   UNL     1      41.892 -12.908   3.151  1.00  0.00    -0.345 N 
HETATM    3  C   UNL     1      41.761 -14.008   4.105  1.00  0.00     0.158 C 
HETATM    4  C   UNL     1      41.778 -15.287   3.254  1.00  0.00     0.148 C 
HETATM    5  C   UNL     1      41.243 -14.798   1.908  1.00  0.00     0.054 C 
HETATM    6  C   UNL     1      41.841 -13.403   1.788  1.00  0.00     0.129 C 
HETATM    7  O   UNL     1      42.654 -10.836   2.518  1.00  0.00    -0.267 OA
ENDROOT
BRANCH   1   8
HETATM    8  C   UNL     1      42.467 -11.178   4.806  1.00  0.00     0.050 A 
HETATM    9  C   UNL     1      41.314 -10.793   5.487  1.00  0.00     0.136 A 
HETATM   10  N   UNL     1      41.265 -10.344   6.768  1.00  0.00    -0.240 NA
HETATM   11  C   UNL     1      42.479 -10.324   7.352  1.00  0.00     0.155 A 
HETATM   12  N   UNL     1      42.758  -9.924   8.626  1.00  0.00    -0.260 N 
HETATM   13  C   UNL     1      43.692 -10.705   6.800  1.00  0.00     0.038 A 
HETATM   14  N   UNL     1      44.065 -10.003   8.948  1.00  0.00    -0.177 NA
HETATM   15  H   UNL     1      42.096  -9.587   9.312  1.00  0.00     0.191 HD
HETATM   16  C   UNL     1      44.639 -10.487   7.837  1.00  0.00     0.065 A 
HETATM   17  C   UNL     1      46.103 -10.719   7.789  1.00  0.00     0.073 C 
HETATM   18  C   UNL     1      43.696 -11.171   5.476  1.00  0.00     0.036 A 
ENDBRANCH   1   8
BRANCH   4  19
HETATM   19  O   UNL     1      43.137 -15.721   3.131  1.00  0.00    -0.344 OA
BRANCH  19  20
HETATM   20  C   UNL     1      43.430 -17.029   3.397  1.00  0.00     0.070 A 
HETATM   21  C   UNL     1      43.449 -18.075   2.476  1.00  0.00     0.060 A 
HETATM   22  C   UNL     1      43.762 -19.367   2.902  1.00  0.00     0.036 A 
HETATM   23 CL   UNL     1      43.771 -20.659   1.763  1.00  0.00    -0.084 Cl
HETATM   24  C   UNL     1      44.068 -19.625   4.237  1.00  0.00     0.024 A 
HETATM   25  C   UNL     1      44.065 -18.580   5.157  1.00  0.00     0.004 A 
HETATM   26  C   UNL     1      43.749 -17.288   4.734  1.00  0.00     0.037 A 
ENDBRANCH  19  20
ENDBRANCH   4  19
TORSDOF 3
ENDMDL
MODEL 5
REMARK VINA RESULT:      -8.3      5.297      8.272
REMARK  3 active torsions:
REMARK  status: ('A' for Active; 'I' for Inactive)
REMARK    1  A    between atoms: C_10  and  C_11 
REMARK       I    between atoms: C_11  and  N_12 
REMARK    2  A    between atoms: C_14  and  O_15 
REMARK    3  A    between atoms: O_15  and  C_16 
ROOT
HETATM    1  C   UNL     1      42.564 -15.016   4.159  1.00  0.00     0.255 C 
HETATM    2  N   UNL     1      41.428 -14.813   3.398  1.00  0.00    -0.345 N 
HETATM    3  C   UNL     1      40.692 -15.806   2.617  1.00  0.00     0.158 C 
HETATM    4  C   UNL     1      39.908 -15.000   1.570  1.00  0.00     0.148 C 
HETATM    5  C   UNL     1      39.731 -13.646   2.258  1.00  0.00     0.054 C 
HETATM    6  C   UNL     1      41.044 -13.469   3.008  1.00  0.00     0.129 C 
HETATM    7  O   UNL     1      43.262 -14.097   4.579  1.00  0.00    -0.267 OA
ENDROOT
BRANCH   1   8
HETATM    8  C   UNL     1      42.983 -16.398   4.461  1.00  0.00     0.050 A 
HETATM    9  C   UNL     1      43.228 -16.738   5.791  1.00  0.00     0.136 A 
HETATM   10  N   UNL     1      43.634 -17.956   6.233  1.00  0.00    -0.240 NA
HETATM   11  C   UNL     1      43.765 -18.849   5.232  1.00  0.00     0.155 A 
HETATM   12  N   UNL     1      44.157 -20.149   5.354  1.00  0.00    -0.260 N 
HETATM   13  C   UNL     1      43.527 -18.649   3.881  1.00  0.00     0.038 A 
HETATM   14  N   UNL     1      44.206 -20.816   4.183  1.00  0.00    -0.177 NA
HETATM   15  H   UNL     1      44.405 -20.629   6.209  1.00  0.00     0.191 HD
HETATM   16  C   UNL     1      43.814 -19.905   3.280  1.00  0.00     0.065 A 
HETATM   17  C   UNL     1      43.737 -20.258   1.842  1.00  0.00     0.073 C 
HETATM   18  C   UNL     1      43.100 -17.377   3.469  1.00  0.00     0.036 A 
ENDBRANCH   1   8
BRANCH   4  19
HETATM   19  O   UNL     1      40.726 -14.871   0.403  1.00  0.00    -0.344 OA
BRANCH  19  20
HETATM   20  C   UNL     1      40.205 -14.243  -0.692  1.00  0.00     0.070 A 
HETATM   21  C   UNL     1      40.513 -12.955  -1.129  1.00  0.00     0.060 A 
HETATM   22  C   UNL     1      39.890 -12.444  -2.269  1.00  0.00     0.036 A 
HETATM   23 CL   UNL     1      40.263 -10.847  -2.798  1.00  0.00    -0.084 Cl
HETATM   24  C   UNL     1      38.969 -13.207  -2.985  1.00  0.00     0.024 A 
HETATM   25  C   UNL     1      38.670 -14.499  -2.559  1.00  0.00     0.004 A 
HETATM   26  C   UNL     1      39.290 -15.012  -1.419  1.00  0.00     0.037 A 
ENDBRANCH  19  20
ENDBRANCH   4  19
TORSDOF 3
ENDMDL
MODEL 6
REMARK VINA RESULT:      -8.1      3.164      6.137
REMARK  3 active torsions:
REMARK  status: ('A' for Active; 'I' for Inactive)
REMARK    1  A    between atoms: C_10  and  C_11 
REMARK       I    between atoms: C_11  and  N_12 
REMARK    2  A    between atoms: C_14  and  O_15 
REMARK    3  A    between atoms: O_15  and  C_16 
ROOT
HETATM    1  C   UNL     1      43.189 -12.861   5.890  1.00  0.00     0.255 C 
HETATM    2  N   UNL     1      41.981 -12.286   5.541  1.00  0.00    -0.345 N 
HETATM    3  C   UNL     1      40.731 -12.970   5.217  1.00  0.00     0.158 C 
HETATM    4  C   UNL     1      39.917 -11.961   4.392  1.00  0.00     0.148 C 
HETATM    5  C   UNL     1      40.454 -10.618   4.887  1.00  0.00     0.054 C 
HETATM    6  C   UNL     1      41.933 -10.901   5.109  1.00  0.00     0.129 C 
HETATM    7  O   UNL     1      44.248 -12.240   5.903  1.00  0.00    -0.267 OA
ENDROOT
BRANCH   1   8
HETATM    8  C   UNL     1      43.223 -14.295   6.236  1.00  0.00     0.050 A 
HETATM    9  C   UNL     1      43.016 -14.659   7.565  1.00  0.00     0.136 A 
HETATM   10  N   UNL     1      43.032 -15.928   8.049  1.00  0.00    -0.240 NA
HETATM   11  C   UNL     1      43.254 -16.843   7.085  1.00  0.00     0.155 A 
HETATM   12  N   UNL     1      43.328 -18.194   7.253  1.00  0.00    -0.260 N 
HETATM   13  C   UNL     1      43.444 -16.618   5.730  1.00  0.00     0.038 A 
HETATM   14  N   UNL     1      43.565 -18.873   6.112  1.00  0.00    -0.177 NA
HETATM   15  H   UNL     1      43.229 -18.702   8.122  1.00  0.00     0.191 HD
HETATM   16  C   UNL     1      43.629 -17.914   5.177  1.00  0.00     0.065 A 
HETATM   17  C   UNL     1      43.883 -18.264   3.758  1.00  0.00     0.073 C 
HETATM   18  C   UNL     1      43.411 -15.292   5.272  1.00  0.00     0.036 A 
ENDBRANCH   1   8
BRANCH   4  19
HETATM   19  O   UNL     1      40.236 -12.156   3.011  1.00  0.00    -0.344 OA
BRANCH  19  20
HETATM   20  C   UNL     1      40.609 -13.403   2.597  1.00  0.00     0.070 A 
HETATM   21  C   UNL     1      41.896 -13.805   2.243  1.00  0.00     0.060 A 
HETATM   22  C   UNL     1      42.121 -15.120   1.831  1.00  0.00     0.036 A 
HETATM   23 CL   UNL     1      43.711 -15.609   1.381  1.00  0.00    -0.084 Cl
HETATM   24  C   UNL     1      41.078 -16.042   1.778  1.00  0.00     0.024 A 
HETATM   25  C   UNL     1      39.794 -15.648   2.145  1.00  0.00     0.004 A 
HETATM   26  C   UNL     1      39.565 -14.334   2.555  1.00  0.00     0.037 A 
ENDBRANCH  19  20
ENDBRANCH   4  19
TORSDOF 3
ENDMDL
MODEL 7
REMARK VINA RESULT:      -7.9      4.927      7.948
REMARK  3 active torsions:
REMARK  status: ('A' for Active; 'I' for Inactive)
REMARK    1  A    between atoms: C_10  and  C_11 
REMARK       I    between atoms: C_11  and  N_12 
REMARK    2  A    between atoms: C_14  and  O_15 
REMARK    3  A    between atoms: O_15  and  C_16 
ROOT
HETATM    1  C   UNL     1      42.508 -14.104   4.329  1.00  0.00     0.255 C 
HETATM    2  N   UNL     1      41.240 -13.660   4.000  1.00  0.00    -0.345 N 
HETATM    3  C   UNL     1      40.299 -14.273   3.064  1.00  0.00     0.158 C 
HETATM    4  C   UNL     1      39.339 -13.145   2.656  1.00  0.00     0.148 C 
HETATM    5  C   UNL     1      39.388 -12.213   3.867  1.00  0.00     0.054 C 
HETATM    6  C   UNL     1      40.844 -12.298   4.305  1.00  0.00     0.129 C 
HETATM    7  O   UNL     1      43.327 -13.409   4.925  1.00  0.00    -0.267 OA
ENDROOT
BRANCH   1   8
HETATM    8  C   UNL     1      42.917 -15.462   3.923  1.00  0.00     0.050 A 
HETATM    9  C   UNL     1      43.177 -15.698   2.574  1.00  0.00     0.136 A 
HETATM   10  N   UNL     1      43.545 -16.890   2.036  1.00  0.00    -0.240 NA
HETATM   11  C   UNL     1      43.661 -17.858   2.966  1.00  0.00     0.155 A 
HETATM   12  N   UNL     1      44.011 -19.157   2.742  1.00  0.00    -0.260 N 
HETATM   13  C   UNL     1      43.462 -17.750   4.334  1.00  0.00     0.038 A 
HETATM   14  N   UNL     1      44.045 -19.913   3.859  1.00  0.00    -0.177 NA
HETATM   15  H   UNL     1      44.233 -19.578   1.850  1.00  0.00     0.191 HD
HETATM   16  C   UNL     1      43.717 -19.055   4.835  1.00  0.00     0.065 A 
HETATM   17  C   UNL     1      43.641 -19.514   6.244  1.00  0.00     0.073 C 
HETATM   18  C   UNL     1      43.090 -16.497   4.848  1.00  0.00     0.036 A 
ENDBRANCH   1   8
BRANCH   4  19
HETATM   19  O   UNL     1      39.877 -12.499   1.498  1.00  0.00    -0.344 OA
BRANCH  19  20
HETATM   20  C   UNL     1      39.233 -12.659   0.304  1.00  0.00     0.070 A 
HETATM   21  C   UNL     1      39.414 -13.707  -0.598  1.00  0.00     0.060 A 
HETATM   22  C   UNL     1      38.685 -13.730  -1.788  1.00  0.00     0.036 A 
HETATM   23 CL   UNL     1      38.922 -15.020  -2.905  1.00  0.00    -0.084 Cl
HETATM   24  C   UNL     1      37.768 -12.724  -2.084  1.00  0.00     0.024 A 
HETATM   25  C   UNL     1      37.573 -11.683  -1.179  1.00  0.00     0.004 A 
HETATM   26  C   UNL     1      38.303 -11.657   0.010  1.00  0.00     0.037 A 
ENDBRANCH  19  20
ENDBRANCH   4  19
TORSDOF 3
ENDMDL
MODEL 8
REMARK VINA RESULT:      -7.9      5.308      7.837
REMARK  3 active torsions:
REMARK  status: ('A' for Active; 'I' for Inactive)
REMARK    1  A    between atoms: C_10  and  C_11 
REMARK       I    between atoms: C_11  and  N_12 
REMARK    2  A    between atoms: C_14  and  O_15 
REMARK    3  A    between atoms: O_15  and  C_16 
ROOT
HETATM    1  C   UNL     1      42.667 -13.194   3.860  1.00  0.00     0.255 C 
HETATM    2  N   UNL     1      41.471 -12.920   3.222  1.00  0.00    -0.345 N 
HETATM    3  C   UNL     1      40.432 -13.872   2.834  1.00  0.00     0.158 C 
HETATM    4  C   UNL     1      39.638 -13.175   1.718  1.00  0.00     0.148 C 
HETATM    5  C   UNL     1      39.849 -11.694   2.036  1.00  0.00     0.054 C 
HETATM    6  C   UNL     1      41.285 -11.652   2.540  1.00  0.00     0.129 C 
HETATM    7  O   UNL     1      43.591 -12.388   3.927  1.00  0.00    -0.267 OA
ENDROOT
BRANCH   1   8
HETATM    8  C   UNL     1      42.864 -14.525   4.464  1.00  0.00     0.050 A 
HETATM    9  C   UNL     1      42.636 -14.670   5.831  1.00  0.00     0.136 A 
HETATM   10  N   UNL     1      42.787 -15.819   6.541  1.00  0.00    -0.240 NA
HETATM   11  C   UNL     1      43.174 -16.853   5.769  1.00  0.00     0.155 A 
HETATM   12  N   UNL     1      43.410 -18.129   6.185  1.00  0.00    -0.260 N 
HETATM   13  C   UNL     1      43.405 -16.850   4.402  1.00  0.00     0.038 A 
HETATM   14  N   UNL     1      43.791 -18.964   5.196  1.00  0.00    -0.177 NA
HETATM   15  H   UNL     1      43.330 -18.482   7.129  1.00  0.00     0.191 HD
HETATM   16  C   UNL     1      43.781 -18.188   4.102  1.00  0.00     0.065 A 
HETATM   17  C   UNL     1      44.153 -18.749   2.780  1.00  0.00     0.073 C 
HETATM   18  C   UNL     1      43.228 -15.644   3.706  1.00  0.00     0.036 A 
ENDBRANCH   1   8
BRANCH   4  19
HETATM   19  O   UNL     1      40.241 -13.513   0.465  1.00  0.00    -0.344 OA
BRANCH  19  20
HETATM   20  C   UNL     1      39.449 -13.563  -0.647  1.00  0.00     0.070 A 
HETATM   21  C   UNL     1      38.559 -12.577  -1.071  1.00  0.00     0.060 A 
HETATM   22  C   UNL     1      37.809 -12.776  -2.231  1.00  0.00     0.036 A 
HETATM   23 CL   UNL     1      36.700 -11.561  -2.745  1.00  0.00    -0.084 Cl
HETATM   24  C   UNL     1      37.943 -13.944  -2.980  1.00  0.00     0.024 A 
HETATM   25  C   UNL     1      38.842 -14.924  -2.567  1.00  0.00     0.004 A 
HETATM   26  C   UNL     1      39.592 -14.729  -1.406  1.00  0.00     0.037 A 
ENDBRANCH  19  20
ENDBRANCH   4  19
TORSDOF 3
ENDMDL
MODEL 9
REMARK VINA RESULT:      -7.8      3.421      4.201
REMARK  3 active torsions:
REMARK  status: ('A' for Active; 'I' for Inactive)
REMARK    1  A    between atoms: C_10  and  C_11 
REMARK       I    between atoms: C_11  and  N_12 
REMARK    2  A    between atoms: C_14  and  O_15 
REMARK    3  A    between atoms: O_15  and  C_16 
ROOT
HETATM    1  C   UNL     1      41.080 -12.322   1.842  1.00  0.00     0.255 C 
HETATM    2  N   UNL     1      40.681 -13.645   1.850  1.00  0.00    -0.345 N 
HETATM    3  C   UNL     1      40.848 -14.619   2.928  1.00  0.00     0.158 C 
HETATM    4  C   UNL     1      40.761 -15.995   2.251  1.00  0.00     0.148 C 
HETATM    5  C   UNL     1      39.899 -15.706   1.021  1.00  0.00     0.054 C 
HETATM    6  C   UNL     1      40.354 -14.314   0.604  1.00  0.00     0.129 C 
HETATM    7  O   UNL     1      41.130 -11.643   0.820  1.00  0.00    -0.267 OA
ENDROOT
BRANCH   1   8
HETATM    8  C   UNL     1      41.496 -11.695   3.111  1.00  0.00     0.050 A 
HETATM    9  C   UNL     1      42.845 -11.392   3.287  1.00  0.00     0.136 A 
HETATM   10  N   UNL     1      43.392 -10.832   4.398  1.00  0.00    -0.240 NA
HETATM   11  C   UNL     1      42.471 -10.564   5.344  1.00  0.00     0.155 A 
HETATM   12  N   UNL     1      42.704 -10.005   6.565  1.00  0.00    -0.260 N 
HETATM   13  C   UNL     1      41.103 -10.786   5.284  1.00  0.00     0.038 A 
HETATM   14  N   UNL     1      41.595  -9.854   7.318  1.00  0.00    -0.177 NA
HETATM   15  H   UNL     1      43.599  -9.713   6.935  1.00  0.00     0.191 HD
HETATM   16  C   UNL     1      40.612 -10.323   6.535  1.00  0.00     0.065 A 
HETATM   17  C   UNL     1      39.209 -10.331   7.015  1.00  0.00     0.073 C 
HETATM   18  C   UNL     1      40.580 -11.359   4.114  1.00  0.00     0.036 A 
ENDBRANCH   1   8
BRANCH   4  19
HETATM   19  O   UNL     1      42.082 -16.385   1.862  1.00  0.00    -0.344 OA
BRANCH  19  20
HETATM   20  C   UNL     1      42.861 -17.043   2.771  1.00  0.00     0.070 A 
HETATM   21  C   UNL     1      43.347 -16.525   3.971  1.00  0.00     0.060 A 
HETATM   22  C   UNL     1      44.142 -17.322   4.796  1.00  0.00     0.036 A 
HETATM   23 CL   UNL     1      44.751 -16.674   6.272  1.00  0.00    -0.084 Cl
HETATM   24  C   UNL     1      44.450 -18.634   4.444  1.00  0.00     0.024 A 
HETATM   25  C   UNL     1      43.954 -19.160   3.253  1.00  0.00     0.004 A 
HETATM   26  C   UNL     1      43.161 -18.365   2.424  1.00  0.00     0.037 A 
ENDBRANCH  19  20
ENDBRANCH   4  19
TORSDOF 3
ENDMDL
MODEL 10
REMARK VINA RESULT:      -7.8      4.705      9.653
REMARK  3 active torsions:
REMARK  status: ('A' for Active; 'I' for Inactive)
REMARK    1  A    between atoms: C_10  and  C_11 
REMARK       I    between atoms: C_11  and  N_12 
REMARK    2  A    between atoms: C_14  and  O_15 
REMARK    3  A    between atoms: O_15  and  C_16 
ROOT
HETATM    1  C   UNL     1      44.428 -11.351   6.509  1.00  0.00     0.255 C 
HETATM    2  N   UNL     1      44.783 -10.863   7.753  1.00  0.00    -0.345 N 
HETATM    3  C   UNL     1      44.010 -10.941   8.992  1.00  0.00     0.158 C 
HETATM    4  C   UNL     1      44.555  -9.814   9.883  1.00  0.00     0.148 C 
HETATM    5  C   UNL     1      45.987  -9.649   9.372  1.00  0.00     0.054 C 
HETATM    6  C   UNL     1      45.844  -9.881   7.874  1.00  0.00     0.129 C 
HETATM    7  O   UNL     1      45.007 -11.031   5.474  1.00  0.00    -0.267 OA
ENDROOT
BRANCH   1   8
HETATM    8  C   UNL     1      43.284 -12.277   6.405  1.00  0.00     0.050 A 
HETATM    9  C   UNL     1      42.038 -11.751   6.073  1.00  0.00     0.136 A 
HETATM   10  N   UNL     1      40.885 -12.461   5.954  1.00  0.00    -0.240 NA
HETATM   11  C   UNL     1      41.069 -13.778   6.175  1.00  0.00     0.155 A 
HETATM   12  N   UNL     1      40.111 -14.747   6.131  1.00  0.00    -0.260 N 
HETATM   13  C   UNL     1      42.254 -14.429   6.481  1.00  0.00     0.038 A 
HETATM   14  N   UNL     1      40.575 -15.985   6.398  1.00  0.00    -0.177 NA
HETATM   15  H   UNL     1      39.129 -14.617   5.928  1.00  0.00     0.191 HD
HETATM   16  C   UNL     1      41.886 -15.796   6.605  1.00  0.00     0.065 A 
HETATM   17  C   UNL     1      42.766 -16.943   6.937  1.00  0.00     0.073 C 
HETATM   18  C   UNL     1      43.422 -13.657   6.586  1.00  0.00     0.036 A 
ENDBRANCH   1   8
BRANCH   4  19
HETATM   19  O   UNL     1      43.787  -8.634   9.626  1.00  0.00    -0.344 OA
BRANCH  19  20
HETATM   20  C   UNL     1      43.301  -7.927  10.690  1.00  0.00     0.070 A 
HETATM   21  C   UNL     1      42.602  -6.723  10.631  1.00  0.00     0.060 A 
HETATM   22  C   UNL     1      42.173  -6.113  11.811  1.00  0.00     0.036 A 
HETATM   23 CL   UNL     1      41.320  -4.618  11.735  1.00  0.00    -0.084 Cl
HETATM   24  C   UNL     1      42.426  -6.697  13.051  1.00  0.00     0.024 A 
HETATM   25  C   UNL     1      43.112  -7.908  13.113  1.00  0.00     0.004 A 
HETATM   26  C   UNL     1      43.544  -8.518  11.934  1.00  0.00     0.037 A 
ENDBRANCH  19  20
ENDBRANCH   4  19
TORSDOF 3
ENDMDL
