MODEL 1
REMARK VINA RESULT:      -7.8      0.000      0.000
REMARK  6 active torsions:
REMARK  status: ('A' for Active; 'I' for Inactive)
REMARK    1  A    between atoms: C_2  and  N_3 
REMARK    2  A    between atoms: C_2  and  C_16 
REMARK    3  A    between atoms: N_3  and  C_6 
REMARK    4  A    between atoms: C_16  and  C_17 
REMARK       I    between atoms: C_17  and  N_18 
REMARK    5  A    between atoms: N_18  and  C_19 
REMARK    6  A    between atoms: C_21  and  O_22 
ROOT
HETATM    1  C   UNL     1      43.524 -12.389   5.646  1.00  0.00     0.040 C 
HETATM    2  C   UNL     1      42.206 -13.122   5.439  1.00  0.00     0.191 C 
ENDROOT
BRANCH   2   3
HETATM    3  N   UNL     1      42.418 -14.377   4.627  1.00  0.00    -0.063 N 
HETATM    4  H   UNL     1      41.881 -14.224   3.747  1.00  0.00     0.278 HD
HETATM    5  H   UNL     1      43.395 -14.425   4.321  1.00  0.00     0.278 HD
BRANCH   3   6
HETATM    6  C   UNL     1      42.001 -15.752   5.110  1.00  0.00     0.221 C 
HETATM    7  C   UNL     1      42.758 -16.882   4.456  1.00  0.00    -0.011 A 
HETATM    8  C   UNL     1      43.465 -17.851   5.186  1.00  0.00     0.009 A 
HETATM    9  C   UNL     1      42.723 -16.995   3.047  1.00  0.00     0.011 A 
HETATM   10  C   UNL     1      44.139 -18.878   4.507  1.00  0.00     0.019 A 
HETATM   11  S   UNL     1      43.533 -17.910   6.963  1.00  0.00    -0.129 SA
HETATM   12  C   UNL     1      44.117 -18.955   3.116  1.00  0.00     0.001 A 
HETATM   13  C   UNL     1      43.403 -18.017   2.385  1.00  0.00     0.001 A 
HETATM   14  C   UNL     1      43.072 -16.220   7.395  1.00  0.00     0.082 C 
HETATM   15  C   UNL     1      41.837 -15.780   6.634  1.00  0.00     0.048 C 
ENDBRANCH   3   6
ENDBRANCH   2   3
BRANCH   2  16
HETATM   16  C   UNL     1      41.205 -12.192   4.715  1.00  0.00     0.135 C 
BRANCH  16  17
HETATM   17  C   UNL     1      39.790 -12.700   4.851  1.00  0.00     0.224 C 
HETATM   18  N   UNL     1      39.105 -13.238   3.811  1.00  0.00    -0.327 N 
HETATM   19  H   UNL     1      38.127 -13.396   4.043  1.00  0.00     0.169 HD
HETATM   20  O   UNL     1      39.243 -12.626   5.961  1.00  0.00    -0.273 OA
BRANCH  18  21
HETATM   21  C   UNL     1      39.462 -13.593   2.493  1.00  0.00     0.037 A 
HETATM   22  C   UNL     1      39.589 -12.701   1.423  1.00  0.00     0.066 A 
HETATM   23  C   UNL     1      39.954 -13.162   0.151  1.00  0.00     0.070 A 
HETATM   24  C   UNL     1      40.194 -14.522  -0.049  1.00  0.00     0.037 A 
HETATM   25  C   UNL     1      40.103 -15.414   1.014  1.00  0.00     0.005 A 
HETATM   26  C   UNL     1      39.749 -14.949   2.280  1.00  0.00     0.029 A 
BRANCH  23  27
HETATM   27  O   UNL     1      40.106 -12.395  -0.969  1.00  0.00    -0.356 OA
HETATM   28  C   UNL     1      40.370 -13.060  -2.197  1.00  0.00     0.210 C 
ENDBRANCH  23  27
ENDBRANCH  18  21
ENDBRANCH  16  17
ENDBRANCH   2  16
TORSDOF 6
ENDMDL
MODEL 2
REMARK VINA RESULT:      -7.7      2.794      5.721
REMARK  6 active torsions:
REMARK  status: ('A' for Active; 'I' for Inactive)
REMARK    1  A    between atoms: C_2  and  N_3 
REMARK    2  A    between atoms: C_2  and  C_16 
REMARK    3  A    between atoms: N_3  and  C_6 
REMARK    4  A    between atoms: C_16  and  C_17 
REMARK       I    between atoms: C_17  and  N_18 
REMARK    5  A    between atoms: N_18  and  C_19 
REMARK    6  A    between atoms: C_21  and  O_22 
ROOT
HETATM    1  C   UNL     1      43.193 -13.582   2.772  1.00  0.00     0.040 C 
HETATM    2  C   UNL     1      42.580 -13.556   4.165  1.00  0.00     0.191 C 
ENDROOT
BRANCH   2   3
HETATM    3  N   UNL     1      41.350 -14.429   4.221  1.00  0.00    -0.063 N 
HETATM    4  H   UNL     1      40.639 -13.864   4.734  1.00  0.00     0.278 HD
HETATM    5  H   UNL     1      40.959 -14.530   3.279  1.00  0.00     0.278 HD
BRANCH   3   6
HETATM    6  C   UNL     1      41.332 -15.787   4.893  1.00  0.00     0.221 C 
HETATM    7  C   UNL     1      42.321 -16.768   4.312  1.00  0.00    -0.011 A 
HETATM    8  C   UNL     1      43.293 -17.421   5.085  1.00  0.00     0.009 A 
HETATM    9  C   UNL     1      42.241 -17.073   2.934  1.00  0.00     0.011 A 
HETATM   10  C   UNL     1      44.175 -18.327   4.474  1.00  0.00     0.019 A 
HETATM   11  S   UNL     1      43.469 -17.223   6.845  1.00  0.00    -0.129 SA
HETATM   12  C   UNL     1      44.099 -18.593   3.109  1.00  0.00     0.001 A 
HETATM   13  C   UNL     1      43.128 -17.971   2.338  1.00  0.00     0.001 A 
HETATM   14  C   UNL     1      42.609 -15.661   7.117  1.00  0.00     0.082 C 
HETATM   15  C   UNL     1      41.263 -15.652   6.419  1.00  0.00     0.048 C 
ENDBRANCH   3   6
ENDBRANCH   2   3
BRANCH   2  16
HETATM   16  C   UNL     1      42.208 -12.101   4.539  1.00  0.00     0.135 C 
BRANCH  16  17
HETATM   17  C   UNL     1      41.511 -12.042   5.877  1.00  0.00     0.224 C 
HETATM   18  N   UNL     1      42.124 -11.590   6.999  1.00  0.00    -0.327 N 
HETATM   19  H   UNL     1      41.559 -11.751   7.830  1.00  0.00     0.169 HD
HETATM   20  O   UNL     1      40.331 -12.415   5.941  1.00  0.00    -0.273 OA
BRANCH  18  21
HETATM   21  C   UNL     1      43.371 -10.977   7.245  1.00  0.00     0.037 A 
HETATM   22  C   UNL     1      43.550  -9.690   7.765  1.00  0.00     0.066 A 
HETATM   23  C   UNL     1      44.838  -9.180   7.972  1.00  0.00     0.070 A 
HETATM   24  C   UNL     1      45.950  -9.961   7.660  1.00  0.00     0.037 A 
HETATM   25  C   UNL     1      45.786 -11.253   7.174  1.00  0.00     0.005 A 
HETATM   26  C   UNL     1      44.502 -11.761   6.978  1.00  0.00     0.029 A 
BRANCH  23  27
HETATM   27  O   UNL     1      45.142  -7.942   8.467  1.00  0.00    -0.356 OA
HETATM   28  C   UNL     1      44.070  -7.135   8.936  1.00  0.00     0.210 C 
ENDBRANCH  23  27
ENDBRANCH  18  21
ENDBRANCH  16  17
ENDBRANCH   2  16
TORSDOF 6
ENDMDL
MODEL 3
REMARK VINA RESULT:      -7.6      2.083      3.208
REMARK  6 active torsions:
REMARK  status: ('A' for Active; 'I' for Inactive)
REMARK    1  A    between atoms: C_2  and  N_3 
REMARK    2  A    between atoms: C_2  and  C_16 
REMARK    3  A    between atoms: N_3  and  C_6 
REMARK    4  A    between atoms: C_16  and  C_17 
REMARK       I    between atoms: C_17  and  N_18 
REMARK    5  A    between atoms: N_18  and  C_19 
REMARK    6  A    between atoms: C_21  and  O_22 
ROOT
HETATM    1  C   UNL     1      39.612 -13.021   2.878  1.00  0.00     0.040 C 
HETATM    2  C   UNL     1      39.791 -14.528   3.009  1.00  0.00     0.191 C 
ENDROOT
BRANCH   2   3
HETATM    3  N   UNL     1      40.977 -14.849   3.885  1.00  0.00    -0.063 N 
HETATM    4  H   UNL     1      41.796 -14.857   3.241  1.00  0.00     0.278 HD
HETATM    5  H   UNL     1      41.160 -14.061   4.515  1.00  0.00     0.278 HD
BRANCH   3   6
HETATM    6  C   UNL     1      41.091 -16.132   4.683  1.00  0.00     0.221 C 
HETATM    7  C   UNL     1      42.257 -17.000   4.278  1.00  0.00    -0.011 A 
HETATM    8  C   UNL     1      43.239 -17.432   5.185  1.00  0.00     0.009 A 
HETATM    9  C   UNL     1      42.348 -17.430   2.934  1.00  0.00     0.011 A 
HETATM   10  C   UNL     1      44.291 -18.244   4.735  1.00  0.00     0.019 A 
HETATM   11  S   UNL     1      43.224 -17.061   6.925  1.00  0.00    -0.129 SA
HETATM   12  C   UNL     1      44.379 -18.633   3.400  1.00  0.00     0.001 A 
HETATM   13  C   UNL     1      43.403 -18.232   2.499  1.00  0.00     0.001 A 
HETATM   14  C   UNL     1      42.130 -15.628   6.976  1.00  0.00     0.082 C 
HETATM   15  C   UNL     1      40.865 -15.879   6.178  1.00  0.00     0.048 C 
ENDBRANCH   3   6
ENDBRANCH   2   3
BRANCH   2  16
HETATM   16  C   UNL     1      39.991 -15.149   1.607  1.00  0.00     0.135 C 
BRANCH  16  17
HETATM   17  C   UNL     1      41.087 -14.440   0.847  1.00  0.00     0.224 C 
HETATM   18  N   UNL     1      40.878 -13.858  -0.360  1.00  0.00    -0.327 N 
HETATM   19  H   UNL     1      41.749 -13.554  -0.789  1.00  0.00     0.169 HD
HETATM   20  O   UNL     1      42.215 -14.386   1.357  1.00  0.00    -0.273 OA
BRANCH  18  21
HETATM   21  C   UNL     1      39.724 -13.617  -1.135  1.00  0.00     0.037 A 
HETATM   22  C   UNL     1      38.901 -12.489  -1.030  1.00  0.00     0.066 A 
HETATM   23  C   UNL     1      37.777 -12.350  -1.854  1.00  0.00     0.070 A 
HETATM   24  C   UNL     1      37.477 -13.341  -2.789  1.00  0.00     0.037 A 
HETATM   25  C   UNL     1      38.305 -14.450  -2.926  1.00  0.00     0.005 A 
HETATM   26  C   UNL     1      39.428 -14.580  -2.110  1.00  0.00     0.029 A 
BRANCH  23  27
HETATM   27  O   UNL     1      36.898 -11.303  -1.844  1.00  0.00    -0.356 OA
HETATM   28  C   UNL     1      36.914 -10.415  -2.953  1.00  0.00     0.210 C 
ENDBRANCH  23  27
ENDBRANCH  18  21
ENDBRANCH  16  17
ENDBRANCH   2  16
TORSDOF 6
ENDMDL
MODEL 4
REMARK VINA RESULT:      -7.3      3.410      7.305
REMARK  6 active torsions:
REMARK  status: ('A' for Active; 'I' for Inactive)
REMARK    1  A    between atoms: C_2  and  N_3 
REMARK    2  A    between atoms: C_2  and  C_16 
REMARK    3  A    between atoms: N_3  and  C_6 
REMARK    4  A    between atoms: C_16  and  C_17 
REMARK       I    between atoms: C_17  and  N_18 
REMARK    5  A    between atoms: N_18  and  C_19 
REMARK    6  A    between atoms: C_21  and  O_22 
ROOT
HETATM    1  C   UNL     1      41.632 -15.639   1.387  1.00  0.00     0.040 C 
HETATM    2  C   UNL     1      40.255 -15.680   2.037  1.00  0.00     0.191 C 
ENDROOT
BRANCH   2   3
HETATM    3  N   UNL     1      39.456 -14.454   1.669  1.00  0.00    -0.063 N 
HETATM    4  H   UNL     1      38.551 -14.819   1.305  1.00  0.00     0.278 HD
HETATM    5  H   UNL     1      39.198 -13.945   2.521  1.00  0.00     0.278 HD
BRANCH   3   6
HETATM    6  C   UNL     1      39.919 -13.447   0.635  1.00  0.00     0.221 C 
HETATM    7  C   UNL     1      39.256 -13.607  -0.711  1.00  0.00    -0.011 A 
HETATM    8  C   UNL     1      38.564 -12.566  -1.350  1.00  0.00     0.009 A 
HETATM    9  C   UNL     1      39.366 -14.849  -1.377  1.00  0.00     0.011 A 
HETATM   10  C   UNL     1      37.978 -12.788  -2.606  1.00  0.00     0.019 A 
HETATM   11  S   UNL     1      38.411 -10.918  -0.695  1.00  0.00    -0.129 SA
HETATM   12  C   UNL     1      38.074 -14.029  -3.234  1.00  0.00     0.001 A 
HETATM   13  C   UNL     1      38.773 -15.058  -2.623  1.00  0.00     0.001 A 
HETATM   14  C   UNL     1      38.761 -11.194   1.053  1.00  0.00     0.082 C 
HETATM   15  C   UNL     1      40.008 -12.038   1.232  1.00  0.00     0.048 C 
ENDBRANCH   3   6
ENDBRANCH   2   3
BRANCH   2  16
HETATM   16  C   UNL     1      40.412 -15.763   3.574  1.00  0.00     0.135 C 
BRANCH  16  17
HETATM   17  C   UNL     1      41.604 -14.965   4.046  1.00  0.00     0.224 C 
HETATM   18  N   UNL     1      42.720 -15.550   4.548  1.00  0.00    -0.327 N 
HETATM   19  H   UNL     1      43.359 -14.865   4.945  1.00  0.00     0.169 HD
HETATM   20  O   UNL     1      41.554 -13.730   3.959  1.00  0.00    -0.273 OA
BRANCH  18  21
HETATM   21  C   UNL     1      43.152 -16.889   4.652  1.00  0.00     0.037 A 
HETATM   22  C   UNL     1      43.556 -17.692   3.579  1.00  0.00     0.066 A 
HETATM   23  C   UNL     1      43.970 -19.012   3.797  1.00  0.00     0.070 A 
HETATM   24  C   UNL     1      43.983 -19.529   5.093  1.00  0.00     0.037 A 
HETATM   25  C   UNL     1      43.615 -18.731   6.170  1.00  0.00     0.005 A 
HETATM   26  C   UNL     1      43.212 -17.415   5.950  1.00  0.00     0.029 A 
BRANCH  23  27
HETATM   27  O   UNL     1      44.381 -19.894   2.837  1.00  0.00    -0.356 OA
HETATM   28  C   UNL     1      43.419 -20.339   1.891  1.00  0.00     0.210 C 
ENDBRANCH  23  27
ENDBRANCH  18  21
ENDBRANCH  16  17
ENDBRANCH   2  16
TORSDOF 6
ENDMDL
MODEL 5
REMARK VINA RESULT:      -7.3      1.614      1.958
REMARK  6 active torsions:
REMARK  status: ('A' for Active; 'I' for Inactive)
REMARK    1  A    between atoms: C_2  and  N_3 
REMARK    2  A    between atoms: C_2  and  C_16 
REMARK    3  A    between atoms: N_3  and  C_6 
REMARK    4  A    between atoms: C_16  and  C_17 
REMARK       I    between atoms: C_17  and  N_18 
REMARK    5  A    between atoms: N_18  and  C_19 
REMARK    6  A    between atoms: C_21  and  O_22 
ROOT
HETATM    1  C   UNL     1      40.103 -12.425   5.958  1.00  0.00     0.040 C 
HETATM    2  C   UNL     1      40.168 -13.316   4.725  1.00  0.00     0.191 C 
ENDROOT
BRANCH   2   3
HETATM    3  N   UNL     1      41.372 -14.224   4.787  1.00  0.00    -0.063 N 
HETATM    4  H   UNL     1      41.737 -14.257   3.811  1.00  0.00     0.278 HD
HETATM    5  H   UNL     1      42.118 -13.766   5.320  1.00  0.00     0.278 HD
BRANCH   3   6
HETATM    6  C   UNL     1      41.291 -15.672   5.227  1.00  0.00     0.221 C 
HETATM    7  C   UNL     1      42.199 -16.595   4.451  1.00  0.00    -0.011 A 
HETATM    8  C   UNL     1      43.154 -17.421   5.066  1.00  0.00     0.009 A 
HETATM    9  C   UNL     1      42.057 -16.662   3.046  1.00  0.00     0.011 A 
HETATM   10  C   UNL     1      43.958 -18.260   4.279  1.00  0.00     0.019 A 
HETATM   11  S   UNL     1      43.397 -17.528   6.826  1.00  0.00    -0.129 SA
HETATM   12  C   UNL     1      43.823 -18.290   2.892  1.00  0.00     0.001 A 
HETATM   13  C   UNL     1      42.867 -17.496   2.275  1.00  0.00     0.001 A 
HETATM   14  C   UNL     1      42.644 -15.988   7.386  1.00  0.00     0.082 C 
HETATM   15  C   UNL     1      41.279 -15.788   6.755  1.00  0.00     0.048 C 
ENDBRANCH   3   6
ENDBRANCH   2   3
BRANCH   2  16
HETATM   16  C   UNL     1      40.238 -12.436   3.455  1.00  0.00     0.135 C 
BRANCH  16  17
HETATM   17  C   UNL     1      41.628 -12.438   2.865  1.00  0.00     0.224 C 
HETATM   18  N   UNL     1      41.885 -12.864   1.603  1.00  0.00    -0.327 N 
HETATM   19  H   UNL     1      42.884 -12.930   1.422  1.00  0.00     0.169 HD
HETATM   20  O   UNL     1      42.564 -12.026   3.566  1.00  0.00    -0.273 OA
BRANCH  18  21
HETATM   21  C   UNL     1      41.063 -13.249   0.523  1.00  0.00     0.037 A 
HETATM   22  C   UNL     1      40.781 -12.461  -0.599  1.00  0.00     0.066 A 
HETATM   23  C   UNL     1      39.951 -12.945  -1.618  1.00  0.00     0.070 A 
HETATM   24  C   UNL     1      39.404 -14.224  -1.515  1.00  0.00     0.037 A 
HETATM   25  C   UNL     1      39.703 -15.030  -0.422  1.00  0.00     0.005 A 
HETATM   26  C   UNL     1      40.537 -14.547   0.585  1.00  0.00     0.029 A 
BRANCH  23  27
HETATM   27  O   UNL     1      39.599 -12.273  -2.755  1.00  0.00    -0.356 OA
HETATM   28  C   UNL     1      38.414 -11.489  -2.720  1.00  0.00     0.210 C 
ENDBRANCH  23  27
ENDBRANCH  18  21
ENDBRANCH  16  17
ENDBRANCH   2  16
TORSDOF 6
ENDMDL
MODEL 6
REMARK VINA RESULT:      -7.1      1.825      2.435
REMARK  6 active torsions:
REMARK  status: ('A' for Active; 'I' for Inactive)
REMARK    1  A    between atoms: C_2  and  N_3 
REMARK    2  A    between atoms: C_2  and  C_16 
REMARK    3  A    between atoms: N_3  and  C_6 
REMARK    4  A    between atoms: C_16  and  C_17 
REMARK       I    between atoms: C_17  and  N_18 
REMARK    5  A    between atoms: N_18  and  C_19 
REMARK    6  A    between atoms: C_21  and  O_22 
ROOT
HETATM    1  C   UNL     1      43.237 -13.964   2.312  1.00  0.00     0.040 C 
HETATM    2  C   UNL     1      41.886 -13.731   2.975  1.00  0.00     0.191 C 
ENDROOT
BRANCH   2   3
HETATM    3  N   UNL     1      41.022 -14.964   2.868  1.00  0.00    -0.063 N 
HETATM    4  H   UNL     1      40.043 -14.607   2.844  1.00  0.00     0.278 HD
HETATM    5  H   UNL     1      41.155 -15.396   1.947  1.00  0.00     0.278 HD
BRANCH   3   6
HETATM    6  C   UNL     1      41.016 -16.061   3.913  1.00  0.00     0.221 C 
HETATM    7  C   UNL     1      42.213 -16.978   3.840  1.00  0.00    -0.011 A 
HETATM    8  C   UNL     1      43.065 -17.209   4.933  1.00  0.00     0.009 A 
HETATM    9  C   UNL     1      42.467 -17.666   2.632  1.00  0.00     0.011 A 
HETATM   10  C   UNL     1      44.155 -18.081   4.791  1.00  0.00     0.019 A 
HETATM   11  S   UNL     1      42.834 -16.498   6.548  1.00  0.00    -0.129 SA
HETATM   12  C   UNL     1      44.407 -18.728   3.583  1.00  0.00     0.001 A 
HETATM   13  C   UNL     1      43.559 -18.525   2.504  1.00  0.00     0.001 A 
HETATM   14  C   UNL     1      41.762 -15.097   6.172  1.00  0.00     0.082 C 
HETATM   15  C   UNL     1      40.605 -15.518   5.286  1.00  0.00     0.048 C 
ENDBRANCH   3   6
ENDBRANCH   2   3
BRANCH   2  16
HETATM   16  C   UNL     1      41.178 -12.534   2.299  1.00  0.00     0.135 C 
BRANCH  16  17
HETATM   17  C   UNL     1      39.685 -12.748   2.231  1.00  0.00     0.224 C 
HETATM   18  N   UNL     1      39.006 -12.786   1.058  1.00  0.00    -0.327 N 
HETATM   19  H   UNL     1      37.999 -12.796   1.204  1.00  0.00     0.169 HD
HETATM   20  O   UNL     1      39.066 -12.903   3.294  1.00  0.00    -0.273 OA
BRANCH  18  21
HETATM   21  C   UNL     1      39.405 -12.789  -0.295  1.00  0.00     0.037 A 
HETATM   22  C   UNL     1      39.604 -11.648  -1.080  1.00  0.00     0.066 A 
HETATM   23  C   UNL     1      40.005 -11.766  -2.417  1.00  0.00     0.070 A 
HETATM   24  C   UNL     1      40.209 -13.031  -2.969  1.00  0.00     0.037 A 
HETATM   25  C   UNL     1      40.045 -14.171  -2.190  1.00  0.00     0.005 A 
HETATM   26  C   UNL     1      39.656 -14.048  -0.857  1.00  0.00     0.029 A 
BRANCH  23  27
HETATM   27  O   UNL     1      40.227 -10.733  -3.284  1.00  0.00    -0.356 OA
HETATM   28  C   UNL     1      40.908  -9.588  -2.789  1.00  0.00     0.210 C 
ENDBRANCH  23  27
ENDBRANCH  18  21
ENDBRANCH  16  17
ENDBRANCH   2  16
TORSDOF 6
ENDMDL
MODEL 7
REMARK VINA RESULT:      -7.0      4.382      7.372
REMARK  6 active torsions:
REMARK  status: ('A' for Active; 'I' for Inactive)
REMARK    1  A    between atoms: C_2  and  N_3 
REMARK    2  A    between atoms: C_2  and  C_16 
REMARK    3  A    between atoms: N_3  and  C_6 
REMARK    4  A    between atoms: C_16  and  C_17 
REMARK       I    between atoms: C_17  and  N_18 
REMARK    5  A    between atoms: N_18  and  C_19 
REMARK    6  A    between atoms: C_21  and  O_22 
ROOT
HETATM    1  C   UNL     1      41.821 -12.040   5.239  1.00  0.00     0.040 C 
HETATM    2  C   UNL     1      43.276 -12.074   5.687  1.00  0.00     0.191 C 
ENDROOT
BRANCH   2   3
HETATM    3  N   UNL     1      43.737 -13.497   5.888  1.00  0.00    -0.063 N 
HETATM    4  H   UNL     1      44.435 -13.665   5.133  1.00  0.00     0.278 HD
HETATM    5  H   UNL     1      44.283 -13.561   6.754  1.00  0.00     0.278 HD
BRANCH   3   6
HETATM    6  C   UNL     1      42.798 -14.685   5.828  1.00  0.00     0.221 C 
HETATM    7  C   UNL     1      43.018 -15.576   4.630  1.00  0.00    -0.011 A 
HETATM    8  C   UNL     1      43.273 -16.953   4.739  1.00  0.00     0.009 A 
HETATM    9  C   UNL     1      42.927 -15.009   3.338  1.00  0.00     0.011 A 
HETATM   10  C   UNL     1      43.461 -17.719   3.578  1.00  0.00     0.019 A 
HETATM   11  S   UNL     1      43.328 -17.840   6.280  1.00  0.00    -0.129 SA
HETATM   12  C   UNL     1      43.396 -17.136   2.313  1.00  0.00     0.001 A 
HETATM   13  C   UNL     1      43.122 -15.782   2.192  1.00  0.00     0.001 A 
HETATM   14  C   UNL     1      43.605 -16.500   7.455  1.00  0.00     0.082 C 
HETATM   15  C   UNL     1      42.651 -15.348   7.202  1.00  0.00     0.048 C 
ENDBRANCH   3   6
ENDBRANCH   2   3
BRANCH   2  16
HETATM   16  C   UNL     1      43.431 -11.281   7.006  1.00  0.00     0.135 C 
BRANCH  16  17
HETATM   17  C   UNL     1      44.873 -10.912   7.256  1.00  0.00     0.224 C 
HETATM   18  N   UNL     1      45.236  -9.940   8.130  1.00  0.00    -0.327 N 
HETATM   19  H   UNL     1      46.229  -9.729   8.069  1.00  0.00     0.169 HD
HETATM   20  O   UNL     1      45.753 -11.532   6.641  1.00  0.00    -0.273 OA
BRANCH  18  21
HETATM   21  C   UNL     1      44.525  -9.163   9.068  1.00  0.00     0.037 A 
HETATM   22  C   UNL     1      43.842  -7.976   8.781  1.00  0.00     0.066 A 
HETATM   23  C   UNL     1      43.164  -7.283   9.792  1.00  0.00     0.070 A 
HETATM   24  C   UNL     1      43.167  -7.783  11.095  1.00  0.00     0.037 A 
HETATM   25  C   UNL     1      43.813  -8.979  11.386  1.00  0.00     0.005 A 
HETATM   26  C   UNL     1      44.480  -9.669  10.374  1.00  0.00     0.029 A 
BRANCH  23  27
HETATM   27  O   UNL     1      42.468  -6.117   9.640  1.00  0.00    -0.356 OA
HETATM   28  C   UNL     1      42.500  -5.183  10.710  1.00  0.00     0.210 C 
ENDBRANCH  23  27
ENDBRANCH  18  21
ENDBRANCH  16  17
ENDBRANCH   2  16
TORSDOF 6
ENDMDL
MODEL 8
REMARK VINA RESULT:      -6.9      2.769      5.909
REMARK  6 active torsions:
REMARK  status: ('A' for Active; 'I' for Inactive)
REMARK    1  A    between atoms: C_2  and  N_3 
REMARK    2  A    between atoms: C_2  and  C_16 
REMARK    3  A    between atoms: N_3  and  C_6 
REMARK    4  A    between atoms: C_16  and  C_17 
REMARK       I    between atoms: C_17  and  N_18 
REMARK    5  A    between atoms: N_18  and  C_19 
REMARK    6  A    between atoms: C_21  and  O_22 
ROOT
HETATM    1  C   UNL     1      40.238 -15.585   6.424  1.00  0.00     0.040 C 
HETATM    2  C   UNL     1      41.016 -14.525   5.656  1.00  0.00     0.191 C 
ENDROOT
BRANCH   2   3
HETATM    3  N   UNL     1      42.492 -14.838   5.666  1.00  0.00    -0.063 N 
HETATM    4  H   UNL     1      42.938 -14.027   6.147  1.00  0.00     0.278 HD
HETATM    5  H   UNL     1      42.670 -15.630   6.291  1.00  0.00     0.278 HD
BRANCH   3   6
HETATM    6  C   UNL     1      43.302 -15.038   4.400  1.00  0.00     0.221 C 
HETATM    7  C   UNL     1      43.471 -16.485   4.007  1.00  0.00    -0.011 A 
HETATM    8  C   UNL     1      43.097 -16.983   2.748  1.00  0.00     0.009 A 
HETATM    9  C   UNL     1      44.066 -17.373   4.932  1.00  0.00     0.011 A 
HETATM   10  C   UNL     1      43.292 -18.341   2.452  1.00  0.00     0.019 A 
HETATM   11  S   UNL     1      42.422 -15.984   1.439  1.00  0.00    -0.129 SA
HETATM   12  C   UNL     1      43.853 -19.207   3.388  1.00  0.00     0.001 A 
HETATM   13  C   UNL     1      44.247 -18.723   4.627  1.00  0.00     0.001 A 
HETATM   14  C   UNL     1      41.832 -14.546   2.354  1.00  0.00     0.082 C 
HETATM   15  C   UNL     1      42.891 -14.038   3.313  1.00  0.00     0.048 C 
ENDBRANCH   3   6
ENDBRANCH   2   3
BRANCH   2  16
HETATM   16  C   UNL     1      40.769 -13.138   6.294  1.00  0.00     0.135 C 
BRANCH  16  17
HETATM   17  C   UNL     1      40.917 -12.033   5.275  1.00  0.00     0.224 C 
HETATM   18  N   UNL     1      41.901 -11.102   5.347  1.00  0.00    -0.327 N 
HETATM   19  H   UNL     1      41.767 -10.358   4.667  1.00  0.00     0.169 HD
HETATM   20  O   UNL     1      40.108 -11.988   4.337  1.00  0.00    -0.273 OA
BRANCH  18  21
HETATM   21  C   UNL     1      43.034 -10.949   6.173  1.00  0.00     0.037 A 
HETATM   22  C   UNL     1      43.074 -10.208   7.359  1.00  0.00     0.066 A 
HETATM   23  C   UNL     1      44.256 -10.125   8.106  1.00  0.00     0.070 A 
HETATM   24  C   UNL     1      45.401 -10.788   7.665  1.00  0.00     0.037 A 
HETATM   25  C   UNL     1      45.366 -11.554   6.505  1.00  0.00     0.005 A 
HETATM   26  C   UNL     1      44.184 -11.641   5.770  1.00  0.00     0.029 A 
BRANCH  23  27
HETATM   27  O   UNL     1      44.423  -9.433   9.273  1.00  0.00    -0.356 OA
HETATM   28  C   UNL     1      45.013 -10.117  10.370  1.00  0.00     0.210 C 
ENDBRANCH  23  27
ENDBRANCH  18  21
ENDBRANCH  16  17
ENDBRANCH   2  16
TORSDOF 6
ENDMDL
MODEL 9
REMARK VINA RESULT:      -6.8      3.097      6.138
REMARK  6 active torsions:
REMARK  status: ('A' for Active; 'I' for Inactive)
REMARK    1  A    between atoms: C_2  and  N_3 
REMARK    2  A    between atoms: C_2  and  C_16 
REMARK    3  A    between atoms: N_3  and  C_6 
REMARK    4  A    between atoms: C_16  and  C_17 
REMARK       I    between atoms: C_17  and  N_18 
REMARK    5  A    between atoms: N_18  and  C_19 
REMARK    6  A    between atoms: C_21  and  O_22 
ROOT
HETATM    1  C   UNL     1      39.492 -12.955   5.996  1.00  0.00     0.040 C 
HETATM    2  C   UNL     1      40.738 -13.411   5.248  1.00  0.00     0.191 C 
ENDROOT
BRANCH   2   3
HETATM    3  N   UNL     1      40.450 -13.558   3.774  1.00  0.00    -0.063 N 
HETATM    4  H   UNL     1      40.329 -14.582   3.623  1.00  0.00     0.278 HD
HETATM    5  H   UNL     1      39.527 -13.163   3.565  1.00  0.00     0.278 HD
BRANCH   3   6
HETATM    6  C   UNL     1      41.415 -13.111   2.695  1.00  0.00     0.221 C 
HETATM    7  C   UNL     1      40.857 -13.213   1.297  1.00  0.00    -0.011 A 
HETATM    8  C   UNL     1      40.805 -12.121   0.414  1.00  0.00     0.009 A 
HETATM    9  C   UNL     1      40.400 -14.470   0.839  1.00  0.00     0.011 A 
HETATM   10  C   UNL     1      40.277 -12.295  -0.875  1.00  0.00     0.019 A 
HETATM   11  S   UNL     1      41.422 -10.497   0.797  1.00  0.00    -0.129 SA
HETATM   12  C   UNL     1      39.805 -13.536  -1.297  1.00  0.00     0.001 A 
HETATM   13  C   UNL     1      39.872 -14.626  -0.442  1.00  0.00     0.001 A 
HETATM   14  C   UNL     1      41.467 -10.546   2.599  1.00  0.00     0.082 C 
HETATM   15  C   UNL     1      42.133 -11.816   3.093  1.00  0.00     0.048 C 
ENDBRANCH   3   6
ENDBRANCH   2   3
BRANCH   2  16
HETATM   16  C   UNL     1      41.223 -14.761   5.826  1.00  0.00     0.135 C 
BRANCH  16  17
HETATM   17  C   UNL     1      42.695 -14.716   6.158  1.00  0.00     0.224 C 
HETATM   18  N   UNL     1      43.607 -15.507   5.540  1.00  0.00    -0.327 N 
HETATM   19  H   UNL     1      44.521 -15.448   5.982  1.00  0.00     0.169 HD
HETATM   20  O   UNL     1      43.077 -13.917   7.025  1.00  0.00    -0.273 OA
BRANCH  18  21
HETATM   21  C   UNL     1      43.538 -16.395   4.446  1.00  0.00     0.037 A 
HETATM   22  C   UNL     1      43.677 -17.786   4.524  1.00  0.00     0.066 A 
HETATM   23  C   UNL     1      43.588 -18.576   3.371  1.00  0.00     0.070 A 
HETATM   24  C   UNL     1      43.357 -17.972   2.135  1.00  0.00     0.037 A 
HETATM   25  C   UNL     1      43.184 -16.595   2.048  1.00  0.00     0.005 A 
HETATM   26  C   UNL     1      43.264 -15.814   3.200  1.00  0.00     0.029 A 
BRANCH  23  27
HETATM   27  O   UNL     1      43.711 -19.936   3.317  1.00  0.00    -0.356 OA
HETATM   28  C   UNL     1      43.803 -20.542   2.035  1.00  0.00     0.210 C 
ENDBRANCH  23  27
ENDBRANCH  18  21
ENDBRANCH  16  17
ENDBRANCH   2  16
TORSDOF 6
ENDMDL
MODEL 10
REMARK VINA RESULT:      -6.7      2.756      6.077
REMARK  6 active torsions:
REMARK  status: ('A' for Active; 'I' for Inactive)
REMARK    1  A    between atoms: C_2  and  N_3 
REMARK    2  A    between atoms: C_2  and  C_16 
REMARK    3  A    between atoms: N_3  and  C_6 
REMARK    4  A    between atoms: C_16  and  C_17 
REMARK       I    between atoms: C_17  and  N_18 
REMARK    5  A    between atoms: N_18  and  C_19 
REMARK    6  A    between atoms: C_21  and  O_22 
ROOT
HETATM    1  C   UNL     1      39.692 -12.184   4.344  1.00  0.00     0.040 C 
HETATM    2  C   UNL     1      40.682 -13.300   4.648  1.00  0.00     0.191 C 
ENDROOT
BRANCH   2   3
HETATM    3  N   UNL     1      40.009 -14.416   5.410  1.00  0.00    -0.063 N 
HETATM    4  H   UNL     1      39.953 -14.076   6.394  1.00  0.00     0.278 HD
HETATM    5  H   UNL     1      39.031 -14.491   5.113  1.00  0.00     0.278 HD
BRANCH   3   6
HETATM    6  C   UNL     1      40.586 -15.814   5.508  1.00  0.00     0.221 C 
HETATM    7  C   UNL     1      41.469 -16.192   4.344  1.00  0.00    -0.011 A 
HETATM    8  C   UNL     1      42.794 -16.628   4.501  1.00  0.00     0.009 A 
HETATM    9  C   UNL     1      40.928 -16.142   3.039  1.00  0.00     0.011 A 
HETATM   10  C   UNL     1      43.553 -16.970   3.370  1.00  0.00     0.019 A 
HETATM   11  S   UNL     1      43.597 -16.837   6.076  1.00  0.00    -0.129 SA
HETATM   12  C   UNL     1      43.010 -16.886   2.089  1.00  0.00     0.001 A 
HETATM   13  C   UNL     1      41.695 -16.478   1.923  1.00  0.00     0.001 A 
HETATM   14  C   UNL     1      42.565 -15.813   7.142  1.00  0.00     0.082 C 
HETATM   15  C   UNL     1      41.094 -16.107   6.924  1.00  0.00     0.048 C 
ENDBRANCH   3   6
ENDBRANCH   2   3
BRANCH   2  16
HETATM   16  C   UNL     1      41.861 -12.736   5.476  1.00  0.00     0.135 C 
BRANCH  16  17
HETATM   17  C   UNL     1      43.062 -12.467   4.603  1.00  0.00     0.224 C 
HETATM   18  N   UNL     1      44.104 -11.699   5.011  1.00  0.00    -0.327 N 
HETATM   19  H   UNL     1      44.754 -11.509   4.252  1.00  0.00     0.169 HD
HETATM   20  O   UNL     1      43.094 -12.977   3.474  1.00  0.00    -0.273 OA
BRANCH  18  21
HETATM   21  C   UNL     1      44.446 -11.103   6.243  1.00  0.00     0.037 A 
HETATM   22  C   UNL     1      43.546 -10.486   7.120  1.00  0.00     0.066 A 
HETATM   23  C   UNL     1      43.995  -9.928   8.323  1.00  0.00     0.070 A 
HETATM   24  C   UNL     1      45.349  -9.989   8.651  1.00  0.00     0.037 A 
HETATM   25  C   UNL     1      46.248 -10.628   7.805  1.00  0.00     0.005 A 
HETATM   26  C   UNL     1      45.795 -11.191   6.612  1.00  0.00     0.029 A 
BRANCH  23  27
HETATM   27  O   UNL     1      43.219  -9.297   9.255  1.00  0.00    -0.356 OA
HETATM   28  C   UNL     1      43.849  -8.853  10.449  1.00  0.00     0.210 C 
ENDBRANCH  23  27
ENDBRANCH  18  21
ENDBRANCH  16  17
ENDBRANCH   2  16
TORSDOF 6
ENDMDL
