MODEL 1
REMARK VINA RESULT:      -7.9      0.000      0.000
REMARK  3 active torsions:
REMARK  status: ('A' for Active; 'I' for Inactive)
REMARK    1  A    between atoms: C_11  and  N_12 
REMARK       I    between atoms: N_12  and  C_13 
REMARK       I    between atoms: C_13  and  N_14 
REMARK    2  A    between atoms: N_14  and  C_15 
REMARK    3  A    between atoms: C_20  and  O_21 
ROOT
HETATM    1  N   UNL     1      40.930 -13.441  -0.154  1.00  0.00    -0.338 N 
HETATM    2  C   UNL     1      41.030 -14.232   0.981  1.00  0.00     0.321 C 
HETATM    3  N   UNL     1      42.261 -14.840   1.057  1.00  0.00    -0.306 N 
HETATM    4  O   UNL     1      40.106 -14.368   1.768  1.00  0.00    -0.247 OA
HETATM    5  H   UNL     1      41.844 -13.135  -0.462  1.00  0.00     0.164 HD
HETATM    6  H   UNL     1      42.948 -14.630   0.343  1.00  0.00     0.171 HD
ENDROOT
BRANCH   1   7
HETATM    7  C   UNL     1      39.878 -12.440  -0.327  1.00  0.00     0.091 C 
HETATM    8  C   UNL     1      38.515 -12.899  -0.865  1.00  0.00     0.063 C 
HETATM    9  C   UNL     1      38.484 -13.280  -2.346  1.00  0.00     0.121 C 
HETATM   10  N   UNL     1      39.112 -12.163  -3.156  1.00  0.00    -0.059 N 
HETATM   11  C   UNL     1      39.150 -14.617  -2.681  1.00  0.00     0.046 C 
HETATM   12  C   UNL     1      37.015 -13.367  -2.811  1.00  0.00     0.046 C 
HETATM   13  C   UNL     1      40.407 -11.525  -2.701  1.00  0.00     0.121 C 
HETATM   14  H   UNL     1      38.408 -11.414  -3.223  1.00  0.00     0.279 HD
HETATM   15  H   UNL     1      39.223 -12.489  -4.128  1.00  0.00     0.279 HD
HETATM   16  C   UNL     1      41.601 -12.370  -3.158  1.00  0.00     0.046 C 
HETATM   17  C   UNL     1      40.492 -10.171  -3.437  1.00  0.00     0.046 C 
HETATM   18  C   UNL     1      40.376 -11.266  -1.182  1.00  0.00     0.063 C 
ENDBRANCH   1   7
BRANCH   3  19
HETATM   19  C   UNL     1      42.743 -15.690   2.081  1.00  0.00     0.077 A 
HETATM   20  C   UNL     1      42.963 -15.100   3.334  1.00  0.00     0.143 A 
HETATM   21  F   UNL     1      42.719 -13.790   3.493  1.00  0.00    -0.204 F 
HETATM   22  C   UNL     1      43.413 -15.842   4.419  1.00  0.00     0.047 A 
HETATM   23  C   UNL     1      43.663 -17.201   4.252  1.00  0.00     0.040 A 
HETATM   24  C   UNL     1      43.469 -17.811   3.008  1.00  0.00     0.070 A 
HETATM   25  C   UNL     1      43.002 -17.055   1.927  1.00  0.00     0.069 A 
BRANCH  24  26
HETATM   26  O   UNL     1      43.766 -19.147   2.985  1.00  0.00    -0.356 OA
HETATM   27  C   UNL     1      43.124 -19.939   1.993  1.00  0.00     0.210 C 
ENDBRANCH  24  26
ENDBRANCH   3  19
TORSDOF 3
ENDMDL
MODEL 2
REMARK VINA RESULT:      -7.6      1.303      2.179
REMARK  3 active torsions:
REMARK  status: ('A' for Active; 'I' for Inactive)
REMARK    1  A    between atoms: C_11  and  N_12 
REMARK       I    between atoms: N_12  and  C_13 
REMARK       I    between atoms: C_13  and  N_14 
REMARK    2  A    between atoms: N_14  and  C_15 
REMARK    3  A    between atoms: C_20  and  O_21 
ROOT
HETATM    1  N   UNL     1      40.760 -14.035  -0.028  1.00  0.00    -0.338 N 
HETATM    2  C   UNL     1      40.927 -14.990   0.964  1.00  0.00     0.321 C 
HETATM    3  N   UNL     1      42.258 -15.188   1.244  1.00  0.00    -0.306 N 
HETATM    4  O   UNL     1      39.984 -15.577   1.471  1.00  0.00    -0.247 OA
HETATM    5  H   UNL     1      41.549 -13.400  -0.054  1.00  0.00     0.164 HD
HETATM    6  H   UNL     1      42.943 -14.623   0.760  1.00  0.00     0.171 HD
ENDROOT
BRANCH   1   7
HETATM    7  C   UNL     1      39.473 -13.395  -0.299  1.00  0.00     0.091 C 
HETATM    8  C   UNL     1      39.234 -12.797  -1.693  1.00  0.00     0.063 C 
HETATM    9  C   UNL     1      40.008 -11.515  -2.003  1.00  0.00     0.121 C 
HETATM   10  N   UNL     1      39.797 -10.526  -0.873  1.00  0.00    -0.059 N 
HETATM   11  C   UNL     1      41.504 -11.712  -2.262  1.00  0.00     0.046 C 
HETATM   12  C   UNL     1      39.405 -10.856  -3.262  1.00  0.00     0.046 C 
HETATM   13  C   UNL     1      39.891 -10.981   0.567  1.00  0.00     0.121 C 
HETATM   14  H   UNL     1      38.859 -10.121  -1.006  1.00  0.00     0.279 HD
HETATM   15  H   UNL     1      40.436  -9.729  -1.015  1.00  0.00     0.279 HD
HETATM   16  C   UNL     1      41.355 -11.006   1.018  1.00  0.00     0.046 C 
HETATM   17  C   UNL     1      39.170  -9.899   1.400  1.00  0.00     0.046 C 
HETATM   18  C   UNL     1      39.162 -12.325   0.757  1.00  0.00     0.063 C 
ENDBRANCH   1   7
BRANCH   3  19
HETATM   19  C   UNL     1      42.815 -16.056   2.214  1.00  0.00     0.077 A 
HETATM   20  C   UNL     1      43.052 -15.509   3.483  1.00  0.00     0.143 A 
HETATM   21  F   UNL     1      42.751 -14.220   3.708  1.00  0.00    -0.204 F 
HETATM   22  C   UNL     1      43.574 -16.272   4.519  1.00  0.00     0.047 A 
HETATM   23  C   UNL     1      43.883 -17.609   4.286  1.00  0.00     0.040 A 
HETATM   24  C   UNL     1      43.674 -18.176   3.024  1.00  0.00     0.070 A 
HETATM   25  C   UNL     1      43.133 -17.400   1.992  1.00  0.00     0.069 A 
BRANCH  24  26
HETATM   26  O   UNL     1      44.033 -19.493   2.933  1.00  0.00    -0.356 OA
HETATM   27  C   UNL     1      43.371 -20.282   1.952  1.00  0.00     0.210 C 
ENDBRANCH  24  26
ENDBRANCH   3  19
TORSDOF 3
ENDMDL
MODEL 3
REMARK VINA RESULT:      -7.4      5.628      8.758
REMARK  3 active torsions:
REMARK  status: ('A' for Active; 'I' for Inactive)
REMARK    1  A    between atoms: C_11  and  N_12 
REMARK       I    between atoms: N_12  and  C_13 
REMARK       I    between atoms: C_13  and  N_14 
REMARK    2  A    between atoms: N_14  and  C_15 
REMARK    3  A    between atoms: C_20  and  O_21 
ROOT
HETATM    1  N   UNL     1      42.730 -14.086   5.668  1.00  0.00    -0.338 N 
HETATM    2  C   UNL     1      43.291 -13.513   6.800  1.00  0.00     0.321 C 
HETATM    3  N   UNL     1      43.827 -12.279   6.519  1.00  0.00    -0.306 N 
HETATM    4  O   UNL     1      43.312 -14.084   7.880  1.00  0.00    -0.247 OA
HETATM    5  H   UNL     1      42.452 -13.374   5.004  1.00  0.00     0.164 HD
HETATM    6  H   UNL     1      43.729 -11.912   5.581  1.00  0.00     0.171 HD
ENDROOT
BRANCH   1   7
HETATM    7  C   UNL     1      41.819 -15.228   5.731  1.00  0.00     0.091 C 
HETATM    8  C   UNL     1      42.314 -16.521   6.396  1.00  0.00     0.063 C 
HETATM    9  C   UNL     1      43.355 -17.314   5.605  1.00  0.00     0.121 C 
HETATM   10  N   UNL     1      42.851 -17.513   4.188  1.00  0.00    -0.059 N 
HETATM   11  C   UNL     1      44.756 -16.698   5.586  1.00  0.00     0.046 C 
HETATM   12  C   UNL     1      43.480 -18.727   6.213  1.00  0.00     0.046 C 
HETATM   13  C   UNL     1      42.232 -16.360   3.429  1.00  0.00     0.121 C 
HETATM   14  H   UNL     1      42.149 -18.266   4.227  1.00  0.00     0.279 HD
HETATM   15  H   UNL     1      43.616 -17.914   3.624  1.00  0.00     0.279 HD
HETATM   16  C   UNL     1      43.329 -15.498   2.793  1.00  0.00     0.046 C 
HETATM   17  C   UNL     1      41.422 -16.997   2.280  1.00  0.00     0.046 C 
HETATM   18  C   UNL     1      41.272 -15.569   4.338  1.00  0.00     0.063 C 
ENDBRANCH   1   7
BRANCH   3  19
HETATM   19  C   UNL     1      44.453 -11.384   7.421  1.00  0.00     0.077 A 
HETATM   20  C   UNL     1      45.749 -10.966   7.090  1.00  0.00     0.143 A 
HETATM   21  F   UNL     1      46.321 -11.428   5.966  1.00  0.00    -0.204 F 
HETATM   22  C   UNL     1      46.452 -10.073   7.888  1.00  0.00     0.047 A 
HETATM   23  C   UNL     1      45.858  -9.593   9.051  1.00  0.00     0.040 A 
HETATM   24  C   UNL     1      44.571 -10.007   9.414  1.00  0.00     0.070 A 
HETATM   25  C   UNL     1      43.869 -10.897   8.594  1.00  0.00     0.069 A 
BRANCH  24  26
HETATM   26  O   UNL     1      44.117  -9.467  10.587  1.00  0.00    -0.356 OA
HETATM   27  C   UNL     1      43.365 -10.317  11.445  1.00  0.00     0.210 C 
ENDBRANCH  24  26
ENDBRANCH   3  19
TORSDOF 3
ENDMDL
MODEL 4
REMARK VINA RESULT:      -7.4      4.999      7.441
REMARK  3 active torsions:
REMARK  status: ('A' for Active; 'I' for Inactive)
REMARK    1  A    between atoms: C_11  and  N_12 
REMARK       I    between atoms: N_12  and  C_13 
REMARK       I    between atoms: C_13  and  N_14 
REMARK    2  A    between atoms: N_14  and  C_15 
REMARK    3  A    between atoms: C_20  and  O_21 
ROOT
HETATM    1  N   UNL     1      42.584 -13.182   3.823  1.00  0.00    -0.338 N 
HETATM    2  C   UNL     1      43.283 -12.126   4.388  1.00  0.00     0.321 C 
HETATM    3  N   UNL     1      42.992 -11.995   5.725  1.00  0.00    -0.306 N 
HETATM    4  O   UNL     1      44.027 -11.410   3.734  1.00  0.00    -0.247 OA
HETATM    5  H   UNL     1      42.345 -13.872   4.524  1.00  0.00     0.164 HD
HETATM    6  H   UNL     1      42.367 -12.667   6.151  1.00  0.00     0.171 HD
ENDROOT
BRANCH   1   7
HETATM    7  C   UNL     1      42.930 -13.751   2.521  1.00  0.00     0.091 C 
HETATM    8  C   UNL     1      41.926 -13.602   1.368  1.00  0.00     0.063 C 
HETATM    9  C   UNL     1      40.663 -14.458   1.478  1.00  0.00     0.121 C 
HETATM   10  N   UNL     1      41.064 -15.895   1.753  1.00  0.00    -0.059 N 
HETATM   11  C   UNL     1      39.650 -13.981   2.522  1.00  0.00     0.046 C 
HETATM   12  C   UNL     1      39.946 -14.472   0.111  1.00  0.00     0.046 C 
HETATM   13  C   UNL     1      42.123 -16.207   2.788  1.00  0.00     0.121 C 
HETATM   14  H   UNL     1      41.384 -16.289   0.857  1.00  0.00     0.279 HD
HETATM   15  H   UNL     1      40.212 -16.433   1.973  1.00  0.00     0.279 HD
HETATM   16  C   UNL     1      41.501 -16.234   4.188  1.00  0.00     0.046 C 
HETATM   17  C   UNL     1      42.612 -17.637   2.472  1.00  0.00     0.046 C 
HETATM   18  C   UNL     1      43.309 -15.232   2.655  1.00  0.00     0.063 C 
ENDBRANCH   1   7
BRANCH   3  19
HETATM   19  C   UNL     1      43.533 -11.058   6.638  1.00  0.00     0.077 A 
HETATM   20  C   UNL     1      44.821 -11.326   7.123  1.00  0.00     0.143 A 
HETATM   21  F   UNL     1      45.458 -12.434   6.713  1.00  0.00    -0.204 F 
HETATM   22  C   UNL     1      45.460 -10.466   8.006  1.00  0.00     0.047 A 
HETATM   23  C   UNL     1      44.799  -9.316   8.429  1.00  0.00     0.040 A 
HETATM   24  C   UNL     1      43.506  -9.033   7.974  1.00  0.00     0.070 A 
HETATM   25  C   UNL     1      42.878  -9.902   7.073  1.00  0.00     0.069 A 
BRANCH  24  26
HETATM   26  O   UNL     1      42.972  -7.879   8.480  1.00  0.00    -0.356 OA
HETATM   27  C   UNL     1      43.169  -7.626   9.866  1.00  0.00     0.210 C 
ENDBRANCH  24  26
ENDBRANCH   3  19
TORSDOF 3
ENDMDL
MODEL 5
REMARK VINA RESULT:      -7.3      4.687      5.988
REMARK  3 active torsions:
REMARK  status: ('A' for Active; 'I' for Inactive)
REMARK    1  A    between atoms: C_11  and  N_12 
REMARK       I    between atoms: N_12  and  C_13 
REMARK       I    between atoms: C_13  and  N_14 
REMARK    2  A    between atoms: N_14  and  C_15 
REMARK    3  A    between atoms: C_20  and  O_21 
ROOT
HETATM    1  N   UNL     1      42.403 -14.384   4.766  1.00  0.00    -0.338 N 
HETATM    2  C   UNL     1      42.178 -15.752   4.781  1.00  0.00     0.321 C 
HETATM    3  N   UNL     1      43.363 -16.450   4.779  1.00  0.00    -0.306 N 
HETATM    4  O   UNL     1      41.055 -16.231   4.764  1.00  0.00    -0.247 OA
HETATM    5  H   UNL     1      43.307 -14.162   5.162  1.00  0.00     0.164 HD
HETATM    6  H   UNL     1      44.230 -15.930   4.808  1.00  0.00     0.171 HD
ENDROOT
BRANCH   1   7
HETATM    7  C   UNL     1      41.359 -13.410   5.085  1.00  0.00     0.091 C 
HETATM    8  C   UNL     1      40.859 -12.482   3.968  1.00  0.00     0.063 C 
HETATM    9  C   UNL     1      41.835 -11.389   3.531  1.00  0.00     0.121 C 
HETATM   10  N   UNL     1      42.328 -10.649   4.760  1.00  0.00    -0.059 N 
HETATM   11  C   UNL     1      43.021 -11.879   2.697  1.00  0.00     0.046 C 
HETATM   12  C   UNL     1      41.075 -10.346   2.685  1.00  0.00     0.046 C 
HETATM   13  C   UNL     1      42.758 -11.416   5.992  1.00  0.00     0.121 C 
HETATM   14  H   UNL     1      41.571 -10.011   5.045  1.00  0.00     0.279 HD
HETATM   15  H   UNL     1      43.093 -10.018   4.475  1.00  0.00     0.279 HD
HETATM   16  C   UNL     1      44.207 -11.891   5.839  1.00  0.00     0.046 C 
HETATM   17  C   UNL     1      42.725 -10.401   7.154  1.00  0.00     0.046 C 
HETATM   18  C   UNL     1      41.762 -12.553   6.293  1.00  0.00     0.063 C 
ENDBRANCH   1   7
BRANCH   3  19
HETATM   19  C   UNL     1      43.537 -17.855   4.823  1.00  0.00     0.077 A 
HETATM   20  C   UNL     1      43.551 -18.445   6.095  1.00  0.00     0.143 A 
HETATM   21  F   UNL     1      43.410 -17.668   7.180  1.00  0.00    -0.204 F 
HETATM   22  C   UNL     1      43.693 -19.817   6.259  1.00  0.00     0.047 A 
HETATM   23  C   UNL     1      43.837 -20.622   5.133  1.00  0.00     0.040 A 
HETATM   24  C   UNL     1      43.843 -20.057   3.852  1.00  0.00     0.070 A 
HETATM   25  C   UNL     1      43.686 -18.674   3.700  1.00  0.00     0.069 A 
BRANCH  24  26
HETATM   26  O   UNL     1      44.006 -20.962   2.839  1.00  0.00    -0.356 OA
HETATM   27  C   UNL     1      43.646 -20.543   1.529  1.00  0.00     0.210 C 
ENDBRANCH  24  26
ENDBRANCH   3  19
TORSDOF 3
ENDMDL
MODEL 6
REMARK VINA RESULT:      -7.2      2.281      7.399
REMARK  3 active torsions:
REMARK  status: ('A' for Active; 'I' for Inactive)
REMARK    1  A    between atoms: C_11  and  N_12 
REMARK       I    between atoms: N_12  and  C_13 
REMARK       I    between atoms: C_13  and  N_14 
REMARK    2  A    between atoms: N_14  and  C_15 
REMARK    3  A    between atoms: C_20  and  O_21 
ROOT
HETATM    1  N   UNL     1      40.483 -14.714   2.888  1.00  0.00    -0.338 N 
HETATM    2  C   UNL     1      40.217 -14.673   1.528  1.00  0.00     0.321 C 
HETATM    3  N   UNL     1      40.534 -13.446   0.996  1.00  0.00    -0.306 N 
HETATM    4  O   UNL     1      39.733 -15.620   0.927  1.00  0.00    -0.247 OA
HETATM    5  H   UNL     1      41.202 -14.046   3.136  1.00  0.00     0.164 HD
HETATM    6  H   UNL     1      40.945 -12.748   1.603  1.00  0.00     0.171 HD
ENDROOT
BRANCH   1   7
HETATM    7  C   UNL     1      40.549 -15.966   3.642  1.00  0.00     0.091 C 
HETATM    8  C   UNL     1      40.936 -15.905   5.127  1.00  0.00     0.063 C 
HETATM    9  C   UNL     1      42.402 -15.580   5.414  1.00  0.00     0.121 C 
HETATM   10  N   UNL     1      43.282 -16.505   4.595  1.00  0.00    -0.059 N 
HETATM   11  C   UNL     1      42.798 -14.122   5.174  1.00  0.00     0.046 C 
HETATM   12  C   UNL     1      42.708 -15.904   6.892  1.00  0.00     0.046 C 
HETATM   13  C   UNL     1      42.972 -16.758   3.135  1.00  0.00     0.121 C 
HETATM   14  H   UNL     1      43.277 -17.418   5.072  1.00  0.00     0.279 HD
HETATM   15  H   UNL     1      44.258 -16.184   4.679  1.00  0.00     0.279 HD
HETATM   16  C   UNL     1      43.548 -15.633   2.270  1.00  0.00     0.046 C 
HETATM   17  C   UNL     1      43.721 -18.056   2.764  1.00  0.00     0.046 C 
HETATM   18  C   UNL     1      41.460 -16.981   2.936  1.00  0.00     0.063 C 
ENDBRANCH   1   7
BRANCH   3  19
HETATM   19  C   UNL     1      40.432 -13.038  -0.356  1.00  0.00     0.077 A 
HETATM   20  C   UNL     1      40.968 -11.783  -0.675  1.00  0.00     0.143 A 
HETATM   21  F   UNL     1      41.532 -11.045   0.295  1.00  0.00    -0.204 F 
HETATM   22  C   UNL     1      40.945 -11.290  -1.973  1.00  0.00     0.047 A 
HETATM   23  C   UNL     1      40.362 -12.056  -2.978  1.00  0.00     0.040 A 
HETATM   24  C   UNL     1      39.804 -13.306  -2.684  1.00  0.00     0.070 A 
HETATM   25  C   UNL     1      39.846 -13.797  -1.374  1.00  0.00     0.069 A 
BRANCH  24  26
HETATM   26  O   UNL     1      39.254 -13.943  -3.763  1.00  0.00    -0.356 OA
HETATM   27  C   UNL     1      38.037 -14.648  -3.550  1.00  0.00     0.210 C 
ENDBRANCH  24  26
ENDBRANCH   3  19
TORSDOF 3
ENDMDL
MODEL 7
REMARK VINA RESULT:      -7.2      7.171      9.900
REMARK  3 active torsions:
REMARK  status: ('A' for Active; 'I' for Inactive)
REMARK    1  A    between atoms: C_11  and  N_12 
REMARK       I    between atoms: N_12  and  C_13 
REMARK       I    between atoms: C_13  and  N_14 
REMARK    2  A    between atoms: N_14  and  C_15 
REMARK    3  A    between atoms: C_20  and  O_21 
ROOT
HETATM    1  N   UNL     1      43.592 -10.857   8.688  1.00  0.00    -0.338 N 
HETATM    2  C   UNL     1      44.013 -11.682   7.655  1.00  0.00     0.321 C 
HETATM    3  N   UNL     1      42.996 -12.503   7.230  1.00  0.00    -0.306 N 
HETATM    4  O   UNL     1      45.159 -11.668   7.233  1.00  0.00    -0.247 OA
HETATM    5  H   UNL     1      42.591 -10.713   8.649  1.00  0.00     0.164 HD
HETATM    6  H   UNL     1      42.084 -12.404   7.656  1.00  0.00     0.171 HD
ENDROOT
BRANCH   1   7
HETATM    7  C   UNL     1      44.346  -9.678   9.113  1.00  0.00     0.091 C 
HETATM    8  C   UNL     1      44.421  -9.360  10.613  1.00  0.00     0.063 C 
HETATM    9  C   UNL     1      43.129  -8.840  11.243  1.00  0.00     0.121 C 
HETATM   10  N   UNL     1      42.599  -7.692  10.405  1.00  0.00    -0.059 N 
HETATM   11  C   UNL     1      42.039  -9.895  11.444  1.00  0.00     0.046 C 
HETATM   12  C   UNL     1      43.452  -8.240  12.628  1.00  0.00     0.046 C 
HETATM   13  C   UNL     1      42.559  -7.803   8.897  1.00  0.00     0.121 C 
HETATM   14  H   UNL     1      43.173  -6.868  10.637  1.00  0.00     0.279 HD
HETATM   15  H   UNL     1      41.658  -7.446  10.748  1.00  0.00     0.279 HD
HETATM   16  C   UNL     1      41.298  -8.553   8.456  1.00  0.00     0.046 C 
HETATM   17  C   UNL     1      42.444  -6.357   8.370  1.00  0.00     0.046 C 
HETATM   18  C   UNL     1      43.867  -8.424   8.367  1.00  0.00     0.063 C 
ENDBRANCH   1   7
BRANCH   3  19
HETATM   19  C   UNL     1      43.036 -13.453   6.180  1.00  0.00     0.077 A 
HETATM   20  C   UNL     1      43.145 -14.799   6.557  1.00  0.00     0.143 A 
HETATM   21  F   UNL     1      43.211 -15.112   7.861  1.00  0.00    -0.204 F 
HETATM   22  C   UNL     1      43.171 -15.819   5.614  1.00  0.00     0.047 A 
HETATM   23  C   UNL     1      43.100 -15.494   4.263  1.00  0.00     0.040 A 
HETATM   24  C   UNL     1      43.008 -14.157   3.858  1.00  0.00     0.070 A 
HETATM   25  C   UNL     1      42.969 -13.140   4.819  1.00  0.00     0.069 A 
BRANCH  24  26
HETATM   26  O   UNL     1      42.959 -13.982   2.502  1.00  0.00    -0.356 OA
HETATM   27  C   UNL     1      42.206 -14.927   1.752  1.00  0.00     0.210 C 
ENDBRANCH  24  26
ENDBRANCH   3  19
TORSDOF 3
ENDMDL
MODEL 8
REMARK VINA RESULT:      -7.0      3.118      7.848
REMARK  3 active torsions:
REMARK  status: ('A' for Active; 'I' for Inactive)
REMARK    1  A    between atoms: C_11  and  N_12 
REMARK       I    between atoms: N_12  and  C_13 
REMARK       I    between atoms: C_13  and  N_14 
REMARK    2  A    between atoms: N_14  and  C_15 
REMARK    3  A    between atoms: C_20  and  O_21 
ROOT
HETATM    1  N   UNL     1      41.729 -14.015   3.282  1.00  0.00    -0.338 N 
HETATM    2  C   UNL     1      41.775 -14.059   1.896  1.00  0.00     0.321 C 
HETATM    3  N   UNL     1      40.580 -13.658   1.347  1.00  0.00    -0.306 N 
HETATM    4  O   UNL     1      42.761 -14.442   1.286  1.00  0.00    -0.247 OA
HETATM    5  H   UNL     1      41.042 -13.343   3.599  1.00  0.00     0.164 HD
HETATM    6  H   UNL     1      39.842 -13.349   1.967  1.00  0.00     0.171 HD
ENDROOT
BRANCH   1   7
HETATM    7  C   UNL     1      42.931 -14.073   4.113  1.00  0.00     0.091 C 
HETATM    8  C   UNL     1      43.011 -15.145   5.209  1.00  0.00     0.063 C 
HETATM    9  C   UNL     1      42.107 -14.919   6.421  1.00  0.00     0.121 C 
HETATM   10  N   UNL     1      42.316 -13.508   6.936  1.00  0.00    -0.059 N 
HETATM   11  C   UNL     1      40.619 -15.176   6.172  1.00  0.00     0.046 C 
HETATM   12  C   UNL     1      42.553 -15.857   7.563  1.00  0.00     0.046 C 
HETATM   13  C   UNL     1      42.372 -12.343   5.970  1.00  0.00     0.121 C 
HETATM   14  H   UNL     1      43.202 -13.513   7.461  1.00  0.00     0.279 HD
HETATM   15  H   UNL     1      41.601 -13.314   7.653  1.00  0.00     0.279 HD
HETATM   16  C   UNL     1      40.954 -11.881   5.620  1.00  0.00     0.046 C 
HETATM   17  C   UNL     1      43.057 -11.192   6.737  1.00  0.00     0.046 C 
HETATM   18  C   UNL     1      43.228 -12.703   4.740  1.00  0.00     0.063 C 
ENDBRANCH   1   7
BRANCH   3  19
HETATM   19  C   UNL     1      40.258 -13.542  -0.027  1.00  0.00     0.077 A 
HETATM   20  C   UNL     1      39.682 -14.668  -0.634  1.00  0.00     0.143 A 
HETATM   21  F   UNL     1      39.477 -15.774   0.098  1.00  0.00    -0.204 F 
HETATM   22  C   UNL     1      39.305 -14.661  -1.970  1.00  0.00     0.047 A 
HETATM   23  C   UNL     1      39.517 -13.513  -2.728  1.00  0.00     0.040 A 
HETATM   24  C   UNL     1      40.105 -12.381  -2.152  1.00  0.00     0.070 A 
HETATM   25  C   UNL     1      40.468 -12.396  -0.800  1.00  0.00     0.069 A 
BRANCH  24  26
HETATM   26  O   UNL     1      40.266 -11.331  -3.015  1.00  0.00    -0.356 OA
HETATM   27  C   UNL     1      39.108 -10.568  -3.331  1.00  0.00     0.210 C 
ENDBRANCH  24  26
ENDBRANCH   3  19
TORSDOF 3
ENDMDL
MODEL 9
REMARK VINA RESULT:      -7.0      4.391      5.643
REMARK  3 active torsions:
REMARK  status: ('A' for Active; 'I' for Inactive)
REMARK    1  A    between atoms: C_11  and  N_12 
REMARK       I    between atoms: N_12  and  C_13 
REMARK       I    between atoms: C_13  and  N_14 
REMARK    2  A    between atoms: N_14  and  C_15 
REMARK    3  A    between atoms: C_20  and  O_21 
ROOT
HETATM    1  N   UNL     1      41.503 -13.347   3.961  1.00  0.00    -0.338 N 
HETATM    2  C   UNL     1      41.556 -14.719   4.160  1.00  0.00     0.321 C 
HETATM    3  N   UNL     1      42.669 -15.264   3.567  1.00  0.00    -0.306 N 
HETATM    4  O   UNL     1      40.684 -15.326   4.763  1.00  0.00    -0.247 OA
HETATM    5  H   UNL     1      42.430 -12.969   3.809  1.00  0.00     0.164 HD
HETATM    6  H   UNL     1      43.324 -14.645   3.108  1.00  0.00     0.171 HD
ENDROOT
BRANCH   1   7
HETATM    7  C   UNL     1      40.624 -12.471   4.735  1.00  0.00     0.091 C 
HETATM    8  C   UNL     1      39.944 -11.298   4.015  1.00  0.00     0.063 C 
HETATM    9  C   UNL     1      40.863 -10.138   3.627  1.00  0.00     0.121 C 
HETATM   10  N   UNL     1      41.669  -9.720   4.842  1.00  0.00    -0.059 N 
HETATM   11  C   UNL     1      41.794 -10.422   2.446  1.00  0.00     0.046 C 
HETATM   12  C   UNL     1      39.998  -8.916   3.251  1.00  0.00     0.046 C 
HETATM   13  C   UNL     1      42.317 -10.765   5.724  1.00  0.00     0.121 C 
HETATM   14  H   UNL     1      41.039  -9.164   5.438  1.00  0.00     0.279 HD
HETATM   15  H   UNL     1      42.387  -9.045   4.539  1.00  0.00     0.279 HD
HETATM   16  C   UNL     1      43.660 -11.199   5.128  1.00  0.00     0.046 C 
HETATM   17  C   UNL     1      42.614 -10.060   7.065  1.00  0.00     0.046 C 
HETATM   18  C   UNL     1      41.345 -11.934   5.980  1.00  0.00     0.063 C 
ENDBRANCH   1   7
BRANCH   3  19
HETATM   19  C   UNL     1      43.077 -16.620   3.581  1.00  0.00     0.077 A 
HETATM   20  C   UNL     1      43.232 -17.242   2.334  1.00  0.00     0.143 A 
HETATM   21  F   UNL     1      42.984 -16.540   1.216  1.00  0.00    -0.204 F 
HETATM   22  C   UNL     1      43.649 -18.561   2.225  1.00  0.00     0.047 A 
HETATM   23  C   UNL     1      43.907 -19.288   3.384  1.00  0.00     0.040 A 
HETATM   24  C   UNL     1      43.745 -18.697   4.642  1.00  0.00     0.070 A 
HETATM   25  C   UNL     1      43.337 -17.362   4.738  1.00  0.00     0.069 A 
BRANCH  24  26
HETATM   26  O   UNL     1      44.020 -19.529   5.693  1.00  0.00    -0.356 OA
HETATM   27  C   UNL     1      44.178 -20.913   5.403  1.00  0.00     0.210 C 
ENDBRANCH  24  26
ENDBRANCH   3  19
TORSDOF 3
ENDMDL
MODEL 10
REMARK VINA RESULT:      -6.8     15.473     16.775
REMARK  3 active torsions:
REMARK  status: ('A' for Active; 'I' for Inactive)
REMARK    1  A    between atoms: C_11  and  N_12 
REMARK       I    between atoms: N_12  and  C_13 
REMARK       I    between atoms: C_13  and  N_14 
REMARK    2  A    between atoms: N_14  and  C_15 
REMARK    3  A    between atoms: C_20  and  O_21 
ROOT
HETATM    1  N   UNL     1      43.811 -30.007   0.007  1.00  0.00    -0.338 N 
HETATM    2  C   UNL     1      42.810 -29.917   0.964  1.00  0.00     0.321 C 
HETATM    3  N   UNL     1      42.814 -31.015   1.791  1.00  0.00    -0.306 N 
HETATM    4  O   UNL     1      42.028 -28.980   1.007  1.00  0.00    -0.247 OA
HETATM    5  H   UNL     1      44.569 -30.594   0.332  1.00  0.00     0.164 HD
HETATM    6  H   UNL     1      43.529 -31.719   1.657  1.00  0.00     0.171 HD
ENDROOT
BRANCH   1   7
HETATM    7  C   UNL     1      44.246 -28.859  -0.788  1.00  0.00     0.091 C 
HETATM    8  C   UNL     1      44.012 -28.890  -2.305  1.00  0.00     0.063 C 
HETATM    9  C   UNL     1      44.903 -29.854  -3.091  1.00  0.00     0.121 C 
HETATM   10  N   UNL     1      46.350 -29.614  -2.705  1.00  0.00    -0.059 N 
HETATM   11  C   UNL     1      44.550 -31.335  -2.930  1.00  0.00     0.046 C 
HETATM   12  C   UNL     1      44.804 -29.517  -4.594  1.00  0.00     0.046 C 
HETATM   13  C   UNL     1      46.734 -29.452  -1.250  1.00  0.00     0.121 C 
HETATM   14  H   UNL     1      46.650 -28.762  -3.198  1.00  0.00     0.279 HD
HETATM   15  H   UNL     1      46.925 -30.361  -3.122  1.00  0.00     0.279 HD
HETATM   16  C   UNL     1      46.908 -30.825  -0.593  1.00  0.00     0.046 C 
HETATM   17  C   UNL     1      48.116 -28.764  -1.254  1.00  0.00     0.046 C 
HETATM   18  C   UNL     1      45.725 -28.541  -0.524  1.00  0.00     0.063 C 
ENDBRANCH   1   7
BRANCH   3  19
HETATM   19  C   UNL     1      41.967 -31.265   2.898  1.00  0.00     0.077 A 
HETATM   20  C   UNL     1      40.707 -31.810   2.613  1.00  0.00     0.143 A 
HETATM   21  F   UNL     1      40.372 -32.055   1.336  1.00  0.00    -0.204 F 
HETATM   22  C   UNL     1      39.801 -32.116   3.620  1.00  0.00     0.047 A 
HETATM   23  C   UNL     1      40.150 -31.863   4.944  1.00  0.00     0.040 A 
HETATM   24  C   UNL     1      41.395 -31.304   5.255  1.00  0.00     0.070 A 
HETATM   25  C   UNL     1      42.303 -31.012   4.231  1.00  0.00     0.069 A 
BRANCH  24  26
HETATM   26  O   UNL     1      41.599 -31.096   6.592  1.00  0.00    -0.356 OA
HETATM   27  C   UNL     1      42.601 -31.882   7.226  1.00  0.00     0.210 C 
ENDBRANCH  24  26
ENDBRANCH   3  19
TORSDOF 3
ENDMDL
