MODEL 1
REMARK VINA RESULT:      -8.6      0.000      0.000
REMARK  5 active torsions:
REMARK  status: ('A' for Active; 'I' for Inactive)
REMARK    1  A    between atoms: C_7  and  C_8 
REMARK    2  A    between atoms: N_9  and  N_10 
REMARK       I    between atoms: N_10  and  C_11 
REMARK    3  A    between atoms: C_11  and  C_12 
REMARK    4  A    between atoms: C_12  and  N_13 
REMARK       I    between atoms: N_13  and  C_14 
REMARK    5  A    between atoms: C_14  and  C_15 
ROOT
HETATM    1  N   UNL     1      40.239 -14.268   3.289  1.00  0.00    -0.246 N 
HETATM    2  C   UNL     1      39.911 -13.123   4.001  1.00  0.00     0.255 C 
HETATM    3  O   UNL     1      40.216 -12.886   5.168  1.00  0.00    -0.270 OA
HETATM    4  H   UNL     1      40.006 -14.317   2.293  1.00  0.00     0.192 HD
ENDROOT
BRANCH   1   5
HETATM    5  N   UNL     1      40.900 -15.293   3.897  1.00  0.00    -0.184 NA
HETATM    6  C   UNL     1      42.144 -15.423   3.570  1.00  0.00     0.153 C 
BRANCH   6   7
HETATM    7  C   UNL     1      42.941 -16.501   4.132  1.00  0.00     0.018 A 
HETATM    8  C   UNL     1      43.636 -16.488   5.335  1.00  0.00     0.018 A 
HETATM    9  C   UNL     1      43.781 -15.429   6.372  1.00  0.00     0.069 C 
HETATM   10  N   UNL     1      44.241 -17.710   5.483  1.00  0.00    -0.358 N 
HETATM   11  H   UNL     1      44.811 -17.983   6.271  1.00  0.00     0.166 HD
HETATM   12  C   UNL     1      43.960 -18.524   4.413  1.00  0.00     0.043 A 
HETATM   13  C   UNL     1      43.148 -17.795   3.545  1.00  0.00     0.004 A 
HETATM   14  C   UNL     1      44.362 -19.841   4.155  1.00  0.00     0.030 A 
HETATM   15  C   UNL     1      42.714 -18.420   2.355  1.00  0.00     0.014 A 
HETATM   16  C   UNL     1      43.106 -19.736   2.081  1.00  0.00     0.001 A 
HETATM   17  C   UNL     1      43.918 -20.434   2.971  1.00  0.00     0.002 A 
ENDBRANCH   6   7
ENDBRANCH   1   5
BRANCH   2  18
HETATM   18  C   UNL     1      39.053 -12.154   3.187  1.00  0.00     0.227 C 
BRANCH  18  19
HETATM   19  N   UNL     1      38.723 -12.650   1.860  1.00  0.00    -0.348 N 
HETATM   20  C   UNL     1      39.371 -12.188   0.737  1.00  0.00     0.252 C 
HETATM   21  O   UNL     1      40.177 -11.264   0.771  1.00  0.00    -0.268 OA
HETATM   22  H   UNL     1      37.888 -13.213   1.765  1.00  0.00     0.163 HD
BRANCH  20  23
HETATM   23  C   UNL     1      38.998 -12.834  -0.549  1.00  0.00     0.032 A 
HETATM   24  C   UNL     1      39.732 -13.945  -0.982  1.00  0.00     0.018 A 
HETATM   25  C   UNL     1      39.394 -14.585  -2.179  1.00  0.00     0.025 A 
HETATM   26  C   UNL     1      38.315 -14.122  -2.930  1.00  0.00     0.034 A 
HETATM   27 CL   UNL     1      37.891 -14.915  -4.397  1.00  0.00    -0.084 Cl
HETATM   28  C   UNL     1      37.569 -13.025  -2.498  1.00  0.00     0.025 A 
HETATM   29  C   UNL     1      37.909 -12.379  -1.305  1.00  0.00     0.018 A 
ENDBRANCH  20  23
ENDBRANCH  18  19
ENDBRANCH   2  18
TORSDOF 5
ENDMDL
MODEL 2
REMARK VINA RESULT:      -8.5      6.775      9.545
REMARK  5 active torsions:
REMARK  status: ('A' for Active; 'I' for Inactive)
REMARK    1  A    between atoms: C_7  and  C_8 
REMARK    2  A    between atoms: N_9  and  N_10 
REMARK       I    between atoms: N_10  and  C_11 
REMARK    3  A    between atoms: C_11  and  C_12 
REMARK    4  A    between atoms: C_12  and  N_13 
REMARK       I    between atoms: N_13  and  C_14 
REMARK    5  A    between atoms: C_14  and  C_15 
ROOT
HETATM    1  N   UNL     1      43.866 -11.624   6.821  1.00  0.00    -0.246 N 
HETATM    2  C   UNL     1      45.153 -11.220   6.498  1.00  0.00     0.255 C 
HETATM    3  O   UNL     1      45.648 -11.216   5.372  1.00  0.00    -0.270 OA
HETATM    4  H   UNL     1      43.533 -11.500   7.782  1.00  0.00     0.192 HD
ENDROOT
BRANCH   1   5
HETATM    5  N   UNL     1      43.043 -12.138   5.864  1.00  0.00    -0.184 NA
HETATM    6  C   UNL     1      42.623 -13.342   6.080  1.00  0.00     0.153 C 
BRANCH   6   7
HETATM    7  C   UNL     1      41.764 -14.003   5.112  1.00  0.00     0.018 A 
HETATM    8  C   UNL     1      40.448 -13.681   4.805  1.00  0.00     0.018 A 
HETATM    9  C   UNL     1      39.548 -12.620   5.336  1.00  0.00     0.069 C 
HETATM   10  N   UNL     1      40.020 -14.550   3.833  1.00  0.00    -0.358 N 
HETATM   11  H   UNL     1      39.100 -14.545   3.416  1.00  0.00     0.166 HD
HETATM   12  C   UNL     1      41.019 -15.429   3.494  1.00  0.00     0.043 A 
HETATM   13  C   UNL     1      42.127 -15.115   4.280  1.00  0.00     0.004 A 
HETATM   14  C   UNL     1      41.020 -16.469   2.555  1.00  0.00     0.030 A 
HETATM   15  C   UNL     1      43.300 -15.885   4.116  1.00  0.00     0.014 A 
HETATM   16  C   UNL     1      43.319 -16.927   3.182  1.00  0.00     0.001 A 
HETATM   17  C   UNL     1      42.194 -17.213   2.414  1.00  0.00     0.002 A 
ENDBRANCH   6   7
ENDBRANCH   1   5
BRANCH   2  18
HETATM   18  C   UNL     1      45.962 -10.807   7.728  1.00  0.00     0.227 C 
BRANCH  18  19
HETATM   19  N   UNL     1      45.148 -10.235   8.789  1.00  0.00    -0.348 N 
HETATM   20  C   UNL     1      44.996  -8.874   8.927  1.00  0.00     0.252 C 
HETATM   21  O   UNL     1      45.616  -8.067   8.242  1.00  0.00    -0.268 OA
HETATM   22  H   UNL     1      44.839 -10.854   9.528  1.00  0.00     0.163 HD
BRANCH  20  23
HETATM   23  C   UNL     1      44.073  -8.421  10.000  1.00  0.00     0.032 A 
HETATM   24  C   UNL     1      44.079  -9.101  11.224  1.00  0.00     0.018 A 
HETATM   25  C   UNL     1      43.236  -8.686  12.260  1.00  0.00     0.025 A 
HETATM   26  C   UNL     1      42.400  -7.585  12.074  1.00  0.00     0.034 A 
HETATM   27 CL   UNL     1      41.370  -7.067  13.350  1.00  0.00    -0.084 Cl
HETATM   28  C   UNL     1      42.400  -6.893  10.862  1.00  0.00     0.025 A 
HETATM   29  C   UNL     1      43.238  -7.309   9.823  1.00  0.00     0.018 A 
ENDBRANCH  20  23
ENDBRANCH  18  19
ENDBRANCH   2  18
TORSDOF 5
ENDMDL
MODEL 3
REMARK VINA RESULT:      -8.4      6.948      9.550
REMARK  5 active torsions:
REMARK  status: ('A' for Active; 'I' for Inactive)
REMARK    1  A    between atoms: C_7  and  C_8 
REMARK    2  A    between atoms: N_9  and  N_10 
REMARK       I    between atoms: N_10  and  C_11 
REMARK    3  A    between atoms: C_11  and  C_12 
REMARK    4  A    between atoms: C_12  and  N_13 
REMARK       I    between atoms: N_13  and  C_14 
REMARK    5  A    between atoms: C_14  and  C_15 
ROOT
HETATM    1  N   UNL     1      43.217 -12.264   6.419  1.00  0.00    -0.246 N 
HETATM    2  C   UNL     1      43.804 -11.465   7.390  1.00  0.00     0.255 C 
HETATM    3  O   UNL     1      44.815 -11.737   8.035  1.00  0.00    -0.270 OA
HETATM    4  H   UNL     1      42.426 -11.894   5.883  1.00  0.00     0.192 HD
ENDROOT
BRANCH   1   5
HETATM    5  N   UNL     1      43.713 -13.504   6.153  1.00  0.00    -0.184 NA
HETATM    6  C   UNL     1      42.832 -14.407   5.867  1.00  0.00     0.153 C 
BRANCH   6   7
HETATM    7  C   UNL     1      43.244 -15.774   5.595  1.00  0.00     0.018 A 
HETATM    8  C   UNL     1      43.704 -16.707   6.516  1.00  0.00     0.018 A 
HETATM    9  C   UNL     1      43.913 -16.613   7.987  1.00  0.00     0.069 C 
HETATM   10  N   UNL     1      43.970 -17.869   5.836  1.00  0.00    -0.358 N 
HETATM   11  H   UNL     1      44.316 -18.720   6.257  1.00  0.00     0.166 HD
HETATM   12  C   UNL     1      43.694 -17.724   4.498  1.00  0.00     0.043 A 
HETATM   13  C   UNL     1      43.238 -16.419   4.313  1.00  0.00     0.004 A 
HETATM   14  C   UNL     1      43.813 -18.646   3.451  1.00  0.00     0.030 A 
HETATM   15  C   UNL     1      42.882 -16.017   3.007  1.00  0.00     0.014 A 
HETATM   16  C   UNL     1      42.994 -16.926   1.948  1.00  0.00     0.001 A 
HETATM   17  C   UNL     1      43.454 -18.221   2.170  1.00  0.00     0.002 A 
ENDBRANCH   6   7
ENDBRANCH   1   5
BRANCH   2  18
HETATM   18  C   UNL     1      43.020 -10.175   7.638  1.00  0.00     0.227 C 
BRANCH  18  19
HETATM   19  N   UNL     1      42.665  -9.974   9.034  1.00  0.00    -0.348 N 
HETATM   20  C   UNL     1      43.307  -9.039   9.813  1.00  0.00     0.252 C 
HETATM   21  O   UNL     1      44.279  -8.404   9.418  1.00  0.00    -0.268 OA
HETATM   22  H   UNL     1      42.056 -10.658   9.465  1.00  0.00     0.163 HD
BRANCH  20  23
HETATM   23  C   UNL     1      42.795  -8.875  11.199  1.00  0.00     0.032 A 
HETATM   24  C   UNL     1      41.580  -9.479  11.544  1.00  0.00     0.018 A 
HETATM   25  C   UNL     1      41.082  -9.358  12.845  1.00  0.00     0.025 A 
HETATM   26  C   UNL     1      41.807  -8.646  13.800  1.00  0.00     0.034 A 
HETATM   27 CL   UNL     1      41.200  -8.505  15.404  1.00  0.00    -0.084 Cl
HETATM   28  C   UNL     1      43.025  -8.053  13.468  1.00  0.00     0.025 A 
HETATM   29  C   UNL     1      43.523  -8.168  12.166  1.00  0.00     0.018 A 
ENDBRANCH  20  23
ENDBRANCH  18  19
ENDBRANCH   2  18
TORSDOF 5
ENDMDL
MODEL 4
REMARK VINA RESULT:      -8.3      7.115     10.113
REMARK  5 active torsions:
REMARK  status: ('A' for Active; 'I' for Inactive)
REMARK    1  A    between atoms: C_7  and  C_8 
REMARK    2  A    between atoms: N_9  and  N_10 
REMARK       I    between atoms: N_10  and  C_11 
REMARK    3  A    between atoms: C_11  and  C_12 
REMARK    4  A    between atoms: C_12  and  N_13 
REMARK       I    between atoms: N_13  and  C_14 
REMARK    5  A    between atoms: C_14  and  C_15 
ROOT
HETATM    1  N   UNL     1      44.410 -12.246   7.118  1.00  0.00    -0.246 N 
HETATM    2  C   UNL     1      43.947 -11.056   7.661  1.00  0.00     0.255 C 
HETATM    3  O   UNL     1      42.997 -10.395   7.247  1.00  0.00    -0.270 OA
HETATM    4  H   UNL     1      45.155 -12.756   7.602  1.00  0.00     0.192 HD
ENDROOT
BRANCH   1   5
HETATM    5  N   UNL     1      43.850 -12.751   5.984  1.00  0.00    -0.184 NA
HETATM    6  C   UNL     1      43.205 -13.863   6.129  1.00  0.00     0.153 C 
BRANCH   6   7
HETATM    7  C   UNL     1      42.592 -14.511   4.981  1.00  0.00     0.018 A 
HETATM    8  C   UNL     1      41.555 -14.019   4.199  1.00  0.00     0.018 A 
HETATM    9  C   UNL     1      40.783 -12.749   4.280  1.00  0.00     0.069 C 
HETATM   10  N   UNL     1      41.295 -14.944   3.220  1.00  0.00    -0.358 N 
HETATM   11  H   UNL     1      40.589 -14.846   2.504  1.00  0.00     0.166 HD
HETATM   12  C   UNL     1      42.134 -16.025   3.336  1.00  0.00     0.043 A 
HETATM   13  C   UNL     1      42.960 -15.786   4.434  1.00  0.00     0.004 A 
HETATM   14  C   UNL     1      42.220 -17.184   2.555  1.00  0.00     0.030 A 
HETATM   15  C   UNL     1      43.925 -16.762   4.767  1.00  0.00     0.014 A 
HETATM   16  C   UNL     1      44.026 -17.927   3.997  1.00  0.00     0.001 A 
HETATM   17  C   UNL     1      43.184 -18.133   2.907  1.00  0.00     0.002 A 
ENDBRANCH   6   7
ENDBRANCH   1   5
BRANCH   2  18
HETATM   18  C   UNL     1      44.792 -10.586   8.846  1.00  0.00     0.227 C 
BRANCH  18  19
HETATM   19  N   UNL     1      44.024  -9.880   9.859  1.00  0.00    -0.348 N 
HETATM   20  C   UNL     1      43.798 -10.424  11.102  1.00  0.00     0.252 C 
HETATM   21  O   UNL     1      44.130 -11.569  11.393  1.00  0.00    -0.268 OA
HETATM   22  H   UNL     1      43.513  -9.055   9.569  1.00  0.00     0.163 HD
BRANCH  20  23
HETATM   23  C   UNL     1      43.069  -9.567  12.073  1.00  0.00     0.032 A 
HETATM   24  C   UNL     1      41.904 -10.064  12.669  1.00  0.00     0.018 A 
HETATM   25  C   UNL     1      41.208  -9.288  13.601  1.00  0.00     0.025 A 
HETATM   26  C   UNL     1      41.685  -8.024  13.944  1.00  0.00     0.034 A 
HETATM   27 CL   UNL     1      40.835  -7.072  15.098  1.00  0.00    -0.084 Cl
HETATM   28  C   UNL     1      42.854  -7.527  13.366  1.00  0.00     0.025 A 
HETATM   29  C   UNL     1      43.550  -8.299  12.430  1.00  0.00     0.018 A 
ENDBRANCH  20  23
ENDBRANCH  18  19
ENDBRANCH   2  18
TORSDOF 5
ENDMDL
MODEL 5
REMARK VINA RESULT:      -8.2      4.795      8.143
REMARK  5 active torsions:
REMARK  status: ('A' for Active; 'I' for Inactive)
REMARK    1  A    between atoms: C_7  and  C_8 
REMARK    2  A    between atoms: N_9  and  N_10 
REMARK       I    between atoms: N_10  and  C_11 
REMARK    3  A    between atoms: C_11  and  C_12 
REMARK    4  A    between atoms: C_12  and  N_13 
REMARK       I    between atoms: N_13  and  C_14 
REMARK    5  A    between atoms: C_14  and  C_15 
ROOT
HETATM    1  N   UNL     1      41.851 -13.027   4.101  1.00  0.00    -0.246 N 
HETATM    2  C   UNL     1      41.737 -13.032   2.718  1.00  0.00     0.255 C 
HETATM    3  O   UNL     1      42.086 -12.129   1.961  1.00  0.00    -0.270 OA
HETATM    4  H   UNL     1      41.608 -13.874   4.623  1.00  0.00     0.192 HD
ENDROOT
BRANCH   1   5
HETATM    5  N   UNL     1      42.322 -11.926   4.751  1.00  0.00    -0.184 NA
HETATM    6  C   UNL     1      42.060 -11.872   6.016  1.00  0.00     0.153 C 
BRANCH   6   7
HETATM    7  C   UNL     1      42.487 -10.729   6.806  1.00  0.00     0.018 A 
HETATM    8  C   UNL     1      41.683  -9.714   7.308  1.00  0.00     0.018 A 
HETATM    9  C   UNL     1      40.215  -9.482   7.204  1.00  0.00     0.069 C 
HETATM   10  N   UNL     1      42.488  -8.846   8.001  1.00  0.00    -0.358 N 
HETATM   11  H   UNL     1      42.169  -8.014   8.477  1.00  0.00     0.166 HD
HETATM   12  C   UNL     1      43.796  -9.266   7.969  1.00  0.00     0.043 A 
HETATM   13  C   UNL     1      43.830 -10.444   7.225  1.00  0.00     0.004 A 
HETATM   14  C   UNL     1      44.938  -8.693   8.542  1.00  0.00     0.030 A 
HETATM   15  C   UNL     1      45.077 -11.084   7.045  1.00  0.00     0.014 A 
HETATM   16  C   UNL     1      46.229 -10.525   7.611  1.00  0.00     0.001 A 
HETATM   17  C   UNL     1      46.158  -9.346   8.348  1.00  0.00     0.002 A 
ENDBRANCH   6   7
ENDBRANCH   1   5
BRANCH   2  18
HETATM   18  C   UNL     1      41.061 -14.299   2.193  1.00  0.00     0.227 C 
BRANCH  18  19
HETATM   19  N   UNL     1      41.596 -15.522   2.770  1.00  0.00    -0.348 N 
HETATM   20  C   UNL     1      42.685 -16.161   2.222  1.00  0.00     0.252 C 
HETATM   21  O   UNL     1      43.196 -15.807   1.164  1.00  0.00    -0.268 OA
HETATM   22  H   UNL     1      41.044 -15.986   3.480  1.00  0.00     0.163 HD
BRANCH  20  23
HETATM   23  C   UNL     1      43.184 -17.355   2.954  1.00  0.00     0.032 A 
HETATM   24  C   UNL     1      43.540 -17.219   4.301  1.00  0.00     0.018 A 
HETATM   25  C   UNL     1      43.995 -18.328   5.020  1.00  0.00     0.025 A 
HETATM   26  C   UNL     1      44.079 -19.571   4.396  1.00  0.00     0.034 A 
HETATM   27 CL   UNL     1      44.629 -20.939   5.283  1.00  0.00    -0.084 Cl
HETATM   28  C   UNL     1      43.712 -19.718   3.058  1.00  0.00     0.025 A 
HETATM   29  C   UNL     1      43.262 -18.610   2.334  1.00  0.00     0.018 A 
ENDBRANCH  20  23
ENDBRANCH  18  19
ENDBRANCH   2  18
TORSDOF 5
ENDMDL
MODEL 6
REMARK VINA RESULT:      -8.1      6.526      9.628
REMARK  5 active torsions:
REMARK  status: ('A' for Active; 'I' for Inactive)
REMARK    1  A    between atoms: C_7  and  C_8 
REMARK    2  A    between atoms: N_9  and  N_10 
REMARK       I    between atoms: N_10  and  C_11 
REMARK    3  A    between atoms: C_11  and  C_12 
REMARK    4  A    between atoms: C_12  and  N_13 
REMARK       I    between atoms: N_13  and  C_14 
REMARK    5  A    between atoms: C_14  and  C_15 
ROOT
HETATM    1  N   UNL     1      44.438 -12.631   6.632  1.00  0.00    -0.246 N 
HETATM    2  C   UNL     1      45.059 -11.522   6.076  1.00  0.00     0.255 C 
HETATM    3  O   UNL     1      45.017 -11.187   4.894  1.00  0.00    -0.270 OA
HETATM    4  H   UNL     1      44.469 -12.761   7.647  1.00  0.00     0.192 HD
ENDROOT
BRANCH   1   5
HETATM    5  N   UNL     1      43.757 -13.509   5.843  1.00  0.00    -0.184 NA
HETATM    6  C   UNL     1      42.476 -13.338   5.797  1.00  0.00     0.153 C 
BRANCH   6   7
HETATM    7  C   UNL     1      41.644 -14.235   5.011  1.00  0.00     0.018 A 
HETATM    8  C   UNL     1      40.830 -15.254   5.490  1.00  0.00     0.018 A 
HETATM    9  C   UNL     1      40.566 -15.729   6.876  1.00  0.00     0.069 C 
HETATM   10  N   UNL     1      40.218 -15.841   4.412  1.00  0.00    -0.358 N 
HETATM   11  H   UNL     1      39.566 -16.611   4.465  1.00  0.00     0.166 HD
HETATM   12  C   UNL     1      40.604 -15.233   3.242  1.00  0.00     0.043 A 
HETATM   13  C   UNL     1      41.501 -14.222   3.583  1.00  0.00     0.004 A 
HETATM   14  C   UNL     1      40.226 -15.504   1.921  1.00  0.00     0.030 A 
HETATM   15  C   UNL     1      42.049 -13.438   2.543  1.00  0.00     0.014 A 
HETATM   16  C   UNL     1      41.681 -13.695   1.216  1.00  0.00     0.001 A 
HETATM   17  C   UNL     1      40.783 -14.714   0.913  1.00  0.00     0.002 A 
ENDBRANCH   6   7
ENDBRANCH   1   5
BRANCH   2  18
HETATM   18  C   UNL     1      45.884 -10.740   7.099  1.00  0.00     0.227 C 
BRANCH  18  19
HETATM   19  N   UNL     1      45.218 -10.588   8.383  1.00  0.00    -0.348 N 
HETATM   20  C   UNL     1      44.948  -9.347   8.912  1.00  0.00     0.252 C 
HETATM   21  O   UNL     1      45.345  -8.307   8.395  1.00  0.00    -0.268 OA
HETATM   22  H   UNL     1      45.115 -11.415   8.958  1.00  0.00     0.163 HD
BRANCH  20  23
HETATM   23  C   UNL     1      44.191  -9.327  10.191  1.00  0.00     0.032 A 
HETATM   24  C   UNL     1      43.669  -8.111  10.646  1.00  0.00     0.018 A 
HETATM   25  C   UNL     1      42.936  -8.064  11.836  1.00  0.00     0.025 A 
HETATM   26  C   UNL     1      42.715  -9.236  12.559  1.00  0.00     0.034 A 
HETATM   27 CL   UNL     1      41.804  -9.182  14.018  1.00  0.00    -0.084 Cl
HETATM   28  C   UNL     1      43.219 -10.454  12.104  1.00  0.00     0.025 A 
HETATM   29  C   UNL     1      43.957 -10.503  10.918  1.00  0.00     0.018 A 
ENDBRANCH  20  23
ENDBRANCH  18  19
ENDBRANCH   2  18
TORSDOF 5
ENDMDL
MODEL 7
REMARK VINA RESULT:      -8.1      6.551      9.173
REMARK  5 active torsions:
REMARK  status: ('A' for Active; 'I' for Inactive)
REMARK    1  A    between atoms: C_7  and  C_8 
REMARK    2  A    between atoms: N_9  and  N_10 
REMARK       I    between atoms: N_10  and  C_11 
REMARK    3  A    between atoms: C_11  and  C_12 
REMARK    4  A    between atoms: C_12  and  N_13 
REMARK       I    between atoms: N_13  and  C_14 
REMARK    5  A    between atoms: C_14  and  C_15 
ROOT
HETATM    1  N   UNL     1      44.149 -12.869   6.577  1.00  0.00    -0.246 N 
HETATM    2  C   UNL     1      44.839 -11.673   6.448  1.00  0.00     0.255 C 
HETATM    3  O   UNL     1      45.029 -11.058   5.401  1.00  0.00    -0.270 OA
HETATM    4  H   UNL     1      43.977 -13.246   7.515  1.00  0.00     0.192 HD
ENDROOT
BRANCH   1   5
HETATM    5  N   UNL     1      43.668 -13.511   5.476  1.00  0.00    -0.184 NA
HETATM    6  C   UNL     1      43.070 -14.636   5.704  1.00  0.00     0.153 C 
BRANCH   6   7
HETATM    7  C   UNL     1      42.543 -15.423   4.602  1.00  0.00     0.018 A 
HETATM    8  C   UNL     1      41.442 -15.122   3.810  1.00  0.00     0.018 A 
HETATM    9  C   UNL     1      40.503 -13.966   3.836  1.00  0.00     0.069 C 
HETATM   10  N   UNL     1      41.304 -16.126   2.886  1.00  0.00    -0.358 N 
HETATM   11  H   UNL     1      40.585 -16.165   2.177  1.00  0.00     0.166 HD
HETATM   12  C   UNL     1      42.285 -17.074   3.047  1.00  0.00     0.043 A 
HETATM   13  C   UNL     1      43.078 -16.664   4.118  1.00  0.00     0.004 A 
HETATM   14  C   UNL     1      42.523 -18.251   2.327  1.00  0.00     0.030 A 
HETATM   15  C   UNL     1      44.172 -17.479   4.487  1.00  0.00     0.014 A 
HETATM   16  C   UNL     1      44.425 -18.660   3.779  1.00  0.00     0.001 A 
HETATM   17  C   UNL     1      43.611 -19.038   2.715  1.00  0.00     0.002 A 
ENDBRANCH   6   7
ENDBRANCH   1   5
BRANCH   2  18
HETATM   18  C   UNL     1      45.417 -11.185   7.777  1.00  0.00     0.227 C 
BRANCH  18  19
HETATM   19  N   UNL     1      44.727 -10.024   8.316  1.00  0.00    -0.348 N 
HETATM   20  C   UNL     1      44.412  -9.929   9.652  1.00  0.00     0.252 C 
HETATM   21  O   UNL     1      44.591 -10.851  10.441  1.00  0.00    -0.268 OA
HETATM   22  H   UNL     1      44.329  -9.368   7.656  1.00  0.00     0.163 HD
BRANCH  20  23
HETATM   23  C   UNL     1      43.780  -8.656  10.090  1.00  0.00     0.032 A 
HETATM   24  C   UNL     1      43.643  -7.618   9.161  1.00  0.00     0.018 A 
HETATM   25  C   UNL     1      43.037  -6.416   9.538  1.00  0.00     0.025 A 
HETATM   26  C   UNL     1      42.556  -6.261  10.837  1.00  0.00     0.034 A 
HETATM   27 CL   UNL     1      41.800  -4.787  11.300  1.00  0.00    -0.084 Cl
HETATM   28  C   UNL     1      42.675  -7.296  11.765  1.00  0.00     0.025 A 
HETATM   29  C   UNL     1      43.287  -8.497  11.392  1.00  0.00     0.018 A 
ENDBRANCH  20  23
ENDBRANCH  18  19
ENDBRANCH   2  18
TORSDOF 5
ENDMDL
MODEL 8
REMARK VINA RESULT:      -8.0      3.753      4.422
REMARK  5 active torsions:
REMARK  status: ('A' for Active; 'I' for Inactive)
REMARK    1  A    between atoms: C_7  and  C_8 
REMARK    2  A    between atoms: N_9  and  N_10 
REMARK       I    between atoms: N_10  and  C_11 
REMARK    3  A    between atoms: C_11  and  C_12 
REMARK    4  A    between atoms: C_12  and  N_13 
REMARK       I    between atoms: N_13  and  C_14 
REMARK    5  A    between atoms: C_14  and  C_15 
ROOT
HETATM    1  N   UNL     1      41.238 -13.800   0.150  1.00  0.00    -0.246 N 
HETATM    2  C   UNL     1      40.280 -14.417  -0.640  1.00  0.00     0.255 C 
HETATM    3  O   UNL     1      39.542 -15.338  -0.294  1.00  0.00    -0.270 OA
HETATM    4  H   UNL     1      41.734 -12.982  -0.218  1.00  0.00     0.192 HD
ENDROOT
BRANCH   1   5
HETATM    5  N   UNL     1      41.485 -14.247   1.413  1.00  0.00    -0.184 NA
HETATM    6  C   UNL     1      42.563 -14.948   1.554  1.00  0.00     0.153 C 
BRANCH   6   7
HETATM    7  C   UNL     1      42.912 -15.504   2.851  1.00  0.00     0.018 A 
HETATM    8  C   UNL     1      42.951 -14.831   4.065  1.00  0.00     0.018 A 
HETATM    9  C   UNL     1      42.669 -13.409   4.408  1.00  0.00     0.069 C 
HETATM   10  N   UNL     1      43.318 -15.733   5.032  1.00  0.00    -0.358 N 
HETATM   11  H   UNL     1      43.424 -15.519   6.014  1.00  0.00     0.166 HD
HETATM   12  C   UNL     1      43.516 -16.977   4.485  1.00  0.00     0.043 A 
HETATM   13  C   UNL     1      43.271 -16.868   3.117  1.00  0.00     0.004 A 
HETATM   14  C   UNL     1      43.888 -18.179   5.100  1.00  0.00     0.030 A 
HETATM   15  C   UNL     1      43.407 -18.027   2.321  1.00  0.00     0.014 A 
HETATM   16  C   UNL     1      43.778 -19.237   2.919  1.00  0.00     0.001 A 
HETATM   17  C   UNL     1      44.015 -19.310   4.289  1.00  0.00     0.002 A 
ENDBRANCH   6   7
ENDBRANCH   1   5
BRANCH   2  18
HETATM   18  C   UNL     1      40.251 -13.862  -2.065  1.00  0.00     0.227 C 
BRANCH  18  19
HETATM   19  N   UNL     1      40.898 -12.566  -2.194  1.00  0.00    -0.348 N 
HETATM   20  C   UNL     1      40.189 -11.437  -2.532  1.00  0.00     0.252 C 
HETATM   21  O   UNL     1      39.005 -11.470  -2.851  1.00  0.00    -0.268 OA
HETATM   22  H   UNL     1      41.910 -12.547  -2.199  1.00  0.00     0.163 HD
BRANCH  20  23
HETATM   23  C   UNL     1      40.953 -10.162  -2.551  1.00  0.00     0.032 A 
HETATM   24  C   UNL     1      41.720  -9.820  -1.431  1.00  0.00     0.018 A 
HETATM   25  C   UNL     1      42.464  -8.636  -1.426  1.00  0.00     0.025 A 
HETATM   26  C   UNL     1      42.450  -7.805  -2.545  1.00  0.00     0.034 A 
HETATM   27 CL   UNL     1      43.373  -6.354  -2.545  1.00  0.00    -0.084 Cl
HETATM   28  C   UNL     1      41.700  -8.146  -3.671  1.00  0.00     0.025 A 
HETATM   29  C   UNL     1      40.950  -9.326  -3.676  1.00  0.00     0.018 A 
ENDBRANCH  20  23
ENDBRANCH  18  19
ENDBRANCH   2  18
TORSDOF 5
ENDMDL
MODEL 9
REMARK VINA RESULT:      -7.9      2.023      2.302
REMARK  5 active torsions:
REMARK  status: ('A' for Active; 'I' for Inactive)
REMARK    1  A    between atoms: C_7  and  C_8 
REMARK    2  A    between atoms: N_9  and  N_10 
REMARK       I    between atoms: N_10  and  C_11 
REMARK    3  A    between atoms: C_11  and  C_12 
REMARK    4  A    between atoms: C_12  and  N_13 
REMARK       I    between atoms: N_13  and  C_14 
REMARK    5  A    between atoms: C_14  and  C_15 
ROOT
HETATM    1  N   UNL     1      42.422 -14.651   1.283  1.00  0.00    -0.246 N 
HETATM    2  C   UNL     1      41.122 -14.205   1.101  1.00  0.00     0.255 C 
HETATM    3  O   UNL     1      40.109 -14.717   1.573  1.00  0.00    -0.270 OA
HETATM    4  H   UNL     1      43.196 -14.091   0.913  1.00  0.00     0.192 HD
ENDROOT
BRANCH   1   5
HETATM    5  N   UNL     1      42.669 -15.794   1.982  1.00  0.00    -0.184 NA
HETATM    6  C   UNL     1      43.212 -15.630   3.144  1.00  0.00     0.153 C 
BRANCH   6   7
HETATM    7  C   UNL     1      43.548 -16.780   3.967  1.00  0.00     0.018 A 
HETATM    8  C   UNL     1      43.878 -16.775   5.316  1.00  0.00     0.018 A 
HETATM    9  C   UNL     1      43.990 -15.658   6.294  1.00  0.00     0.069 C 
HETATM   10  N   UNL     1      44.112 -18.073   5.694  1.00  0.00    -0.358 N 
HETATM   11  H   UNL     1      44.369 -18.367   6.626  1.00  0.00     0.166 HD
HETATM   12  C   UNL     1      43.940 -18.927   4.633  1.00  0.00     0.043 A 
HETATM   13  C   UNL     1      43.588 -18.147   3.532  1.00  0.00     0.004 A 
HETATM   14  C   UNL     1      44.069 -20.320   4.571  1.00  0.00     0.030 A 
HETATM   15  C   UNL     1      43.351 -18.800   2.301  1.00  0.00     0.014 A 
HETATM   16  C   UNL     1      43.475 -20.192   2.221  1.00  0.00     0.001 A 
HETATM   17  C   UNL     1      43.830 -20.939   3.341  1.00  0.00     0.002 A 
ENDBRANCH   6   7
ENDBRANCH   1   5
BRANCH   2  18
HETATM   18  C   UNL     1      41.045 -12.990   0.175  1.00  0.00     0.227 C 
BRANCH  18  19
HETATM   19  N   UNL     1      39.826 -12.943  -0.617  1.00  0.00    -0.348 N 
HETATM   20  C   UNL     1      39.191 -11.753  -0.892  1.00  0.00     0.252 C 
HETATM   21  O   UNL     1      39.544 -10.686  -0.401  1.00  0.00    -0.268 OA
HETATM   22  H   UNL     1      39.362 -13.820  -0.815  1.00  0.00     0.163 HD
BRANCH  20  23
HETATM   23  C   UNL     1      38.002 -11.833  -1.780  1.00  0.00     0.032 A 
HETATM   24  C   UNL     1      37.617 -13.083  -2.280  1.00  0.00     0.018 A 
HETATM   25  C   UNL     1      36.492 -13.192  -3.103  1.00  0.00     0.025 A 
HETATM   26  C   UNL     1      35.747 -12.055  -3.412  1.00  0.00     0.034 A 
HETATM   27 CL   UNL     1      34.356 -12.189  -4.415  1.00  0.00    -0.084 Cl
HETATM   28  C   UNL     1      36.115 -10.808  -2.906  1.00  0.00     0.025 A 
HETATM   29  C   UNL     1      37.244 -10.695  -2.087  1.00  0.00     0.018 A 
ENDBRANCH  20  23
ENDBRANCH  18  19
ENDBRANCH   2  18
TORSDOF 5
ENDMDL
MODEL 10
REMARK VINA RESULT:      -7.8      5.275      8.424
REMARK  5 active torsions:
REMARK  status: ('A' for Active; 'I' for Inactive)
REMARK    1  A    between atoms: C_7  and  C_8 
REMARK    2  A    between atoms: N_9  and  N_10 
REMARK       I    between atoms: N_10  and  C_11 
REMARK    3  A    between atoms: C_11  and  C_12 
REMARK    4  A    between atoms: C_12  and  N_13 
REMARK       I    between atoms: N_13  and  C_14 
REMARK    5  A    between atoms: C_14  and  C_15 
ROOT
HETATM    1  N   UNL     1      42.379 -12.555   5.304  1.00  0.00    -0.246 N 
HETATM    2  C   UNL     1      41.063 -12.950   5.109  1.00  0.00     0.255 C 
HETATM    3  O   UNL     1      40.148 -12.842   5.923  1.00  0.00    -0.270 OA
HETATM    4  H   UNL     1      43.036 -12.612   4.521  1.00  0.00     0.192 HD
ENDROOT
BRANCH   1   5
HETATM    5  N   UNL     1      42.779 -12.057   6.508  1.00  0.00    -0.184 NA
HETATM    6  C   UNL     1      43.321 -10.883   6.471  1.00  0.00     0.153 C 
BRANCH   6   7
HETATM    7  C   UNL     1      43.814 -10.265   7.691  1.00  0.00     0.018 A 
HETATM    8  C   UNL     1      45.134 -10.199   8.120  1.00  0.00     0.018 A 
HETATM    9  C   UNL     1      46.391 -10.712   7.509  1.00  0.00     0.069 C 
HETATM   10  N   UNL     1      45.152  -9.521   9.313  1.00  0.00    -0.358 N 
HETATM   11  H   UNL     1      45.983  -9.322   9.853  1.00  0.00     0.166 HD
HETATM   12  C   UNL     1      43.884  -9.138   9.674  1.00  0.00     0.043 A 
HETATM   13  C   UNL     1      43.019  -9.591   8.678  1.00  0.00     0.004 A 
HETATM   14  C   UNL     1      43.446  -8.428  10.800  1.00  0.00     0.030 A 
HETATM   15  C   UNL     1      41.640  -9.318   8.818  1.00  0.00     0.014 A 
HETATM   16  C   UNL     1      41.185  -8.609   9.936  1.00  0.00     0.001 A 
HETATM   17  C   UNL     1      42.077  -8.172  10.912  1.00  0.00     0.002 A 
ENDBRANCH   6   7
ENDBRANCH   1   5
BRANCH   2  18
HETATM   18  C   UNL     1      40.847 -13.608   3.746  1.00  0.00     0.227 C 
BRANCH  18  19
HETATM   19  N   UNL     1      41.322 -14.981   3.686  1.00  0.00    -0.348 N 
HETATM   20  C   UNL     1      42.597 -15.284   3.268  1.00  0.00     0.252 C 
HETATM   21  O   UNL     1      43.366 -14.438   2.821  1.00  0.00    -0.268 OA
HETATM   22  H   UNL     1      40.637 -15.719   3.792  1.00  0.00     0.163 HD
BRANCH  20  23
HETATM   23  C   UNL     1      42.987 -16.718   3.330  1.00  0.00     0.032 A 
HETATM   24  C   UNL     1      42.721 -17.536   2.225  1.00  0.00     0.018 A 
HETATM   25  C   UNL     1      43.093 -18.884   2.247  1.00  0.00     0.025 A 
HETATM   26  C   UNL     1      43.740 -19.406   3.366  1.00  0.00     0.034 A 
HETATM   27 CL   UNL     1      44.207 -21.061   3.390  1.00  0.00    -0.084 Cl
HETATM   28  C   UNL     1      44.022 -18.593   4.465  1.00  0.00     0.025 A 
HETATM   29  C   UNL     1      43.646 -17.246   4.448  1.00  0.00     0.018 A 
ENDBRANCH  20  23
ENDBRANCH  18  19
ENDBRANCH   2  18
TORSDOF 5
ENDMDL
