MODEL 1
REMARK VINA RESULT:      -7.5      0.000      0.000
REMARK  7 active torsions:
REMARK  status: ('A' for Active; 'I' for Inactive)
REMARK    1  A    between atoms: O_2  and  C_3 
REMARK    2  A    between atoms: C_4  and  O_5 
REMARK    3  A    between atoms: C_9  and  C_10 
REMARK    4  A    between atoms: C_10  and  N_11 
REMARK    5  A    between atoms: C_14  and  C_15 
REMARK    6  A    between atoms: C_15  and  N_16 
REMARK    7  A    between atoms: N_16  and  C_17 
ROOT
HETATM    1  N   UNL     1      41.748 -14.742   2.182  1.00  0.00    -0.067 N 
HETATM    2  H   UNL     1      41.544 -15.644   1.726  1.00  0.00     0.280 HD
HETATM    3  C   UNL     1      41.609 -13.666   1.121  1.00  0.00     0.241 C 
HETATM    4  C   UNL     1      40.617 -12.664   1.712  1.00  0.00     0.031 C 
HETATM    5  C   UNL     1      39.699 -13.563   2.534  1.00  0.00     0.035 C 
HETATM    6  C   UNL     1      40.673 -14.508   3.220  1.00  0.00     0.235 C 
ENDROOT
BRANCH   1   7
HETATM    7  C   UNL     1      43.130 -14.894   2.780  1.00  0.00     0.273 C 
BRANCH   7   8
HETATM    8  C   UNL     1      43.338 -16.233   3.436  1.00  0.00    -0.028 A 
HETATM    9  C   UNL     1      43.367 -17.403   2.657  1.00  0.00     0.031 A 
HETATM   10  C   UNL     1      43.603 -18.644   3.253  1.00  0.00     0.047 A 
HETATM   11  C   UNL     1      43.804 -18.724   4.630  1.00  0.00     0.116 A 
HETATM   12 BR   UNL     1      43.650 -20.179   2.145  1.00  0.00    -0.048 Br
HETATM   13  C   UNL     1      43.759 -17.574   5.428  1.00  0.00     0.103 A 
HETATM   14  C   UNL     1      43.526 -16.333   4.829  1.00  0.00     0.048 A 
BRANCH  11  15
HETATM   15  O   UNL     1      44.049 -19.936   5.219  1.00  0.00    -0.357 OA
HETATM   16  H   UNL     1      43.225 -20.457   5.145  1.00  0.00     0.218 HD
ENDBRANCH  11  15
BRANCH  13  17
HETATM   17  O   UNL     1      43.975 -17.792   6.763  1.00  0.00    -0.353 OA
HETATM   18  C   UNL     1      43.708 -16.721   7.660  1.00  0.00     0.210 C 
ENDBRANCH  13  17
ENDBRANCH   7   8
ENDBRANCH   1   7
BRANCH   4  19
HETATM   19  C   UNL     1      39.910 -11.842   0.628  1.00  0.00     0.127 C 
BRANCH  19  20
HETATM   20  N   UNL     1      38.667 -12.484   0.205  1.00  0.00    -0.376 N 
HETATM   21  H   UNL     1      37.974 -12.666   0.921  1.00  0.00     0.161 HD
BRANCH  20  22
HETATM   22  C   UNL     1      38.563 -13.143  -1.006  1.00  0.00     0.100 A 
HETATM   23  N   UNL     1      37.400 -13.055  -1.680  1.00  0.00    -0.353 N 
HETATM   24  H   UNL     1      36.650 -12.511  -1.268  1.00  0.00     0.166 HD
HETATM   25  C   UNL     1      37.180 -13.628  -2.874  1.00  0.00     0.089 A 
HETATM   26  C   UNL     1      38.181 -14.360  -3.489  1.00  0.00     0.017 A 
HETATM   27  C   UNL     1      39.405 -14.479  -2.850  1.00  0.00     0.005 A 
HETATM   28  C   UNL     1      39.600 -13.867  -1.611  1.00  0.00     0.048 A 
ENDBRANCH  20  22
ENDBRANCH  19  20
ENDBRANCH   4  19
TORSDOF 7
ENDMDL
MODEL 2
REMARK VINA RESULT:      -7.4      3.434      6.402
REMARK  7 active torsions:
REMARK  status: ('A' for Active; 'I' for Inactive)
REMARK    1  A    between atoms: O_2  and  C_3 
REMARK    2  A    between atoms: C_4  and  O_5 
REMARK    3  A    between atoms: C_9  and  C_10 
REMARK    4  A    between atoms: C_10  and  N_11 
REMARK    5  A    between atoms: C_14  and  C_15 
REMARK    6  A    between atoms: C_15  and  N_16 
REMARK    7  A    between atoms: N_16  and  C_17 
ROOT
HETATM    1  N   UNL     1      41.770 -14.252   2.477  1.00  0.00    -0.067 N 
HETATM    2  H   UNL     1      41.198 -13.929   1.682  1.00  0.00     0.280 HD
HETATM    3  C   UNL     1      42.244 -13.014   3.217  1.00  0.00     0.241 C 
HETATM    4  C   UNL     1      41.804 -13.233   4.664  1.00  0.00     0.031 C 
HETATM    5  C   UNL     1      40.507 -14.018   4.493  1.00  0.00     0.035 C 
HETATM    6  C   UNL     1      40.857 -15.021   3.406  1.00  0.00     0.235 C 
ENDROOT
BRANCH   1   7
HETATM    7  C   UNL     1      42.861 -15.107   1.871  1.00  0.00     0.273 C 
BRANCH   7   8
HETATM    8  C   UNL     1      43.205 -16.303   2.719  1.00  0.00    -0.028 A 
HETATM    9  C   UNL     1      43.224 -17.588   2.149  1.00  0.00     0.031 A 
HETATM   10  C   UNL     1      43.584 -18.697   2.918  1.00  0.00     0.047 A 
HETATM   11  C   UNL     1      43.919 -18.530   4.260  1.00  0.00     0.116 A 
HETATM   12 BR   UNL     1      43.611 -20.398   2.086  1.00  0.00    -0.048 Br
HETATM   13  C   UNL     1      43.886 -17.262   4.854  1.00  0.00     0.103 A 
HETATM   14  C   UNL     1      43.529 -16.153   4.082  1.00  0.00     0.048 A 
BRANCH  11  15
HETATM   15  O   UNL     1      44.285 -19.611   5.017  1.00  0.00    -0.357 OA
HETATM   16  H   UNL     1      44.844 -20.177   4.450  1.00  0.00     0.218 HD
ENDBRANCH  11  15
BRANCH  13  17
HETATM   17  O   UNL     1      44.239 -17.237   6.177  1.00  0.00    -0.353 OA
HETATM   18  C   UNL     1      43.291 -16.725   7.106  1.00  0.00     0.210 C 
ENDBRANCH  13  17
ENDBRANCH   7   8
ENDBRANCH   1   7
BRANCH   4  19
HETATM   19  C   UNL     1      41.661 -11.914   5.432  1.00  0.00     0.127 C 
BRANCH  19  20
HETATM   20  N   UNL     1      42.222 -12.022   6.777  1.00  0.00    -0.376 N 
HETATM   21  H   UNL     1      41.573 -12.196   7.536  1.00  0.00     0.161 HD
BRANCH  20  22
HETATM   22  C   UNL     1      43.490 -11.559   7.077  1.00  0.00     0.100 A 
HETATM   23  N   UNL     1      43.686 -10.975   8.274  1.00  0.00    -0.353 N 
HETATM   24  H   UNL     1      42.895 -10.897   8.903  1.00  0.00     0.166 HD
HETATM   25  C   UNL     1      44.872 -10.504   8.693  1.00  0.00     0.089 A 
HETATM   26  C   UNL     1      45.989 -10.609   7.881  1.00  0.00     0.017 A 
HETATM   27  C   UNL     1      45.853 -11.210   6.641  1.00  0.00     0.005 A 
HETATM   28  C   UNL     1      44.606 -11.690   6.238  1.00  0.00     0.048 A 
ENDBRANCH  20  22
ENDBRANCH  19  20
ENDBRANCH   4  19
TORSDOF 7
ENDMDL
MODEL 3
REMARK VINA RESULT:      -7.4      4.397      8.357
REMARK  7 active torsions:
REMARK  status: ('A' for Active; 'I' for Inactive)
REMARK    1  A    between atoms: O_2  and  C_3 
REMARK    2  A    between atoms: C_4  and  O_5 
REMARK    3  A    between atoms: C_9  and  C_10 
REMARK    4  A    between atoms: C_10  and  N_11 
REMARK    5  A    between atoms: C_14  and  C_15 
REMARK    6  A    between atoms: C_15  and  N_16 
REMARK    7  A    between atoms: N_16  and  C_17 
ROOT
HETATM    1  N   UNL     1      40.761 -13.881   2.743  1.00  0.00    -0.067 N 
HETATM    2  H   UNL     1      41.302 -13.081   2.382  1.00  0.00     0.280 HD
HETATM    3  C   UNL     1      41.727 -15.042   2.890  1.00  0.00     0.241 C 
HETATM    4  C   UNL     1      41.573 -15.495   4.341  1.00  0.00     0.031 C 
HETATM    5  C   UNL     1      41.268 -14.184   5.059  1.00  0.00     0.035 C 
HETATM    6  C   UNL     1      40.276 -13.508   4.126  1.00  0.00     0.235 C 
ENDROOT
BRANCH   1   7
HETATM    7  C   UNL     1      39.636 -14.089   1.753  1.00  0.00     0.273 C 
BRANCH   7   8
HETATM    8  C   UNL     1      39.929 -13.490   0.403  1.00  0.00    -0.028 A 
HETATM    9  C   UNL     1      40.552 -12.234   0.310  1.00  0.00     0.031 A 
HETATM   10  C   UNL     1      40.866 -11.690  -0.938  1.00  0.00     0.047 A 
HETATM   11  C   UNL     1      40.553 -12.395  -2.098  1.00  0.00     0.116 A 
HETATM   12 BR   UNL     1      41.725 -10.004  -0.994  1.00  0.00    -0.048 Br
HETATM   13  C   UNL     1      39.912 -13.639  -2.031  1.00  0.00     0.103 A 
HETATM   14  C   UNL     1      39.602 -14.182  -0.780  1.00  0.00     0.048 A 
BRANCH  11  15
HETATM   15  O   UNL     1      40.868 -11.874  -3.325  1.00  0.00    -0.357 OA
HETATM   16  H   UNL     1      40.684 -12.572  -3.985  1.00  0.00     0.218 HD
ENDBRANCH  11  15
BRANCH  13  17
HETATM   17  O   UNL     1      39.663 -14.224  -3.243  1.00  0.00    -0.353 OA
HETATM   18  C   UNL     1      38.365 -14.763  -3.464  1.00  0.00     0.210 C 
ENDBRANCH  13  17
ENDBRANCH   7   8
ENDBRANCH   1   7
BRANCH   4  19
HETATM   19  C   UNL     1      42.815 -16.233   4.852  1.00  0.00     0.127 C 
BRANCH  19  20
HETATM   20  N   UNL     1      43.568 -16.829   3.749  1.00  0.00    -0.376 N 
HETATM   21  H   UNL     1      43.784 -16.230   2.961  1.00  0.00     0.161 HD
BRANCH  20  22
HETATM   22  C   UNL     1      43.669 -18.199   3.593  1.00  0.00     0.100 A 
HETATM   23  N   UNL     1      44.060 -18.931   4.654  1.00  0.00    -0.353 N 
HETATM   24  H   UNL     1      44.266 -18.446   5.520  1.00  0.00     0.166 HD
HETATM   25  C   UNL     1      44.176 -20.269   4.639  1.00  0.00     0.089 A 
HETATM   26  C   UNL     1      43.883 -20.980   3.488  1.00  0.00     0.017 A 
HETATM   27  C   UNL     1      43.465 -20.284   2.366  1.00  0.00     0.005 A 
HETATM   28  C   UNL     1      43.353 -18.894   2.417  1.00  0.00     0.048 A 
ENDBRANCH  20  22
ENDBRANCH  19  20
ENDBRANCH   4  19
TORSDOF 7
ENDMDL
MODEL 4
REMARK VINA RESULT:      -7.2      4.320      8.227
REMARK  7 active torsions:
REMARK  status: ('A' for Active; 'I' for Inactive)
REMARK    1  A    between atoms: O_2  and  C_3 
REMARK    2  A    between atoms: C_4  and  O_5 
REMARK    3  A    between atoms: C_9  and  C_10 
REMARK    4  A    between atoms: C_10  and  N_11 
REMARK    5  A    between atoms: C_14  and  C_15 
REMARK    6  A    between atoms: C_15  and  N_16 
REMARK    7  A    between atoms: N_16  and  C_17 
ROOT
HETATM    1  N   UNL     1      41.595 -14.288   2.582  1.00  0.00    -0.067 N 
HETATM    2  H   UNL     1      42.185 -14.423   1.747  1.00  0.00     0.280 HD
HETATM    3  C   UNL     1      41.494 -15.634   3.277  1.00  0.00     0.241 C 
HETATM    4  C   UNL     1      41.944 -15.365   4.712  1.00  0.00     0.031 C 
HETATM    5  C   UNL     1      42.988 -14.269   4.525  1.00  0.00     0.035 C 
HETATM    6  C   UNL     1      42.334 -13.347   3.507  1.00  0.00     0.235 C 
ENDROOT
BRANCH   1   7
HETATM    7  C   UNL     1      40.291 -13.719   2.070  1.00  0.00     0.273 C 
BRANCH   7   8
HETATM    8  C   UNL     1      40.321 -13.428   0.593  1.00  0.00    -0.028 A 
HETATM    9  C   UNL     1      39.650 -14.274  -0.306  1.00  0.00     0.031 A 
HETATM   10  C   UNL     1      39.637 -13.987  -1.673  1.00  0.00     0.047 A 
HETATM   11  C   UNL     1      40.299 -12.857  -2.149  1.00  0.00     0.116 A 
HETATM   12 BR   UNL     1      38.698 -15.156  -2.829  1.00  0.00    -0.048 Br
HETATM   13  C   UNL     1      40.992 -12.011  -1.274  1.00  0.00     0.103 A 
HETATM   14  C   UNL     1      41.001 -12.299   0.094  1.00  0.00     0.048 A 
BRANCH  11  15
HETATM   15  O   UNL     1      40.280 -12.561  -3.486  1.00  0.00    -0.357 OA
HETATM   16  H   UNL     1      39.594 -11.876  -3.615  1.00  0.00     0.218 HD
ENDBRANCH  11  15
BRANCH  13  17
HETATM   17  O   UNL     1      41.596 -10.937  -1.871  1.00  0.00    -0.353 OA
HETATM   18  C   UNL     1      41.050  -9.647  -1.622  1.00  0.00     0.210 C 
ENDBRANCH  13  17
ENDBRANCH   7   8
ENDBRANCH   1   7
BRANCH   4  19
HETATM   19  C   UNL     1      42.460 -16.632   5.404  1.00  0.00     0.127 C 
BRANCH  19  20
HETATM   20  N   UNL     1      43.691 -17.113   4.778  1.00  0.00    -0.376 N 
HETATM   21  H   UNL     1      44.390 -16.418   4.542  1.00  0.00     0.161 HD
BRANCH  20  22
HETATM   22  C   UNL     1      43.773 -18.366   4.200  1.00  0.00     0.100 A 
HETATM   23  N   UNL     1      44.020 -19.420   5.001  1.00  0.00    -0.353 N 
HETATM   24  H   UNL     1      44.138 -19.248   5.993  1.00  0.00     0.166 HD
HETATM   25  C   UNL     1      44.101 -20.688   4.567  1.00  0.00     0.089 A 
HETATM   26  C   UNL     1      43.922 -20.977   3.225  1.00  0.00     0.017 A 
HETATM   27  C   UNL     1      43.655 -19.935   2.352  1.00  0.00     0.005 A 
HETATM   28  C   UNL     1      43.575 -18.630   2.837  1.00  0.00     0.048 A 
ENDBRANCH  20  22
ENDBRANCH  19  20
ENDBRANCH   4  19
TORSDOF 7
ENDMDL
MODEL 5
REMARK VINA RESULT:      -7.2      4.733      8.204
REMARK  7 active torsions:
REMARK  status: ('A' for Active; 'I' for Inactive)
REMARK    1  A    between atoms: O_2  and  C_3 
REMARK    2  A    between atoms: C_4  and  O_5 
REMARK    3  A    between atoms: C_9  and  C_10 
REMARK    4  A    between atoms: C_10  and  N_11 
REMARK    5  A    between atoms: C_14  and  C_15 
REMARK    6  A    between atoms: C_15  and  N_16 
REMARK    7  A    between atoms: N_16  and  C_17 
ROOT
HETATM    1  N   UNL     1      41.098 -15.240   6.707  1.00  0.00    -0.067 N 
HETATM    2  H   UNL     1      40.393 -14.993   7.419  1.00  0.00     0.280 HD
HETATM    3  C   UNL     1      41.724 -13.941   6.233  1.00  0.00     0.241 C 
HETATM    4  C   UNL     1      43.227 -14.141   6.427  1.00  0.00     0.031 C 
HETATM    5  C   UNL     1      43.278 -15.031   7.664  1.00  0.00     0.035 C 
HETATM    6  C   UNL     1      42.175 -16.044   7.401  1.00  0.00     0.235 C 
ENDROOT
BRANCH   1   7
HETATM    7  C   UNL     1      40.351 -16.027   5.654  1.00  0.00     0.273 C 
BRANCH   7   8
HETATM    8  C   UNL     1      41.066 -16.052   4.328  1.00  0.00    -0.028 A 
HETATM    9  C   UNL     1      40.667 -15.184   3.297  1.00  0.00     0.031 A 
HETATM   10  C   UNL     1      41.352 -15.171   2.080  1.00  0.00     0.047 A 
HETATM   11  C   UNL     1      42.434 -16.027   1.884  1.00  0.00     0.116 A 
HETATM   12 BR   UNL     1      40.778 -13.964   0.738  1.00  0.00    -0.048 Br
HETATM   13  C   UNL     1      42.835 -16.915   2.890  1.00  0.00     0.103 A 
HETATM   14  C   UNL     1      42.150 -16.925   4.109  1.00  0.00     0.048 A 
BRANCH  11  15
HETATM   15  O   UNL     1      43.118 -16.011   0.698  1.00  0.00    -0.357 OA
HETATM   16  H   UNL     1      42.707 -15.318   0.144  1.00  0.00     0.218 HD
ENDBRANCH  11  15
BRANCH  13  17
HETATM   17  O   UNL     1      43.911 -17.699   2.570  1.00  0.00    -0.353 OA
HETATM   18  C   UNL     1      43.782 -19.105   2.746  1.00  0.00     0.210 C 
ENDBRANCH  13  17
ENDBRANCH   7   8
ENDBRANCH   1   7
BRANCH   4  19
HETATM   19  C   UNL     1      43.975 -12.809   6.562  1.00  0.00     0.127 C 
BRANCH  19  20
HETATM   20  N   UNL     1      43.306 -11.921   7.511  1.00  0.00    -0.376 N 
HETATM   21  H   UNL     1      42.316 -11.755   7.369  1.00  0.00     0.161 HD
BRANCH  20  22
HETATM   22  C   UNL     1      44.016 -11.062   8.329  1.00  0.00     0.100 A 
HETATM   23  N   UNL     1      43.589 -10.893   9.595  1.00  0.00    -0.353 N 
HETATM   24  H   UNL     1      42.763 -11.401   9.893  1.00  0.00     0.166 HD
HETATM   25  C   UNL     1      44.202 -10.106  10.494  1.00  0.00     0.089 A 
HETATM   26  C   UNL     1      45.347  -9.411  10.145  1.00  0.00     0.017 A 
HETATM   27  C   UNL     1      45.842  -9.552   8.858  1.00  0.00     0.005 A 
HETATM   28  C   UNL     1      45.181 -10.380   7.950  1.00  0.00     0.048 A 
ENDBRANCH  20  22
ENDBRANCH  19  20
ENDBRANCH   4  19
TORSDOF 7
ENDMDL
MODEL 6
REMARK VINA RESULT:      -7.1      6.295      9.578
REMARK  7 active torsions:
REMARK  status: ('A' for Active; 'I' for Inactive)
REMARK    1  A    between atoms: O_2  and  C_3 
REMARK    2  A    between atoms: C_4  and  O_5 
REMARK    3  A    between atoms: C_9  and  C_10 
REMARK    4  A    between atoms: C_10  and  N_11 
REMARK    5  A    between atoms: C_14  and  C_15 
REMARK    6  A    between atoms: C_15  and  N_16 
REMARK    7  A    between atoms: N_16  and  C_17 
ROOT
HETATM    1  N   UNL     1      44.365 -12.170   6.911  1.00  0.00    -0.067 N 
HETATM    2  H   UNL     1      44.666 -13.119   7.182  1.00  0.00     0.280 HD
HETATM    3  C   UNL     1      43.972 -11.448   8.187  1.00  0.00     0.241 C 
HETATM    4  C   UNL     1      44.802 -10.165   8.178  1.00  0.00     0.031 C 
HETATM    5  C   UNL     1      46.085 -10.613   7.486  1.00  0.00     0.035 C 
HETATM    6  C   UNL     1      45.571 -11.463   6.334  1.00  0.00     0.235 C 
ENDROOT
BRANCH   1   7
HETATM    7  C   UNL     1      43.252 -12.369   5.906  1.00  0.00     0.273 C 
BRANCH   7   8
HETATM    8  C   UNL     1      43.262 -13.742   5.288  1.00  0.00    -0.028 A 
HETATM    9  C   UNL     1      42.842 -13.919   3.959  1.00  0.00     0.031 A 
HETATM   10  C   UNL     1      42.889 -15.183   3.364  1.00  0.00     0.047 A 
HETATM   11  C   UNL     1      43.350 -16.275   4.096  1.00  0.00     0.116 A 
HETATM   12 BR   UNL     1      42.328 -15.351   1.564  1.00  0.00    -0.048 Br
HETATM   13  C   UNL     1      43.754 -16.126   5.429  1.00  0.00     0.103 A 
HETATM   14  C   UNL     1      43.709 -14.860   6.020  1.00  0.00     0.048 A 
BRANCH  11  15
HETATM   15  O   UNL     1      43.411 -17.514   3.517  1.00  0.00    -0.357 OA
HETATM   16  H   UNL     1      42.868 -18.112   4.068  1.00  0.00     0.218 HD
ENDBRANCH  11  15
BRANCH  13  17
HETATM   17  O   UNL     1      44.185 -17.277   6.032  1.00  0.00    -0.353 OA
HETATM   18  C   UNL     1      43.332 -17.879   6.998  1.00  0.00     0.210 C 
ENDBRANCH  13  17
ENDBRANCH   7   8
ENDBRANCH   1   7
BRANCH   4  19
HETATM   19  C   UNL     1      44.999  -9.593   9.587  1.00  0.00     0.127 C 
BRANCH  19  20
HETATM   20  N   UNL     1      44.273 -10.380  10.583  1.00  0.00    -0.376 N 
HETATM   21  H   UNL     1      44.160 -11.369  10.397  1.00  0.00     0.161 HD
BRANCH  20  22
HETATM   22  C   UNL     1      43.467  -9.784  11.536  1.00  0.00     0.100 A 
HETATM   23  N   UNL     1      42.403 -10.474  11.989  1.00  0.00    -0.353 N 
HETATM   24  H   UNL     1      42.237 -11.399  11.609  1.00  0.00     0.166 HD
HETATM   25  C   UNL     1      41.558 -10.017  12.927  1.00  0.00     0.089 A 
HETATM   26  C   UNL     1      41.756  -8.770  13.494  1.00  0.00     0.017 A 
HETATM   27  C   UNL     1      42.840  -8.015  13.077  1.00  0.00     0.005 A 
HETATM   28  C   UNL     1      43.700  -8.522  12.101  1.00  0.00     0.048 A 
ENDBRANCH  20  22
ENDBRANCH  19  20
ENDBRANCH   4  19
TORSDOF 7
ENDMDL
MODEL 7
REMARK VINA RESULT:      -7.1      4.831      7.667
REMARK  7 active torsions:
REMARK  status: ('A' for Active; 'I' for Inactive)
REMARK    1  A    between atoms: O_2  and  C_3 
REMARK    2  A    between atoms: C_4  and  O_5 
REMARK    3  A    between atoms: C_9  and  C_10 
REMARK    4  A    between atoms: C_10  and  N_11 
REMARK    5  A    between atoms: C_14  and  C_15 
REMARK    6  A    between atoms: C_15  and  N_16 
REMARK    7  A    between atoms: N_16  and  C_17 
ROOT
HETATM    1  N   UNL     1      42.352 -13.892   6.546  1.00  0.00    -0.067 N 
HETATM    2  H   UNL     1      42.458 -13.471   7.482  1.00  0.00     0.280 HD
HETATM    3  C   UNL     1      43.356 -15.027   6.455  1.00  0.00     0.241 C 
HETATM    4  C   UNL     1      42.527 -16.249   6.062  1.00  0.00     0.031 C 
HETATM    5  C   UNL     1      41.197 -15.974   6.755  1.00  0.00     0.035 C 
HETATM    6  C   UNL     1      40.967 -14.497   6.479  1.00  0.00     0.235 C 
ENDROOT
BRANCH   1   7
HETATM    7  C   UNL     1      42.557 -12.759   5.566  1.00  0.00     0.273 C 
BRANCH   7   8
HETATM    8  C   UNL     1      41.475 -12.688   4.521  1.00  0.00    -0.028 A 
HETATM    9  C   UNL     1      41.359 -13.703   3.556  1.00  0.00     0.031 A 
HETATM   10  C   UNL     1      40.331 -13.666   2.611  1.00  0.00     0.047 A 
HETATM   11  C   UNL     1      39.419 -12.614   2.621  1.00  0.00     0.116 A 
HETATM   12 BR   UNL     1      40.219 -15.075   1.350  1.00  0.00    -0.048 Br
HETATM   13  C   UNL     1      39.527 -11.581   3.560  1.00  0.00     0.103 A 
HETATM   14  C   UNL     1      40.554 -11.621   4.507  1.00  0.00     0.048 A 
BRANCH  11  15
HETATM   15  O   UNL     1      38.401 -12.578   1.705  1.00  0.00    -0.357 OA
HETATM   16  H   UNL     1      38.620 -11.871   1.066  1.00  0.00     0.218 HD
ENDBRANCH  11  15
BRANCH  13  17
HETATM   17  O   UNL     1      38.566 -10.610   3.461  1.00  0.00    -0.353 OA
HETATM   18  C   UNL     1      38.372  -9.753   4.580  1.00  0.00     0.210 C 
ENDBRANCH  13  17
ENDBRANCH   7   8
ENDBRANCH   1   7
BRANCH   4  19
HETATM   19  C   UNL     1      43.204 -17.563   6.468  1.00  0.00     0.127 C 
BRANCH  19  20
HETATM   20  N   UNL     1      44.249 -17.936   5.515  1.00  0.00    -0.376 N 
HETATM   21  H   UNL     1      45.118 -17.415   5.556  1.00  0.00     0.161 HD
BRANCH  20  22
HETATM   22  C   UNL     1      43.972 -18.685   4.387  1.00  0.00     0.100 A 
HETATM   23  N   UNL     1      44.143 -20.019   4.453  1.00  0.00    -0.353 N 
HETATM   24  H   UNL     1      44.471 -20.416   5.327  1.00  0.00     0.166 HD
HETATM   25  C   UNL     1      43.888 -20.858   3.436  1.00  0.00     0.089 A 
HETATM   26  C   UNL     1      43.416 -20.368   2.231  1.00  0.00     0.017 A 
HETATM   27  C   UNL     1      43.210 -19.004   2.104  1.00  0.00     0.005 A 
HETATM   28  C   UNL     1      43.483 -18.161   3.182  1.00  0.00     0.048 A 
ENDBRANCH  20  22
ENDBRANCH  19  20
ENDBRANCH   4  19
TORSDOF 7
ENDMDL
MODEL 8
REMARK VINA RESULT:      -7.0      4.491      7.607
REMARK  7 active torsions:
REMARK  status: ('A' for Active; 'I' for Inactive)
REMARK    1  A    between atoms: O_2  and  C_3 
REMARK    2  A    between atoms: C_4  and  O_5 
REMARK    3  A    between atoms: C_9  and  C_10 
REMARK    4  A    between atoms: C_10  and  N_11 
REMARK    5  A    between atoms: C_14  and  C_15 
REMARK    6  A    between atoms: C_15  and  N_16 
REMARK    7  A    between atoms: N_16  and  C_17 
ROOT
HETATM    1  N   UNL     1      41.052 -13.969   6.506  1.00  0.00    -0.067 N 
HETATM    2  H   UNL     1      41.113 -13.544   7.444  1.00  0.00     0.280 HD
HETATM    3  C   UNL     1      42.475 -14.189   6.024  1.00  0.00     0.241 C 
HETATM    4  C   UNL     1      42.536 -15.671   5.657  1.00  0.00     0.031 C 
HETATM    5  C   UNL     1      41.579 -16.295   6.667  1.00  0.00     0.035 C 
HETATM    6  C   UNL     1      40.407 -15.327   6.668  1.00  0.00     0.235 C 
ENDROOT
BRANCH   1   7
HETATM    7  C   UNL     1      40.225 -13.010   5.679  1.00  0.00     0.273 C 
BRANCH   7   8
HETATM    8  C   UNL     1      40.580 -13.044   4.216  1.00  0.00    -0.028 A 
HETATM    9  C   UNL     1      40.229 -14.156   3.432  1.00  0.00     0.031 A 
HETATM   10  C   UNL     1      40.517 -14.175   2.064  1.00  0.00     0.047 A 
HETATM   11  C   UNL     1      41.161 -13.089   1.477  1.00  0.00     0.116 A 
HETATM   12 BR   UNL     1      40.000 -15.694   1.059  1.00  0.00    -0.048 Br
HETATM   13  C   UNL     1      41.538 -11.979   2.243  1.00  0.00     0.103 A 
HETATM   14  C   UNL     1      41.247 -11.960   3.610  1.00  0.00     0.048 A 
BRANCH  11  15
HETATM   15  O   UNL     1      41.435 -13.096   0.135  1.00  0.00    -0.357 OA
HETATM   16  H   UNL     1      42.406 -13.037   0.044  1.00  0.00     0.218 HD
ENDBRANCH  11  15
BRANCH  13  17
HETATM   17  O   UNL     1      42.161 -10.981   1.543  1.00  0.00    -0.353 OA
HETATM   18  C   UNL     1      41.406  -9.815   1.238  1.00  0.00     0.210 C 
ENDBRANCH  13  17
ENDBRANCH   7   8
ENDBRANCH   1   7
BRANCH   4  19
HETATM   19  C   UNL     1      43.967 -16.220   5.703  1.00  0.00     0.127 C 
BRANCH  19  20
HETATM   20  N   UNL     1      43.977 -17.641   6.049  1.00  0.00    -0.376 N 
HETATM   21  H   UNL     1      44.302 -17.888   6.977  1.00  0.00     0.161 HD
BRANCH  20  22
HETATM   22  C   UNL     1      43.909 -18.626   5.082  1.00  0.00     0.100 A 
HETATM   23  N   UNL     1      43.827 -18.245   3.792  1.00  0.00    -0.353 N 
HETATM   24  H   UNL     1      43.815 -17.252   3.587  1.00  0.00     0.166 HD
HETATM   25  C   UNL     1      43.777 -19.102   2.760  1.00  0.00     0.089 A 
HETATM   26  C   UNL     1      43.815 -20.467   2.985  1.00  0.00     0.017 A 
HETATM   27  C   UNL     1      43.910 -20.922   4.291  1.00  0.00     0.005 A 
HETATM   28  C   UNL     1      43.962 -20.003   5.340  1.00  0.00     0.048 A 
ENDBRANCH  20  22
ENDBRANCH  19  20
ENDBRANCH   4  19
TORSDOF 7
ENDMDL
MODEL 9
REMARK VINA RESULT:      -7.0      6.487      9.940
REMARK  7 active torsions:
REMARK  status: ('A' for Active; 'I' for Inactive)
REMARK    1  A    between atoms: O_2  and  C_3 
REMARK    2  A    between atoms: C_4  and  O_5 
REMARK    3  A    between atoms: C_9  and  C_10 
REMARK    4  A    between atoms: C_10  and  N_11 
REMARK    5  A    between atoms: C_14  and  C_15 
REMARK    6  A    between atoms: C_15  and  N_16 
REMARK    7  A    between atoms: N_16  and  C_17 
ROOT
HETATM    1  N   UNL     1      44.416 -11.849   6.386  1.00  0.00    -0.067 N 
HETATM    2  H   UNL     1      44.482 -12.872   6.503  1.00  0.00     0.280 HD
HETATM    3  C   UNL     1      43.839 -11.291   7.675  1.00  0.00     0.241 C 
HETATM    4  C   UNL     1      44.841 -10.227   8.121  1.00  0.00     0.031 C 
HETATM    5  C   UNL     1      46.166 -10.806   7.636  1.00  0.00     0.035 C 
HETATM    6  C   UNL     1      45.825 -11.319   6.246  1.00  0.00     0.235 C 
ENDROOT
BRANCH   1   7
HETATM    7  C   UNL     1      43.572 -11.636   5.149  1.00  0.00     0.273 C 
BRANCH   7   8
HETATM    8  C   UNL     1      42.696 -12.818   4.829  1.00  0.00    -0.028 A 
HETATM    9  C   UNL     1      42.957 -14.068   5.416  1.00  0.00     0.031 A 
HETATM   10  C   UNL     1      42.122 -15.158   5.158  1.00  0.00     0.047 A 
HETATM   11  C   UNL     1      41.028 -15.007   4.309  1.00  0.00     0.116 A 
HETATM   12 BR   UNL     1      42.517 -16.810   5.996  1.00  0.00    -0.048 Br
HETATM   13  C   UNL     1      40.761 -13.776   3.697  1.00  0.00     0.103 A 
HETATM   14  C   UNL     1      41.596 -12.686   3.959  1.00  0.00     0.048 A 
BRANCH  11  15
HETATM   15  O   UNL     1      40.199 -16.068   4.062  1.00  0.00    -0.357 OA
HETATM   16  H   UNL     1      39.532 -16.079   4.777  1.00  0.00     0.218 HD
ENDBRANCH  11  15
BRANCH  13  17
HETATM   17  O   UNL     1      39.656 -13.764   2.888  1.00  0.00    -0.353 OA
HETATM   18  C   UNL     1      39.858 -13.567   1.494  1.00  0.00     0.210 C 
ENDBRANCH  13  17
ENDBRANCH   7   8
ENDBRANCH   1   7
BRANCH   4  19
HETATM   19  C   UNL     1      44.769  -9.959   9.629  1.00  0.00     0.127 C 
BRANCH  19  20
HETATM   20  N   UNL     1      43.454 -10.308  10.166  1.00  0.00    -0.376 N 
HETATM   21  H   UNL     1      42.802 -10.757   9.533  1.00  0.00     0.161 HD
BRANCH  20  22
HETATM   22  C   UNL     1      42.973  -9.748  11.334  1.00  0.00     0.100 A 
HETATM   23  N   UNL     1      41.881 -10.298  11.899  1.00  0.00    -0.353 N 
HETATM   24  H   UNL     1      41.457 -11.097  11.441  1.00  0.00     0.166 HD
HETATM   25  C   UNL     1      41.330  -9.862  13.043  1.00  0.00     0.089 A 
HETATM   26  C   UNL     1      41.885  -8.791  13.720  1.00  0.00     0.017 A 
HETATM   27  C   UNL     1      43.018  -8.189  13.195  1.00  0.00     0.005 A 
HETATM   28  C   UNL     1      43.566  -8.669  12.004  1.00  0.00     0.048 A 
ENDBRANCH  20  22
ENDBRANCH  19  20
ENDBRANCH   4  19
TORSDOF 7
ENDMDL
MODEL 10
REMARK VINA RESULT:      -6.9      4.441      7.706
REMARK  7 active torsions:
REMARK  status: ('A' for Active; 'I' for Inactive)
REMARK    1  A    between atoms: O_2  and  C_3 
REMARK    2  A    between atoms: C_4  and  O_5 
REMARK    3  A    between atoms: C_9  and  C_10 
REMARK    4  A    between atoms: C_10  and  N_11 
REMARK    5  A    between atoms: C_14  and  C_15 
REMARK    6  A    between atoms: C_15  and  N_16 
REMARK    7  A    between atoms: N_16  and  C_17 
ROOT
HETATM    1  N   UNL     1      43.178 -13.709   3.754  1.00  0.00    -0.067 N 
HETATM    2  H   UNL     1      44.154 -14.039   3.803  1.00  0.00     0.280 HD
HETATM    3  C   UNL     1      42.801 -13.230   5.145  1.00  0.00     0.241 C 
HETATM    4  C   UNL     1      42.302 -11.800   4.941  1.00  0.00     0.031 C 
HETATM    5  C   UNL     1      43.163 -11.319   3.778  1.00  0.00     0.035 C 
HETATM    6  C   UNL     1      43.155 -12.510   2.833  1.00  0.00     0.235 C 
ENDROOT
BRANCH   1   7
HETATM    7  C   UNL     1      42.379 -14.881   3.229  1.00  0.00     0.273 C 
BRANCH   7   8
HETATM    8  C   UNL     1      42.932 -16.210   3.671  1.00  0.00    -0.028 A 
HETATM    9  C   UNL     1      43.051 -16.502   5.040  1.00  0.00     0.031 A 
HETATM   10  C   UNL     1      43.523 -17.749   5.459  1.00  0.00     0.047 A 
HETATM   11  C   UNL     1      43.883 -18.706   4.512  1.00  0.00     0.116 A 
HETATM   12 BR   UNL     1      43.640 -18.088   7.318  1.00  0.00    -0.048 Br
HETATM   13  C   UNL     1      43.792 -18.429   3.143  1.00  0.00     0.103 A 
HETATM   14  C   UNL     1      43.317 -17.182   2.726  1.00  0.00     0.048 A 
BRANCH  11  15
HETATM   15  O   UNL     1      44.333 -19.935   4.915  1.00  0.00    -0.357 OA
HETATM   16  H   UNL     1      43.766 -20.215   5.660  1.00  0.00     0.218 HD
ENDBRANCH  11  15
BRANCH  13  17
HETATM   17  O   UNL     1      44.175 -19.455   2.321  1.00  0.00    -0.353 OA
HETATM   18  C   UNL     1      43.153 -20.267   1.755  1.00  0.00     0.210 C 
ENDBRANCH  13  17
ENDBRANCH   7   8
ENDBRANCH   1   7
BRANCH   4  19
HETATM   19  C   UNL     1      42.417 -10.959   6.218  1.00  0.00     0.127 C 
BRANCH  19  20
HETATM   20  N   UNL     1      43.295 -11.601   7.196  1.00  0.00    -0.376 N 
HETATM   21  H   UNL     1      43.204 -12.604   7.309  1.00  0.00     0.161 HD
BRANCH  20  22
HETATM   22  C   UNL     1      43.949 -10.875   8.173  1.00  0.00     0.100 A 
HETATM   23  N   UNL     1      43.460 -10.915   9.428  1.00  0.00    -0.353 N 
HETATM   24  H   UNL     1      42.631 -11.474   9.600  1.00  0.00     0.166 HD
HETATM   25  C   UNL     1      44.015 -10.274  10.469  1.00  0.00     0.089 A 
HETATM   26  C   UNL     1      45.161  -9.518  10.291  1.00  0.00     0.017 A 
HETATM   27  C   UNL     1      45.718  -9.446   9.024  1.00  0.00     0.005 A 
HETATM   28  C   UNL     1      45.116 -10.127   7.965  1.00  0.00     0.048 A 
ENDBRANCH  20  22
ENDBRANCH  19  20
ENDBRANCH   4  19
TORSDOF 7
ENDMDL
