MODEL 1
REMARK VINA RESULT:      -8.3      0.000      0.000
REMARK  5 active torsions:
REMARK  status: ('A' for Active; 'I' for Inactive)
REMARK    1  A    between atoms: C_8  and  C_9 
REMARK       I    between atoms: C_9  and  N_10 
REMARK    2  A    between atoms: N_10  and  C_11 
REMARK    3  A    between atoms: C_14  and  N_15 
REMARK       I    between atoms: N_15  and  C_16 
REMARK       I    between atoms: C_16  and  N_17 
REMARK    4  A    between atoms: N_17  and  C_18 
REMARK    5  A    between atoms: C_18  and  C_19 
ROOT
HETATM    1  C   UNL     1      40.603 -14.228   2.977  1.00  0.00     0.035 A 
HETATM    2  C   UNL     1      39.811 -13.220   3.527  1.00  0.00     0.032 A 
HETATM    3  C   UNL     1      39.123 -12.315   2.699  1.00  0.00     0.032 A 
HETATM    4  C   UNL     1      39.205 -12.416   1.311  1.00  0.00     0.036 A 
HETATM    5  C   UNL     1      40.033 -13.401   0.763  1.00  0.00     0.032 A 
HETATM    6  C   UNL     1      40.719 -14.301   1.586  1.00  0.00     0.032 A 
ENDROOT
BRANCH   1   7
HETATM    7  N   UNL     1      41.320 -15.186   3.725  1.00  0.00    -0.322 N 
HETATM    8  C   UNL     1      42.687 -15.412   3.744  1.00  0.00     0.274 C 
HETATM    9  O   UNL     1      43.504 -14.757   3.109  1.00  0.00    -0.266 OA
HETATM   10  H   UNL     1      40.764 -15.723   4.375  1.00  0.00     0.169 HD
BRANCH   8  11
HETATM   11  C   UNL     1      43.080 -16.493   4.627  1.00  0.00     0.126 A 
HETATM   12  N   UNL     1      43.349 -17.801   4.246  1.00  0.00    -0.300 N 
HETATM   13  C   UNL     1      43.323 -18.415   2.988  1.00  0.00     0.106 A 
HETATM   14  C   UNL     1      43.712 -18.489   5.404  1.00  0.00     0.134 A 
HETATM   15  C   UNL     1      43.654 -19.715   2.864  1.00  0.00    -0.046 A 
HETATM   16  C   UNL     1      43.646 -20.454   1.562  1.00  0.00     0.049 C 
HETATM   17  C   UNL     1      44.043 -20.449   4.065  1.00  0.00     0.012 A 
HETATM   18  C   UNL     1      44.070 -19.860   5.274  1.00  0.00     0.051 A 
HETATM   19  N   UNL     1      43.660 -17.720   6.468  1.00  0.00    -0.240 NA
HETATM   20  C   UNL     1      43.256 -16.501   6.002  1.00  0.00     0.155 A 
ENDBRANCH   8  11
ENDBRANCH   1   7
BRANCH   4  21
HETATM   21  N   UNL     1      38.556 -11.569   0.398  1.00  0.00    -0.309 N 
HETATM   22  C   UNL     1      37.846 -11.777  -0.743  1.00  0.00     0.320 C 
HETATM   23  N   UNL     1      37.906 -13.004  -1.319  1.00  0.00    -0.339 N 
HETATM   24  O   UNL     1      37.232 -10.829  -1.231  1.00  0.00    -0.247 OA
HETATM   25  H   UNL     1      38.721 -13.554  -1.100  1.00  0.00     0.164 HD
HETATM   26  H   UNL     1      38.586 -10.577   0.605  1.00  0.00     0.170 HD
BRANCH  23  27
HETATM   27  C   UNL     1      37.277 -13.277  -2.589  1.00  0.00     0.150 C 
BRANCH  27  28
HETATM   28  C   UNL     1      38.020 -14.338  -3.346  1.00  0.00    -0.018 C 
HETATM   29  C   UNL     1      38.803 -15.306  -2.847  1.00  0.00     0.008 C 
ENDBRANCH  27  28
ENDBRANCH  23  27
ENDBRANCH   4  21
TORSDOF 5
ENDMDL
MODEL 2
REMARK VINA RESULT:      -8.2      1.929      2.435
REMARK  5 active torsions:
REMARK  status: ('A' for Active; 'I' for Inactive)
REMARK    1  A    between atoms: C_8  and  C_9 
REMARK       I    between atoms: C_9  and  N_10 
REMARK    2  A    between atoms: N_10  and  C_11 
REMARK    3  A    between atoms: C_14  and  N_15 
REMARK       I    between atoms: N_15  and  C_16 
REMARK       I    between atoms: C_16  and  N_17 
REMARK    4  A    between atoms: N_17  and  C_18 
REMARK    5  A    between atoms: C_18  and  C_19 
ROOT
HETATM    1  C   UNL     1      40.676 -14.423   1.918  1.00  0.00     0.035 A 
HETATM    2  C   UNL     1      40.160 -13.156   2.193  1.00  0.00     0.032 A 
HETATM    3  C   UNL     1      39.472 -12.431   1.205  1.00  0.00     0.032 A 
HETATM    4  C   UNL     1      39.277 -12.968  -0.067  1.00  0.00     0.036 A 
HETATM    5  C   UNL     1      39.832 -14.220  -0.353  1.00  0.00     0.032 A 
HETATM    6  C   UNL     1      40.517 -14.942   0.630  1.00  0.00     0.032 A 
ENDROOT
BRANCH   1   7
HETATM    7  N   UNL     1      41.369 -15.228   2.847  1.00  0.00    -0.322 N 
HETATM    8  C   UNL     1      42.730 -15.261   3.107  1.00  0.00     0.274 C 
HETATM    9  O   UNL     1      43.554 -14.535   2.564  1.00  0.00    -0.266 OA
HETATM   10  H   UNL     1      40.783 -15.800   3.437  1.00  0.00     0.169 HD
BRANCH   8  11
HETATM   11  C   UNL     1      43.099 -16.225   4.124  1.00  0.00     0.126 A 
HETATM   12  N   UNL     1      43.361 -17.573   3.916  1.00  0.00    -0.300 N 
HETATM   13  C   UNL     1      43.347 -18.340   2.745  1.00  0.00     0.106 A 
HETATM   14  C   UNL     1      43.700 -18.112   5.157  1.00  0.00     0.134 A 
HETATM   15  C   UNL     1      43.668 -19.648   2.790  1.00  0.00    -0.046 A 
HETATM   16  C   UNL     1      43.671 -20.545   1.592  1.00  0.00     0.049 C 
HETATM   17  C   UNL     1      44.032 -20.228   4.080  1.00  0.00     0.012 A 
HETATM   18  C   UNL     1      44.046 -19.491   5.206  1.00  0.00     0.051 A 
HETATM   19  N   UNL     1      43.640 -17.215   6.114  1.00  0.00    -0.240 NA
HETATM   20  C   UNL     1      43.254 -16.061   5.492  1.00  0.00     0.155 A 
ENDBRANCH   8  11
ENDBRANCH   1   7
BRANCH   4  21
HETATM   21  N   UNL     1      38.602 -12.331  -1.121  1.00  0.00    -0.309 N 
HETATM   22  C   UNL     1      38.998 -11.541  -2.155  1.00  0.00     0.320 C 
HETATM   23  N   UNL     1      40.253 -11.026  -2.123  1.00  0.00    -0.339 N 
HETATM   24  O   UNL     1      38.182 -11.282  -3.038  1.00  0.00    -0.247 OA
HETATM   25  H   UNL     1      40.673 -10.947  -1.211  1.00  0.00     0.164 HD
HETATM   26  H   UNL     1      37.600 -12.478  -1.168  1.00  0.00     0.170 HD
BRANCH  23  27
HETATM   27  C   UNL     1      40.713 -10.089  -3.119  1.00  0.00     0.150 C 
BRANCH  27  28
HETATM   28  C   UNL     1      41.313  -8.871  -2.482  1.00  0.00    -0.018 C 
HETATM   29  C   UNL     1      42.186  -8.822  -1.465  1.00  0.00     0.008 C 
ENDBRANCH  27  28
ENDBRANCH  23  27
ENDBRANCH   4  21
TORSDOF 5
ENDMDL
MODEL 3
REMARK VINA RESULT:      -8.2      5.690      8.569
REMARK  5 active torsions:
REMARK  status: ('A' for Active; 'I' for Inactive)
REMARK    1  A    between atoms: C_8  and  C_9 
REMARK       I    between atoms: C_9  and  N_10 
REMARK    2  A    between atoms: N_10  and  C_11 
REMARK    3  A    between atoms: C_14  and  N_15 
REMARK       I    between atoms: N_15  and  C_16 
REMARK       I    between atoms: C_16  and  N_17 
REMARK    4  A    between atoms: N_17  and  C_18 
REMARK    5  A    between atoms: C_18  and  C_19 
ROOT
HETATM    1  C   UNL     1      43.540 -11.932   6.235  1.00  0.00     0.035 A 
HETATM    2  C   UNL     1      44.590 -11.923   7.153  1.00  0.00     0.032 A 
HETATM    3  C   UNL     1      44.624 -10.979   8.194  1.00  0.00     0.032 A 
HETATM    4  C   UNL     1      43.603 -10.042   8.341  1.00  0.00     0.036 A 
HETATM    5  C   UNL     1      42.573 -10.027   7.393  1.00  0.00     0.032 A 
HETATM    6  C   UNL     1      42.539 -10.965   6.356  1.00  0.00     0.032 A 
ENDROOT
BRANCH   1   7
HETATM    7  N   UNL     1      43.414 -12.845   5.166  1.00  0.00    -0.322 N 
HETATM    8  C   UNL     1      42.611 -13.972   5.090  1.00  0.00     0.274 C 
HETATM    9  O   UNL     1      41.836 -14.327   5.970  1.00  0.00    -0.266 OA
HETATM   10  H   UNL     1      43.928 -12.601   4.332  1.00  0.00     0.169 HD
BRANCH   8  11
HETATM   11  C   UNL     1      42.742 -14.691   3.838  1.00  0.00     0.126 A 
HETATM   12  N   UNL     1      43.103 -16.025   3.697  1.00  0.00    -0.300 N 
HETATM   13  C   UNL     1      43.420 -16.996   4.653  1.00  0.00     0.106 A 
HETATM   14  C   UNL     1      43.079 -16.303   2.330  1.00  0.00     0.134 A 
HETATM   15  C   UNL     1      43.718 -18.252   4.268  1.00  0.00    -0.046 A 
HETATM   16  C   UNL     1      44.077 -19.351   5.219  1.00  0.00     0.049 C 
HETATM   17  C   UNL     1      43.692 -18.563   2.841  1.00  0.00     0.012 A 
HETATM   18  C   UNL     1      43.387 -17.631   1.921  1.00  0.00     0.051 A 
HETATM   19  N   UNL     1      42.763 -15.245   1.619  1.00  0.00    -0.240 NA
HETATM   20  C   UNL     1      42.574 -14.249   2.535  1.00  0.00     0.155 A 
ENDBRANCH   8  11
ENDBRANCH   1   7
BRANCH   4  21
HETATM   21  N   UNL     1      43.540  -9.062   9.345  1.00  0.00    -0.309 N 
HETATM   22  C   UNL     1      43.158  -9.070  10.651  1.00  0.00     0.320 C 
HETATM   23  N   UNL     1      42.477 -10.150  11.110  1.00  0.00    -0.339 N 
HETATM   24  O   UNL     1      43.396  -8.077  11.335  1.00  0.00    -0.247 OA
HETATM   25  H   UNL     1      41.985 -10.688  10.416  1.00  0.00     0.164 HD
HETATM   26  H   UNL     1      43.853  -8.133   9.087  1.00  0.00     0.170 HD
BRANCH  23  27
HETATM   27  C   UNL     1      41.936 -10.191  12.448  1.00  0.00     0.150 C 
BRANCH  27  28
HETATM   28  C   UNL     1      40.450  -9.986  12.439  1.00  0.00    -0.018 C 
HETATM   29  C   UNL     1      39.514 -10.735  13.040  1.00  0.00     0.008 C 
ENDBRANCH  27  28
ENDBRANCH  23  27
ENDBRANCH   4  21
TORSDOF 5
ENDMDL
MODEL 4
REMARK VINA RESULT:      -8.2      6.062      8.756
REMARK  5 active torsions:
REMARK  status: ('A' for Active; 'I' for Inactive)
REMARK    1  A    between atoms: C_8  and  C_9 
REMARK       I    between atoms: C_9  and  N_10 
REMARK    2  A    between atoms: N_10  and  C_11 
REMARK    3  A    between atoms: C_14  and  N_15 
REMARK       I    between atoms: N_15  and  C_16 
REMARK       I    between atoms: C_16  and  N_17 
REMARK    4  A    between atoms: N_17  and  C_18 
REMARK    5  A    between atoms: C_18  and  C_19 
ROOT
HETATM    1  C   UNL     1      43.954 -12.168   6.683  1.00  0.00     0.035 A 
HETATM    2  C   UNL     1      45.001 -11.587   7.398  1.00  0.00     0.032 A 
HETATM    3  C   UNL     1      44.875 -10.293   7.933  1.00  0.00     0.032 A 
HETATM    4  C   UNL     1      43.695  -9.569   7.774  1.00  0.00     0.036 A 
HETATM    5  C   UNL     1      42.662 -10.137   7.022  1.00  0.00     0.032 A 
HETATM    6  C   UNL     1      42.787 -11.424   6.488  1.00  0.00     0.032 A 
ENDROOT
BRANCH   1   7
HETATM    7  N   UNL     1      43.984 -13.461   6.120  1.00  0.00    -0.322 N 
HETATM    8  C   UNL     1      43.452 -14.633   6.634  1.00  0.00     0.274 C 
HETATM    9  O   UNL     1      42.823 -14.704   7.683  1.00  0.00    -0.266 OA
HETATM   10  H   UNL     1      44.386 -13.516   5.196  1.00  0.00     0.169 HD
BRANCH   8  11
HETATM   11  C   UNL     1      43.680 -15.789   5.789  1.00  0.00     0.126 A 
HETATM   12  N   UNL     1      42.963 -16.119   4.647  1.00  0.00    -0.300 N 
HETATM   13  C   UNL     1      41.888 -15.477   4.020  1.00  0.00     0.106 A 
HETATM   14  C   UNL     1      43.534 -17.286   4.138  1.00  0.00     0.134 A 
HETATM   15  C   UNL     1      41.367 -15.984   2.885  1.00  0.00    -0.046 A 
HETATM   16  C   UNL     1      40.214 -15.370   2.154  1.00  0.00     0.049 C 
HETATM   17  C   UNL     1      41.956 -17.202   2.336  1.00  0.00     0.012 A 
HETATM   18  C   UNL     1      42.989 -17.819   2.937  1.00  0.00     0.051 A 
HETATM   19  N   UNL     1      44.522 -17.716   4.889  1.00  0.00    -0.240 NA
HETATM   20  C   UNL     1      44.605 -16.815   5.912  1.00  0.00     0.155 A 
ENDBRANCH   8  11
ENDBRANCH   1   7
BRANCH   4  21
HETATM   21  N   UNL     1      43.465  -8.275   8.271  1.00  0.00    -0.309 N 
HETATM   22  C   UNL     1      43.104  -7.780   9.485  1.00  0.00     0.320 C 
HETATM   23  N   UNL     1      42.632  -8.648  10.415  1.00  0.00    -0.339 N 
HETATM   24  O   UNL     1      43.164  -6.564   9.662  1.00  0.00    -0.247 OA
HETATM   25  H   UNL     1      42.239  -9.504  10.059  1.00  0.00     0.164 HD
HETATM   26  H   UNL     1      43.603  -7.512   7.619  1.00  0.00     0.170 HD
BRANCH  23  27
HETATM   27  C   UNL     1      42.120  -8.193  11.686  1.00  0.00     0.150 C 
BRANCH  27  28
HETATM   28  C   UNL     1      43.212  -8.102  12.710  1.00  0.00    -0.018 C 
HETATM   29  C   UNL     1      43.191  -7.439  13.875  1.00  0.00     0.008 C 
ENDBRANCH  27  28
ENDBRANCH  23  27
ENDBRANCH   4  21
TORSDOF 5
ENDMDL
MODEL 5
REMARK VINA RESULT:      -8.1      2.886      9.147
REMARK  5 active torsions:
REMARK  status: ('A' for Active; 'I' for Inactive)
REMARK    1  A    between atoms: C_8  and  C_9 
REMARK       I    between atoms: C_9  and  N_10 
REMARK    2  A    between atoms: N_10  and  C_11 
REMARK    3  A    between atoms: C_14  and  N_15 
REMARK       I    between atoms: N_15  and  C_16 
REMARK       I    between atoms: C_16  and  N_17 
REMARK    4  A    between atoms: N_17  and  C_18 
REMARK    5  A    between atoms: C_18  and  C_19 
ROOT
HETATM    1  C   UNL     1      41.880 -14.642   1.840  1.00  0.00     0.035 A 
HETATM    2  C   UNL     1      42.870 -14.185   2.710  1.00  0.00     0.032 A 
HETATM    3  C   UNL     1      43.129 -14.854   3.919  1.00  0.00     0.032 A 
HETATM    4  C   UNL     1      42.412 -15.998   4.267  1.00  0.00     0.036 A 
HETATM    5  C   UNL     1      41.392 -16.430   3.412  1.00  0.00     0.032 A 
HETATM    6  C   UNL     1      41.133 -15.764   2.209  1.00  0.00     0.032 A 
ENDROOT
BRANCH   1   7
HETATM    7  N   UNL     1      41.558 -14.044   0.603  1.00  0.00    -0.322 N 
HETATM    8  C   UNL     1      40.499 -13.201   0.307  1.00  0.00     0.274 C 
HETATM    9  O   UNL     1      39.676 -12.813   1.128  1.00  0.00    -0.266 OA
HETATM   10  H   UNL     1      42.227 -14.204  -0.136  1.00  0.00     0.169 HD
BRANCH   8  11
HETATM   11  C   UNL     1      40.465 -12.781  -1.080  1.00  0.00     0.126 A 
HETATM   12  N   UNL     1      40.744 -11.505  -1.553  1.00  0.00    -0.300 N 
HETATM   13  C   UNL     1      41.114 -10.336  -0.878  1.00  0.00     0.106 A 
HETATM   14  C   UNL     1      40.617 -11.556  -2.941  1.00  0.00     0.134 A 
HETATM   15  C   UNL     1      41.361  -9.206  -1.569  1.00  0.00    -0.046 A 
HETATM   16  C   UNL     1      41.753  -7.910  -0.930  1.00  0.00     0.049 C 
HETATM   17  C   UNL     1      41.239  -9.243  -3.024  1.00  0.00     0.012 A 
HETATM   18  C   UNL     1      40.884 -10.366  -3.674  1.00  0.00     0.051 A 
HETATM   19  N   UNL     1      40.256 -12.749  -3.357  1.00  0.00    -0.240 NA
HETATM   20  C   UNL     1      40.143 -13.499  -2.221  1.00  0.00     0.155 A 
ENDBRANCH   8  11
ENDBRANCH   1   7
BRANCH   4  21
HETATM   21  N   UNL     1      42.594 -16.741   5.445  1.00  0.00    -0.309 N 
HETATM   22  C   UNL     1      43.252 -17.894   5.742  1.00  0.00     0.320 C 
HETATM   23  N   UNL     1      43.665 -18.678   4.715  1.00  0.00    -0.339 N 
HETATM   24  O   UNL     1      43.388 -18.201   6.925  1.00  0.00    -0.247 OA
HETATM   25  H   UNL     1      43.164 -18.567   3.848  1.00  0.00     0.164 HD
HETATM   26  H   UNL     1      42.173 -16.362   6.285  1.00  0.00     0.170 HD
BRANCH  23  27
HETATM   27  C   UNL     1      44.267 -19.970   4.942  1.00  0.00     0.150 C 
BRANCH  27  28
HETATM   28  C   UNL     1      43.990 -20.905   3.802  1.00  0.00    -0.018 C 
HETATM   29  C   UNL     1      43.636 -20.588   2.548  1.00  0.00     0.008 C 
ENDBRANCH  27  28
ENDBRANCH  23  27
ENDBRANCH   4  21
TORSDOF 5
ENDMDL
MODEL 6
REMARK VINA RESULT:      -7.9      1.742      2.788
REMARK  5 active torsions:
REMARK  status: ('A' for Active; 'I' for Inactive)
REMARK    1  A    between atoms: C_8  and  C_9 
REMARK       I    between atoms: C_9  and  N_10 
REMARK    2  A    between atoms: N_10  and  C_11 
REMARK    3  A    between atoms: C_14  and  N_15 
REMARK       I    between atoms: N_15  and  C_16 
REMARK       I    between atoms: C_16  and  N_17 
REMARK    4  A    between atoms: N_17  and  C_18 
REMARK    5  A    between atoms: C_18  and  C_19 
ROOT
HETATM    1  C   UNL     1      40.894 -14.286   0.942  1.00  0.00     0.035 A 
HETATM    2  C   UNL     1      40.066 -14.896   0.000  1.00  0.00     0.032 A 
HETATM    3  C   UNL     1      39.523 -14.158  -1.066  1.00  0.00     0.032 A 
HETATM    4  C   UNL     1      39.813 -12.802  -1.213  1.00  0.00     0.036 A 
HETATM    5  C   UNL     1      40.609 -12.183  -0.244  1.00  0.00     0.032 A 
HETATM    6  C   UNL     1      41.149 -12.917   0.818  1.00  0.00     0.032 A 
ENDROOT
BRANCH   1   7
HETATM    7  N   UNL     1      41.492 -14.946   2.036  1.00  0.00    -0.322 N 
HETATM    8  C   UNL     1      42.841 -15.103   2.310  1.00  0.00     0.274 C 
HETATM    9  O   UNL     1      43.744 -14.637   1.625  1.00  0.00    -0.266 OA
HETATM   10  H   UNL     1      40.847 -15.286   2.735  1.00  0.00     0.169 HD
BRANCH   8  11
HETATM   11  C   UNL     1      43.100 -15.853   3.523  1.00  0.00     0.126 A 
HETATM   12  N   UNL     1      43.360 -17.215   3.602  1.00  0.00    -0.300 N 
HETATM   13  C   UNL     1      43.444 -18.192   2.603  1.00  0.00     0.106 A 
HETATM   14  C   UNL     1      43.574 -17.505   4.949  1.00  0.00     0.134 A 
HETATM   15  C   UNL     1      43.740 -19.466   2.927  1.00  0.00    -0.046 A 
HETATM   16  C   UNL     1      43.842 -20.576   1.928  1.00  0.00     0.049 C 
HETATM   17  C   UNL     1      43.973 -19.787   4.333  1.00  0.00     0.012 A 
HETATM   18  C   UNL     1      43.893 -18.849   5.294  1.00  0.00     0.051 A 
HETATM   19  N   UNL     1      43.438 -16.441   5.708  1.00  0.00    -0.240 NA
HETATM   20  C   UNL     1      43.129 -15.430   4.843  1.00  0.00     0.155 A 
ENDBRANCH   8  11
ENDBRANCH   1   7
BRANCH   4  21
HETATM   21  N   UNL     1      39.327 -11.977  -2.240  1.00  0.00    -0.309 N 
HETATM   22  C   UNL     1      38.328 -11.057  -2.321  1.00  0.00     0.320 C 
HETATM   23  N   UNL     1      37.416 -11.015  -1.318  1.00  0.00    -0.339 N 
HETATM   24  O   UNL     1      38.264 -10.350  -3.325  1.00  0.00    -0.247 OA
HETATM   25  H   UNL     1      37.307 -11.863  -0.785  1.00  0.00     0.164 HD
HETATM   26  H   UNL     1      39.808 -12.037  -3.131  1.00  0.00     0.170 HD
BRANCH  23  27
HETATM   27  C   UNL     1      36.261 -10.150  -1.379  1.00  0.00     0.150 C 
BRANCH  27  28
HETATM   28  C   UNL     1      36.011  -9.485  -0.058  1.00  0.00    -0.018 C 
HETATM   29  C   UNL     1      34.839  -9.333   0.575  1.00  0.00     0.008 C 
ENDBRANCH  27  28
ENDBRANCH  23  27
ENDBRANCH   4  21
TORSDOF 5
ENDMDL
MODEL 7
REMARK VINA RESULT:      -7.7     14.679     16.980
REMARK  5 active torsions:
REMARK  status: ('A' for Active; 'I' for Inactive)
REMARK    1  A    between atoms: C_8  and  C_9 
REMARK       I    between atoms: C_9  and  N_10 
REMARK    2  A    between atoms: N_10  and  C_11 
REMARK    3  A    between atoms: C_14  and  N_15 
REMARK       I    between atoms: N_15  and  C_16 
REMARK       I    between atoms: C_16  and  N_17 
REMARK    4  A    between atoms: N_17  and  C_18 
REMARK    5  A    between atoms: C_18  and  C_19 
ROOT
HETATM    1  C   UNL     1      42.045 -31.253   3.432  1.00  0.00     0.035 A 
HETATM    2  C   UNL     1      41.643 -32.561   3.163  1.00  0.00     0.032 A 
HETATM    3  C   UNL     1      40.546 -33.128   3.836  1.00  0.00     0.032 A 
HETATM    4  C   UNL     1      39.827 -32.390   4.775  1.00  0.00     0.036 A 
HETATM    5  C   UNL     1      40.259 -31.093   5.073  1.00  0.00     0.032 A 
HETATM    6  C   UNL     1      41.351 -30.528   4.404  1.00  0.00     0.032 A 
ENDROOT
BRANCH   1   7
HETATM    7  N   UNL     1      43.123 -30.598   2.800  1.00  0.00    -0.322 N 
HETATM    8  C   UNL     1      43.087 -29.731   1.720  1.00  0.00     0.274 C 
HETATM    9  O   UNL     1      42.059 -29.371   1.158  1.00  0.00    -0.266 OA
HETATM   10  H   UNL     1      44.022 -30.731   3.242  1.00  0.00     0.169 HD
BRANCH   8  11
HETATM   11  C   UNL     1      44.395 -29.249   1.323  1.00  0.00     0.126 A 
HETATM   12  N   UNL     1      44.821 -29.021   0.021  1.00  0.00    -0.300 N 
HETATM   13  C   UNL     1      44.158 -29.178  -1.202  1.00  0.00     0.106 A 
HETATM   14  C   UNL     1      46.127 -28.540   0.105  1.00  0.00     0.134 A 
HETATM   15  C   UNL     1      44.781 -28.862  -2.354  1.00  0.00    -0.046 A 
HETATM   16  C   UNL     1      44.154 -29.005  -3.706  1.00  0.00     0.049 C 
HETATM   17  C   UNL     1      46.148 -28.351  -2.285  1.00  0.00     0.012 A 
HETATM   18  C   UNL     1      46.786 -28.199  -1.110  1.00  0.00     0.051 A 
HETATM   19  N   UNL     1      46.549 -28.481   1.347  1.00  0.00    -0.240 NA
HETATM   20  C   UNL     1      45.500 -28.931   2.097  1.00  0.00     0.155 A 
ENDBRANCH   8  11
ENDBRANCH   1   7
BRANCH   4  21
HETATM   21  N   UNL     1      38.718 -32.859   5.497  1.00  0.00    -0.309 N 
HETATM   22  C   UNL     1      37.469 -33.271   5.149  1.00  0.00     0.320 C 
HETATM   23  N   UNL     1      37.037 -33.005   3.891  1.00  0.00    -0.339 N 
HETATM   24  O   UNL     1      36.771 -33.810   6.006  1.00  0.00    -0.247 OA
HETATM   25  H   UNL     1      37.483 -32.232   3.425  1.00  0.00     0.164 HD
HETATM   26  H   UNL     1      38.835 -32.937   6.501  1.00  0.00     0.170 HD
BRANCH  23  27
HETATM   27  C   UNL     1      35.687 -33.305   3.474  1.00  0.00     0.150 C 
BRANCH  27  28
HETATM   28  C   UNL     1      35.614 -34.636   2.788  1.00  0.00    -0.018 C 
HETATM   29  C   UNL     1      35.276 -35.818   3.324  1.00  0.00     0.008 C 
ENDBRANCH  27  28
ENDBRANCH  23  27
ENDBRANCH   4  21
TORSDOF 5
ENDMDL
MODEL 8
REMARK VINA RESULT:      -7.7      2.340      8.585
REMARK  5 active torsions:
REMARK  status: ('A' for Active; 'I' for Inactive)
REMARK    1  A    between atoms: C_8  and  C_9 
REMARK       I    between atoms: C_9  and  N_10 
REMARK    2  A    between atoms: N_10  and  C_11 
REMARK    3  A    between atoms: C_14  and  N_15 
REMARK       I    between atoms: N_15  and  C_16 
REMARK       I    between atoms: C_16  and  N_17 
REMARK    4  A    between atoms: N_17  and  C_18 
REMARK    5  A    between atoms: C_18  and  C_19 
ROOT
HETATM    1  C   UNL     1      41.782 -14.486   2.952  1.00  0.00     0.035 A 
HETATM    2  C   UNL     1      40.838 -15.455   3.291  1.00  0.00     0.032 A 
HETATM    3  C   UNL     1      41.075 -16.348   4.351  1.00  0.00     0.032 A 
HETATM    4  C   UNL     1      42.252 -16.276   5.094  1.00  0.00     0.036 A 
HETATM    5  C   UNL     1      43.215 -15.331   4.724  1.00  0.00     0.032 A 
HETATM    6  C   UNL     1      42.981 -14.442   3.670  1.00  0.00     0.032 A 
ENDROOT
BRANCH   1   7
HETATM    7  N   UNL     1      41.629 -13.541   1.915  1.00  0.00    -0.322 N 
HETATM    8  C   UNL     1      40.804 -12.429   1.882  1.00  0.00     0.274 C 
HETATM    9  O   UNL     1      40.084 -12.076   2.810  1.00  0.00    -0.266 OA
HETATM   10  H   UNL     1      42.252 -13.663   1.130  1.00  0.00     0.169 HD
BRANCH   8  11
HETATM   11  C   UNL     1      40.891 -11.681   0.644  1.00  0.00     0.126 A 
HETATM   12  N   UNL     1      40.471 -12.117  -0.606  1.00  0.00    -0.300 N 
HETATM   13  C   UNL     1      39.879 -13.321  -1.005  1.00  0.00     0.106 A 
HETATM   14  C   UNL     1      40.720 -11.076  -1.499  1.00  0.00     0.134 A 
HETATM   15  C   UNL     1      39.528 -13.507  -2.293  1.00  0.00    -0.046 A 
HETATM   16  C   UNL     1      38.899 -14.763  -2.811  1.00  0.00     0.049 C 
HETATM   17  C   UNL     1      39.776 -12.424  -3.242  1.00  0.00     0.012 A 
HETATM   18  C   UNL     1      40.344 -11.266  -2.858  1.00  0.00     0.051 A 
HETATM   19  N   UNL     1      41.285 -10.047  -0.908  1.00  0.00    -0.240 NA
HETATM   20  C   UNL     1      41.410 -10.418   0.400  1.00  0.00     0.155 A 
ENDBRANCH   8  11
ENDBRANCH   1   7
BRANCH   4  21
HETATM   21  N   UNL     1      42.583 -17.115   6.171  1.00  0.00    -0.309 N 
HETATM   22  C   UNL     1      43.277 -18.279   6.282  1.00  0.00     0.320 C 
HETATM   23  N   UNL     1      43.562 -18.964   5.146  1.00  0.00    -0.339 N 
HETATM   24  O   UNL     1      43.561 -18.685   7.408  1.00  0.00    -0.247 OA
HETATM   25  H   UNL     1      42.957 -18.787   4.362  1.00  0.00     0.164 HD
HETATM   26  H   UNL     1      42.268 -16.817   7.087  1.00  0.00     0.170 HD
BRANCH  23  27
HETATM   27  C   UNL     1      44.193 -20.262   5.183  1.00  0.00     0.150 C 
BRANCH  27  28
HETATM   28  C   UNL     1      44.017 -20.988   3.882  1.00  0.00    -0.018 C 
HETATM   29  C   UNL     1      43.620 -20.480   2.706  1.00  0.00     0.008 C 
ENDBRANCH  27  28
ENDBRANCH  23  27
ENDBRANCH   4  21
TORSDOF 5
ENDMDL
MODEL 9
REMARK VINA RESULT:      -7.5     14.603     17.061
REMARK  5 active torsions:
REMARK  status: ('A' for Active; 'I' for Inactive)
REMARK    1  A    between atoms: C_8  and  C_9 
REMARK       I    between atoms: C_9  and  N_10 
REMARK    2  A    between atoms: N_10  and  C_11 
REMARK    3  A    between atoms: C_14  and  N_15 
REMARK       I    between atoms: N_15  and  C_16 
REMARK       I    between atoms: C_16  and  N_17 
REMARK    4  A    between atoms: N_17  and  C_18 
REMARK    5  A    between atoms: C_18  and  C_19 
ROOT
HETATM    1  C   UNL     1      42.106 -31.151   2.971  1.00  0.00     0.035 A 
HETATM    2  C   UNL     1      41.489 -32.215   2.313  1.00  0.00     0.032 A 
HETATM    3  C   UNL     1      40.276 -32.746   2.787  1.00  0.00     0.032 A 
HETATM    4  C   UNL     1      39.657 -32.212   3.915  1.00  0.00     0.036 A 
HETATM    5  C   UNL     1      40.299 -31.173   4.597  1.00  0.00     0.032 A 
HETATM    6  C   UNL     1      41.506 -30.644   4.127  1.00  0.00     0.032 A 
ENDROOT
BRANCH   1   7
HETATM    7  N   UNL     1      43.314 -30.546   2.565  1.00  0.00    -0.322 N 
HETATM    8  C   UNL     1      43.494 -29.506   1.668  1.00  0.00     0.274 C 
HETATM    9  O   UNL     1      42.580 -28.917   1.102  1.00  0.00    -0.266 OA
HETATM   10  H   UNL     1      44.139 -30.875   3.045  1.00  0.00     0.169 HD
BRANCH   8  11
HETATM   11  C   UNL     1      44.884 -29.142   1.477  1.00  0.00     0.126 A 
HETATM   12  N   UNL     1      45.472 -28.763   0.277  1.00  0.00    -0.300 N 
HETATM   13  C   UNL     1      44.931 -28.629  -1.007  1.00  0.00     0.106 A 
HETATM   14  C   UNL     1      46.808 -28.479   0.558  1.00  0.00     0.134 A 
HETATM   15  C   UNL     1      45.708 -28.214  -2.027  1.00  0.00    -0.046 A 
HETATM   16  C   UNL     1      45.218 -28.051  -3.432  1.00  0.00     0.049 C 
HETATM   17  C   UNL     1      47.109 -27.906  -1.750  1.00  0.00     0.012 A 
HETATM   18  C   UNL     1      47.629 -28.033  -0.516  1.00  0.00     0.051 A 
HETATM   19  N   UNL     1      47.097 -28.680   1.823  1.00  0.00    -0.240 NA
HETATM   20  C   UNL     1      45.928 -29.104   2.388  1.00  0.00     0.155 A 
ENDBRANCH   8  11
ENDBRANCH   1   7
BRANCH   4  21
HETATM   21  N   UNL     1      38.447 -32.665   4.466  1.00  0.00    -0.309 N 
HETATM   22  C   UNL     1      38.097 -33.204   5.665  1.00  0.00     0.320 C 
HETATM   23  N   UNL     1      39.089 -33.634   6.485  1.00  0.00    -0.339 N 
HETATM   24  O   UNL     1      36.902 -33.329   5.924  1.00  0.00    -0.247 OA
HETATM   25  H   UNL     1      39.960 -33.869   6.038  1.00  0.00     0.164 HD
HETATM   26  H   UNL     1      37.624 -32.574   3.880  1.00  0.00     0.170 HD
BRANCH  23  27
HETATM   27  C   UNL     1      38.804 -34.321   7.723  1.00  0.00     0.150 C 
BRANCH  27  28
HETATM   28  C   UNL     1      39.802 -33.963   8.783  1.00  0.00    -0.018 C 
HETATM   29  C   UNL     1      40.507 -32.828   8.898  1.00  0.00     0.008 C 
ENDBRANCH  27  28
ENDBRANCH  23  27
ENDBRANCH   4  21
TORSDOF 5
ENDMDL
MODEL 10
REMARK VINA RESULT:      -7.5      2.766      4.199
REMARK  5 active torsions:
REMARK  status: ('A' for Active; 'I' for Inactive)
REMARK    1  A    between atoms: C_8  and  C_9 
REMARK       I    between atoms: C_9  and  N_10 
REMARK    2  A    between atoms: N_10  and  C_11 
REMARK    3  A    between atoms: C_14  and  N_15 
REMARK       I    between atoms: N_15  and  C_16 
REMARK       I    between atoms: C_16  and  N_17 
REMARK    4  A    between atoms: N_17  and  C_18 
REMARK    5  A    between atoms: C_18  and  C_19 
ROOT
HETATM    1  C   UNL     1      40.668 -14.234   0.216  1.00  0.00     0.035 A 
HETATM    2  C   UNL     1      39.821 -14.640  -0.815  1.00  0.00     0.032 A 
HETATM    3  C   UNL     1      39.117 -13.694  -1.581  1.00  0.00     0.032 A 
HETATM    4  C   UNL     1      39.261 -12.330  -1.335  1.00  0.00     0.036 A 
HETATM    5  C   UNL     1      40.078 -11.927  -0.274  1.00  0.00     0.032 A 
HETATM    6  C   UNL     1      40.779 -12.868   0.489  1.00  0.00     0.032 A 
ENDROOT
BRANCH   1   7
HETATM    7  N   UNL     1      41.423 -15.107   1.028  1.00  0.00    -0.322 N 
HETATM    8  C   UNL     1      41.017 -15.787   2.165  1.00  0.00     0.274 C 
HETATM    9  O   UNL     1      39.882 -15.748   2.624  1.00  0.00    -0.266 OA
HETATM   10  H   UNL     1      42.354 -15.306   0.691  1.00  0.00     0.169 HD
BRANCH   8  11
HETATM   11  C   UNL     1      42.065 -16.593   2.759  1.00  0.00     0.126 A 
HETATM   12  N   UNL     1      42.745 -16.311   3.937  1.00  0.00    -0.300 N 
HETATM   13  C   UNL     1      42.624 -15.241   4.832  1.00  0.00     0.106 A 
HETATM   14  C   UNL     1      43.641 -17.359   4.144  1.00  0.00     0.134 A 
HETATM   15  C   UNL     1      43.389 -15.198   5.941  1.00  0.00    -0.046 A 
HETATM   16  C   UNL     1      43.333 -14.091   6.947  1.00  0.00     0.049 C 
HETATM   17  C   UNL     1      44.329 -16.291   6.177  1.00  0.00     0.012 A 
HETATM   18  C   UNL     1      44.445 -17.320   5.317  1.00  0.00     0.051 A 
HETATM   19  N   UNL     1      43.589 -18.247   3.177  1.00  0.00    -0.240 NA
HETATM   20  C   UNL     1      42.640 -17.774   2.316  1.00  0.00     0.155 A 
ENDBRANCH   8  11
ENDBRANCH   1   7
BRANCH   4  21
HETATM   21  N   UNL     1      38.608 -11.306  -2.042  1.00  0.00    -0.309 N 
HETATM   22  C   UNL     1      38.978 -10.466  -3.046  1.00  0.00     0.320 C 
HETATM   23  N   UNL     1      40.298 -10.372  -3.345  1.00  0.00    -0.339 N 
HETATM   24  O   UNL     1      38.109  -9.789  -3.592  1.00  0.00    -0.247 OA
HETATM   25  H   UNL     1      40.936 -10.622  -2.608  1.00  0.00     0.164 HD
HETATM   26  H   UNL     1      37.641 -11.132  -1.791  1.00  0.00     0.170 HD
BRANCH  23  27
HETATM   27  C   UNL     1      40.788  -9.422  -4.316  1.00  0.00     0.150 C 
BRANCH  27  28
HETATM   28  C   UNL     1      41.448  -8.253  -3.646  1.00  0.00    -0.018 C 
HETATM   29  C   UNL     1      40.914  -7.052  -3.379  1.00  0.00     0.008 C 
ENDBRANCH  27  28
ENDBRANCH  23  27
ENDBRANCH   4  21
TORSDOF 5
ENDMDL
