MODEL 1
REMARK VINA RESULT:      -8.2      0.000      0.000
REMARK  4 active torsions:
REMARK  status: ('A' for Active; 'I' for Inactive)
REMARK    1  A    between atoms: C_5  and  C_6 
REMARK    2  A    between atoms: N_7  and  N_8 
REMARK       I    between atoms: N_8  and  C_9 
REMARK    3  A    between atoms: C_9  and  C_10 
REMARK    4  A    between atoms: C_21  and  O_22 
ROOT
HETATM    1  N   UNL     1      41.407 -15.798   2.842  1.00  0.00    -0.242 N 
HETATM    2  C   UNL     1      42.779 -15.655   2.984  1.00  0.00     0.292 C 
HETATM    3  O   UNL     1      43.448 -14.757   2.480  1.00  0.00    -0.264 OA
HETATM    4  H   UNL     1      40.977 -16.589   3.315  1.00  0.00     0.192 HD
ENDROOT
BRANCH   1   5
HETATM    5  N   UNL     1      40.683 -14.905   2.116  1.00  0.00    -0.183 NA
HETATM    6  C   UNL     1      40.663 -15.108   0.838  1.00  0.00     0.153 C 
BRANCH   6   7
HETATM    7  C   UNL     1      39.904 -14.206  -0.052  1.00  0.00     0.017 A 
HETATM    8  C   UNL     1      39.391 -14.734  -1.242  1.00  0.00     0.034 A 
HETATM    9  C   UNL     1      38.666 -13.906  -2.102  1.00  0.00     0.012 A 
HETATM   10  C   UNL     1      38.450 -12.564  -1.788  1.00  0.00     0.022 A 
HETATM   11 BR   UNL     1      37.971 -14.613  -3.711  1.00  0.00    -0.051 Br
HETATM   12  C   UNL     1      38.963 -12.041  -0.601  1.00  0.00     0.039 A 
HETATM   13  C   UNL     1      39.687 -12.858   0.263  1.00  0.00     0.077 A 
BRANCH  13  14
HETATM   14  O   UNL     1      40.154 -12.267   1.405  1.00  0.00    -0.360 OA
HETATM   15  H   UNL     1      39.451 -11.676   1.762  1.00  0.00     0.217 HD
ENDBRANCH  13  14
ENDBRANCH   6   7
ENDBRANCH   1   5
BRANCH   2  16
HETATM   16  C   UNL     1      43.362 -16.716   3.824  1.00  0.00     0.154 A 
HETATM   17  N   UNL     1      43.851 -16.456   5.062  1.00  0.00    -0.169 NA
HETATM   18  N   UNL     1      44.279 -17.654   5.510  1.00  0.00    -0.281 N 
HETATM   19  H   UNL     1      44.695 -17.706   6.434  1.00  0.00     0.189 HD
HETATM   20  C   UNL     1      44.085 -18.659   4.617  1.00  0.00     0.036 A 
HETATM   21  C   UNL     1      43.500 -18.091   3.509  1.00  0.00     0.002 A 
HETATM   22  C   UNL     1      44.457 -20.084   4.788  1.00  0.00     0.059 C 
HETATM   23  C   UNL     1      43.115 -18.877   2.305  1.00  0.00     0.043 C 
HETATM   24  C   UNL     1      43.792 -20.263   2.318  1.00  0.00     0.005 C 
HETATM   25  C   UNL     1      43.749 -20.929   3.709  1.00  0.00     0.006 C 
ENDBRANCH   2  16
TORSDOF 4
ENDMDL
MODEL 2
REMARK VINA RESULT:      -8.1      6.007      7.795
REMARK  4 active torsions:
REMARK  status: ('A' for Active; 'I' for Inactive)
REMARK    1  A    between atoms: C_5  and  C_6 
REMARK    2  A    between atoms: N_7  and  N_8 
REMARK       I    between atoms: N_8  and  C_9 
REMARK    3  A    between atoms: C_9  and  C_10 
REMARK    4  A    between atoms: C_21  and  O_22 
ROOT
HETATM    1  N   UNL     1      44.013 -14.319   6.478  1.00  0.00    -0.242 N 
HETATM    2  C   UNL     1      43.391 -15.455   6.975  1.00  0.00     0.292 C 
HETATM    3  O   UNL     1      42.801 -15.519   8.050  1.00  0.00    -0.264 OA
HETATM    4  H   UNL     1      44.467 -14.405   5.571  1.00  0.00     0.192 HD
ENDROOT
BRANCH   1   5
HETATM    5  N   UNL     1      43.997 -13.152   7.174  1.00  0.00    -0.183 NA
HETATM    6  C   UNL     1      44.821 -12.243   6.763  1.00  0.00     0.153 C 
BRANCH   6   7
HETATM    7  C   UNL     1      44.888 -10.931   7.439  1.00  0.00     0.017 A 
HETATM    8  C   UNL     1      43.697 -10.378   7.922  1.00  0.00     0.034 A 
HETATM    9  C   UNL     1      43.729  -9.141   8.568  1.00  0.00     0.012 A 
HETATM   10  C   UNL     1      44.932  -8.453   8.735  1.00  0.00     0.022 A 
HETATM   11 BR   UNL     1      42.124  -8.388   9.223  1.00  0.00    -0.051 Br
HETATM   12  C   UNL     1      46.117  -9.007   8.252  1.00  0.00     0.039 A 
HETATM   13  C   UNL     1      46.096 -10.241   7.606  1.00  0.00     0.077 A 
BRANCH  13  14
HETATM   14  O   UNL     1      47.301 -10.712   7.164  1.00  0.00    -0.360 OA
HETATM   15  H   UNL     1      47.800  -9.965   6.759  1.00  0.00     0.217 HD
ENDBRANCH  13  14
ENDBRANCH   6   7
ENDBRANCH   1   5
BRANCH   2  16
HETATM   16  C   UNL     1      43.512 -16.599   6.055  1.00  0.00     0.154 A 
HETATM   17  N   UNL     1      43.806 -17.845   6.503  1.00  0.00    -0.169 NA
HETATM   18  N   UNL     1      43.819 -18.605   5.389  1.00  0.00    -0.281 N 
HETATM   19  H   UNL     1      44.025 -19.596   5.480  1.00  0.00     0.189 HD
HETATM   20  C   UNL     1      43.548 -17.902   4.259  1.00  0.00     0.036 A 
HETATM   21  C   UNL     1      43.351 -16.598   4.646  1.00  0.00     0.002 A 
HETATM   22  C   UNL     1      43.504 -18.429   2.874  1.00  0.00     0.059 C 
HETATM   23  C   UNL     1      43.015 -15.510   3.687  1.00  0.00     0.043 C 
HETATM   24  C   UNL     1      43.299 -15.955   2.237  1.00  0.00     0.005 C 
HETATM   25  C   UNL     1      42.823 -17.395   1.955  1.00  0.00     0.006 C 
ENDBRANCH   2  16
TORSDOF 4
ENDMDL
MODEL 3
REMARK VINA RESULT:      -8.0      5.904      7.786
REMARK  4 active torsions:
REMARK  status: ('A' for Active; 'I' for Inactive)
REMARK    1  A    between atoms: C_5  and  C_6 
REMARK    2  A    between atoms: N_7  and  N_8 
REMARK       I    between atoms: N_8  and  C_9 
REMARK    3  A    between atoms: C_9  and  C_10 
REMARK    4  A    between atoms: C_21  and  O_22 
ROOT
HETATM    1  N   UNL     1      43.130 -13.383   4.861  1.00  0.00    -0.242 N 
HETATM    2  C   UNL     1      42.087 -14.267   5.095  1.00  0.00     0.292 C 
HETATM    3  O   UNL     1      41.312 -14.203   6.045  1.00  0.00    -0.264 OA
HETATM    4  H   UNL     1      43.697 -13.552   4.033  1.00  0.00     0.192 HD
ENDROOT
BRANCH   1   5
HETATM    5  N   UNL     1      43.361 -12.338   5.698  1.00  0.00    -0.183 NA
HETATM    6  C   UNL     1      44.336 -12.495   6.536  1.00  0.00     0.153 C 
BRANCH   6   7
HETATM    7  C   UNL     1      44.684 -11.424   7.491  1.00  0.00     0.017 A 
HETATM    8  C   UNL     1      43.754 -11.098   8.484  1.00  0.00     0.034 A 
HETATM    9  C   UNL     1      44.056 -10.092   9.402  1.00  0.00     0.012 A 
HETATM   10  C   UNL     1      45.272  -9.410   9.341  1.00  0.00     0.022 A 
HETATM   11 BR   UNL     1      42.803  -9.647  10.746  1.00  0.00    -0.051 Br
HETATM   12  C   UNL     1      46.197  -9.736   8.349  1.00  0.00     0.039 A 
HETATM   13  C   UNL     1      45.905 -10.739   7.427  1.00  0.00     0.077 A 
BRANCH  13  14
HETATM   14  O   UNL     1      46.867 -10.997   6.489  1.00  0.00    -0.360 OA
HETATM   15  H   UNL     1      47.532 -11.609   6.883  1.00  0.00     0.217 HD
ENDBRANCH  13  14
ENDBRANCH   6   7
ENDBRANCH   1   5
BRANCH   2  16
HETATM   16  C   UNL     1      42.003 -15.310   4.059  1.00  0.00     0.154 A 
HETATM   17  N   UNL     1      41.121 -15.225   3.032  1.00  0.00    -0.169 NA
HETATM   18  N   UNL     1      41.347 -16.338   2.304  1.00  0.00    -0.281 N 
HETATM   19  H   UNL     1      40.790 -16.494   1.470  1.00  0.00     0.189 HD
HETATM   20  C   UNL     1      42.328 -17.123   2.820  1.00  0.00     0.036 A 
HETATM   21  C   UNL     1      42.773 -16.497   3.960  1.00  0.00     0.002 A 
HETATM   22  C   UNL     1      42.807 -18.418   2.279  1.00  0.00     0.059 C 
HETATM   23  C   UNL     1      43.865 -17.043   4.811  1.00  0.00     0.043 C 
HETATM   24  C   UNL     1      44.134 -18.524   4.470  1.00  0.00     0.005 C 
HETATM   25  C   UNL     1      44.145 -18.789   2.951  1.00  0.00     0.006 C 
ENDBRANCH   2  16
TORSDOF 4
ENDMDL
MODEL 4
REMARK VINA RESULT:      -7.9      1.656      1.934
REMARK  4 active torsions:
REMARK  status: ('A' for Active; 'I' for Inactive)
REMARK    1  A    between atoms: C_5  and  C_6 
REMARK    2  A    between atoms: N_7  and  N_8 
REMARK       I    between atoms: N_8  and  C_9 
REMARK    3  A    between atoms: C_9  and  C_10 
REMARK    4  A    between atoms: C_21  and  O_22 
ROOT
HETATM    1  N   UNL     1      41.455 -15.542   2.438  1.00  0.00    -0.242 N 
HETATM    2  C   UNL     1      42.821 -15.454   2.660  1.00  0.00     0.292 C 
HETATM    3  O   UNL     1      43.559 -14.601   2.173  1.00  0.00    -0.264 OA
HETATM    4  H   UNL     1      40.963 -16.300   2.905  1.00  0.00     0.192 HD
ENDROOT
BRANCH   1   5
HETATM    5  N   UNL     1      40.817 -14.641   1.645  1.00  0.00    -0.183 NA
HETATM    6  C   UNL     1      40.604 -15.020   0.425  1.00  0.00     0.153 C 
BRANCH   6   7
HETATM    7  C   UNL     1      39.913 -14.127  -0.527  1.00  0.00     0.017 A 
HETATM    8  C   UNL     1      40.122 -12.749  -0.409  1.00  0.00     0.034 A 
HETATM    9  C   UNL     1      39.484 -11.881  -1.297  1.00  0.00     0.012 A 
HETATM   10  C   UNL     1      38.644 -12.372  -2.297  1.00  0.00     0.022 A 
HETATM   11 BR   UNL     1      39.762 -10.017  -1.142  1.00  0.00    -0.051 Br
HETATM   12  C   UNL     1      38.437 -13.746  -2.411  1.00  0.00     0.039 A 
HETATM   13  C   UNL     1      39.069 -14.621  -1.530  1.00  0.00     0.077 A 
BRANCH  13  14
HETATM   14  O   UNL     1      38.812 -15.952  -1.713  1.00  0.00    -0.360 OA
HETATM   15  H   UNL     1      38.176 -16.049  -2.459  1.00  0.00     0.217 HD
ENDBRANCH  13  14
ENDBRANCH   6   7
ENDBRANCH   1   5
BRANCH   2  16
HETATM   16  C   UNL     1      43.305 -16.513   3.562  1.00  0.00     0.154 A 
HETATM   17  N   UNL     1      43.696 -16.243   4.832  1.00  0.00    -0.169 NA
HETATM   18  N   UNL     1      44.054 -17.443   5.333  1.00  0.00    -0.281 N 
HETATM   19  H   UNL     1      44.392 -17.488   6.290  1.00  0.00     0.189 HD
HETATM   20  C   UNL     1      43.909 -18.459   4.443  1.00  0.00     0.036 A 
HETATM   21  C   UNL     1      43.433 -17.897   3.282  1.00  0.00     0.002 A 
HETATM   22  C   UNL     1      44.229 -19.889   4.667  1.00  0.00     0.059 C 
HETATM   23  C   UNL     1      43.129 -18.694   2.062  1.00  0.00     0.043 C 
HETATM   24  C   UNL     1      43.767 -20.097   2.154  1.00  0.00     0.005 C 
HETATM   25  C   UNL     1      43.592 -20.736   3.547  1.00  0.00     0.006 C 
ENDBRANCH   2  16
TORSDOF 4
ENDMDL
MODEL 5
REMARK VINA RESULT:      -7.8      5.660      8.227
REMARK  4 active torsions:
REMARK  status: ('A' for Active; 'I' for Inactive)
REMARK    1  A    between atoms: C_5  and  C_6 
REMARK    2  A    between atoms: N_7  and  N_8 
REMARK       I    between atoms: N_8  and  C_9 
REMARK    3  A    between atoms: C_9  and  C_10 
REMARK    4  A    between atoms: C_21  and  O_22 
ROOT
HETATM    1  N   UNL     1      42.648 -13.511   5.639  1.00  0.00    -0.242 N 
HETATM    2  C   UNL     1      43.123 -12.299   5.162  1.00  0.00     0.292 C 
HETATM    3  O   UNL     1      43.559 -12.112   4.029  1.00  0.00    -0.264 OA
HETATM    4  H   UNL     1      42.314 -13.527   6.600  1.00  0.00     0.192 HD
ENDROOT
BRANCH   1   5
HETATM    5  N   UNL     1      42.622 -14.614   4.844  1.00  0.00    -0.183 NA
HETATM    6  C   UNL     1      43.494 -15.528   5.125  1.00  0.00     0.153 C 
BRANCH   6   7
HETATM    7  C   UNL     1      43.556 -16.773   4.333  1.00  0.00     0.017 A 
HETATM    8  C   UNL     1      43.796 -17.973   5.010  1.00  0.00     0.034 A 
HETATM    9  C   UNL     1      43.857 -19.167   4.288  1.00  0.00     0.012 A 
HETATM   10  C   UNL     1      43.681 -19.175   2.904  1.00  0.00     0.022 A 
HETATM   11 BR   UNL     1      44.182 -20.792   5.198  1.00  0.00    -0.051 Br
HETATM   12  C   UNL     1      43.443 -17.976   2.232  1.00  0.00     0.039 A 
HETATM   13  C   UNL     1      43.380 -16.780   2.943  1.00  0.00     0.077 A 
BRANCH  13  14
HETATM   14  O   UNL     1      43.141 -15.652   2.207  1.00  0.00    -0.360 OA
HETATM   15  H   UNL     1      42.420 -15.141   2.643  1.00  0.00     0.217 HD
ENDBRANCH  13  14
ENDBRANCH   6   7
ENDBRANCH   1   5
BRANCH   2  16
HETATM   16  C   UNL     1      43.043 -11.235   6.178  1.00  0.00     0.154 A 
HETATM   17  N   UNL     1      41.876 -10.605   6.460  1.00  0.00    -0.169 NA
HETATM   18  N   UNL     1      42.199  -9.723   7.427  1.00  0.00    -0.281 N 
HETATM   19  H   UNL     1      41.469  -9.124   7.802  1.00  0.00     0.189 HD
HETATM   20  C   UNL     1      43.512  -9.763   7.771  1.00  0.00     0.036 A 
HETATM   21  C   UNL     1      44.096 -10.724   6.979  1.00  0.00     0.002 A 
HETATM   22  C   UNL     1      44.193  -8.916   8.779  1.00  0.00     0.059 C 
HETATM   23  C   UNL     1      45.539 -11.078   7.065  1.00  0.00     0.043 C 
HETATM   24  C   UNL     1      46.320  -9.997   7.841  1.00  0.00     0.005 C 
HETATM   25  C   UNL     1      45.575  -9.520   9.105  1.00  0.00     0.006 C 
ENDBRANCH   2  16
TORSDOF 4
ENDMDL
MODEL 6
REMARK VINA RESULT:      -7.6      7.493      9.968
REMARK  4 active torsions:
REMARK  status: ('A' for Active; 'I' for Inactive)
REMARK    1  A    between atoms: C_5  and  C_6 
REMARK    2  A    between atoms: N_7  and  N_8 
REMARK       I    between atoms: N_8  and  C_9 
REMARK    3  A    between atoms: C_9  and  C_10 
REMARK    4  A    between atoms: C_21  and  O_22 
ROOT
HETATM    1  N   UNL     1      43.296 -11.888   7.721  1.00  0.00    -0.242 N 
HETATM    2  C   UNL     1      44.254 -11.002   8.189  1.00  0.00     0.292 C 
HETATM    3  O   UNL     1      45.443 -11.269   8.343  1.00  0.00    -0.264 OA
HETATM    4  H   UNL     1      42.345 -11.535   7.641  1.00  0.00     0.192 HD
ENDROOT
BRANCH   1   5
HETATM    5  N   UNL     1      43.630 -13.159   7.374  1.00  0.00    -0.183 NA
HETATM    6  C   UNL     1      42.756 -13.792   6.659  1.00  0.00     0.153 C 
BRANCH   6   7
HETATM    7  C   UNL     1      43.012 -15.179   6.217  1.00  0.00     0.017 A 
HETATM    8  C   UNL     1      43.023 -15.440   4.843  1.00  0.00     0.034 A 
HETATM    9  C   UNL     1      43.265 -16.740   4.395  1.00  0.00     0.012 A 
HETATM   10  C   UNL     1      43.495 -17.777   5.301  1.00  0.00     0.022 A 
HETATM   11 BR   UNL     1      43.280 -17.100   2.539  1.00  0.00    -0.051 Br
HETATM   12  C   UNL     1      43.483 -17.512   6.670  1.00  0.00     0.039 A 
HETATM   13  C   UNL     1      43.242 -16.219   7.127  1.00  0.00     0.077 A 
BRANCH  13  14
HETATM   14  O   UNL     1      43.249 -16.046   8.484  1.00  0.00    -0.360 OA
HETATM   15  H   UNL     1      43.799 -16.758   8.887  1.00  0.00     0.217 HD
ENDBRANCH  13  14
ENDBRANCH   6   7
ENDBRANCH   1   5
BRANCH   2  16
HETATM   16  C   UNL     1      43.684  -9.676   8.487  1.00  0.00     0.154 A 
HETATM   17  N   UNL     1      43.290  -8.833   7.501  1.00  0.00    -0.169 NA
HETATM   18  N   UNL     1      42.825  -7.750   8.155  1.00  0.00    -0.281 N 
HETATM   19  H   UNL     1      42.471  -6.969   7.610  1.00  0.00     0.189 HD
HETATM   20  C   UNL     1      42.905  -7.865   9.506  1.00  0.00     0.036 A 
HETATM   21  C   UNL     1      43.463  -9.096   9.761  1.00  0.00     0.002 A 
HETATM   22  C   UNL     1      42.500  -6.853  10.510  1.00  0.00     0.059 C 
HETATM   23  C   UNL     1      43.707  -9.604  11.139  1.00  0.00     0.043 C 
HETATM   24  C   UNL     1      43.618  -8.458  12.168  1.00  0.00     0.005 C 
HETATM   25  C   UNL     1      42.427  -7.515  11.901  1.00  0.00     0.006 C 
ENDBRANCH   2  16
TORSDOF 4
ENDMDL
MODEL 7
REMARK VINA RESULT:      -7.5      2.229      2.777
REMARK  4 active torsions:
REMARK  status: ('A' for Active; 'I' for Inactive)
REMARK    1  A    between atoms: C_5  and  C_6 
REMARK    2  A    between atoms: N_7  and  N_8 
REMARK       I    between atoms: N_8  and  C_9 
REMARK    3  A    between atoms: C_9  and  C_10 
REMARK    4  A    between atoms: C_21  and  O_22 
ROOT
HETATM    1  N   UNL     1      41.591 -14.515   1.149  1.00  0.00    -0.242 N 
HETATM    2  C   UNL     1      40.997 -15.370   2.065  1.00  0.00     0.292 C 
HETATM    3  O   UNL     1      39.828 -15.743   2.023  1.00  0.00    -0.264 OA
HETATM    4  H   UNL     1      42.571 -14.287   1.303  1.00  0.00     0.192 HD
ENDROOT
BRANCH   1   5
HETATM    5  N   UNL     1      40.890 -14.027   0.092  1.00  0.00    -0.183 NA
HETATM    6  C   UNL     1      40.949 -12.745  -0.075  1.00  0.00     0.153 C 
BRANCH   6   7
HETATM    7  C   UNL     1      40.231 -12.101  -1.194  1.00  0.00     0.017 A 
HETATM    8  C   UNL     1      40.826 -10.994  -1.808  1.00  0.00     0.034 A 
HETATM    9  C   UNL     1      40.173 -10.367  -2.870  1.00  0.00     0.012 A 
HETATM   10  C   UNL     1      38.938 -10.831  -3.325  1.00  0.00     0.022 A 
HETATM   11 BR   UNL     1      40.972  -8.869  -3.704  1.00  0.00    -0.051 Br
HETATM   12  C   UNL     1      38.347 -11.935  -2.710  1.00  0.00     0.039 A 
HETATM   13  C   UNL     1      38.991 -12.568  -1.649  1.00  0.00     0.077 A 
BRANCH  13  14
HETATM   14  O   UNL     1      38.343 -13.643  -1.104  1.00  0.00    -0.360 OA
HETATM   15  H   UNL     1      38.919 -14.437  -1.200  1.00  0.00     0.217 HD
ENDBRANCH  13  14
ENDBRANCH   6   7
ENDBRANCH   1   5
BRANCH   2  16
HETATM   16  C   UNL     1      41.938 -15.795   3.116  1.00  0.00     0.154 A 
HETATM   17  N   UNL     1      42.203 -15.016   4.193  1.00  0.00    -0.169 NA
HETATM   18  N   UNL     1      43.083 -15.735   4.918  1.00  0.00    -0.281 N 
HETATM   19  H   UNL     1      43.434 -15.342   5.786  1.00  0.00     0.189 HD
HETATM   20  C   UNL     1      43.389 -16.932   4.353  1.00  0.00     0.036 A 
HETATM   21  C   UNL     1      42.674 -17.006   3.181  1.00  0.00     0.002 A 
HETATM   22  C   UNL     1      44.332 -17.948   4.878  1.00  0.00     0.059 C 
HETATM   23  C   UNL     1      42.728 -18.183   2.271  1.00  0.00     0.043 C 
HETATM   24  C   UNL     1      43.937 -19.080   2.612  1.00  0.00     0.005 C 
HETATM   25  C   UNL     1      44.116 -19.280   4.131  1.00  0.00     0.006 C 
ENDBRANCH   2  16
TORSDOF 4
ENDMDL
MODEL 8
REMARK VINA RESULT:      -7.4      7.006      9.545
REMARK  4 active torsions:
REMARK  status: ('A' for Active; 'I' for Inactive)
REMARK    1  A    between atoms: C_5  and  C_6 
REMARK    2  A    between atoms: N_7  and  N_8 
REMARK       I    between atoms: N_8  and  C_9 
REMARK    3  A    between atoms: C_9  and  C_10 
REMARK    4  A    between atoms: C_21  and  O_22 
ROOT
HETATM    1  N   UNL     1      43.521 -12.449   7.840  1.00  0.00    -0.242 N 
HETATM    2  C   UNL     1      44.370 -11.360   7.970  1.00  0.00     0.292 C 
HETATM    3  O   UNL     1      45.311 -11.109   7.221  1.00  0.00    -0.264 OA
HETATM    4  H   UNL     1      42.780 -12.538   8.532  1.00  0.00     0.192 HD
ENDROOT
BRANCH   1   5
HETATM    5  N   UNL     1      43.676 -13.338   6.824  1.00  0.00    -0.183 NA
HETATM    6  C   UNL     1      43.184 -14.517   7.031  1.00  0.00     0.153 C 
BRANCH   6   7
HETATM    7  C   UNL     1      43.286 -15.565   5.995  1.00  0.00     0.017 A 
HETATM    8  C   UNL     1      43.211 -15.174   4.654  1.00  0.00     0.034 A 
HETATM    9  C   UNL     1      43.308 -16.142   3.652  1.00  0.00     0.012 A 
HETATM   10  C   UNL     1      43.478 -17.489   3.974  1.00  0.00     0.022 A 
HETATM   11 BR   UNL     1      43.207 -15.620   1.838  1.00  0.00    -0.051 Br
HETATM   12  C   UNL     1      43.552 -17.875   5.312  1.00  0.00     0.039 A 
HETATM   13  C   UNL     1      43.456 -16.917   6.319  1.00  0.00     0.077 A 
BRANCH  13  14
HETATM   14  O   UNL     1      43.539 -17.381   7.603  1.00  0.00    -0.360 OA
HETATM   15  H   UNL     1      43.912 -18.293   7.584  1.00  0.00     0.217 HD
ENDBRANCH  13  14
ENDBRANCH   6   7
ENDBRANCH   1   5
BRANCH   2  16
HETATM   16  C   UNL     1      44.015 -10.516   9.124  1.00  0.00     0.154 A 
HETATM   17  N   UNL     1      44.093 -10.978  10.396  1.00  0.00    -0.169 NA
HETATM   18  N   UNL     1      43.705  -9.933  11.155  1.00  0.00    -0.281 N 
HETATM   19  H   UNL     1      43.681 -10.048  12.164  1.00  0.00     0.189 HD
HETATM   20  C   UNL     1      43.384  -8.833  10.426  1.00  0.00     0.036 A 
HETATM   21  C   UNL     1      43.564  -9.171   9.106  1.00  0.00     0.002 A 
HETATM   22  C   UNL     1      42.904  -7.530  10.947  1.00  0.00     0.059 C 
HETATM   23  C   UNL     1      43.326  -8.220   7.986  1.00  0.00     0.043 C 
HETATM   24  C   UNL     1      42.514  -7.000   8.470  1.00  0.00     0.005 C 
HETATM   25  C   UNL     1      43.000  -6.468   9.833  1.00  0.00     0.006 C 
ENDBRANCH   2  16
TORSDOF 4
ENDMDL
MODEL 9
REMARK VINA RESULT:      -7.4      6.696      8.562
REMARK  4 active torsions:
REMARK  status: ('A' for Active; 'I' for Inactive)
REMARK    1  A    between atoms: C_5  and  C_6 
REMARK    2  A    between atoms: N_7  and  N_8 
REMARK       I    between atoms: N_8  and  C_9 
REMARK    3  A    between atoms: C_9  and  C_10 
REMARK    4  A    between atoms: C_21  and  O_22 
ROOT
HETATM    1  N   UNL     1      42.887 -12.259   7.131  1.00  0.00    -0.242 N 
HETATM    2  C   UNL     1      43.954 -11.377   7.043  1.00  0.00     0.292 C 
HETATM    3  O   UNL     1      44.584 -11.136   6.017  1.00  0.00    -0.264 OA
HETATM    4  H   UNL     1      42.454 -12.365   8.045  1.00  0.00     0.192 HD
ENDROOT
BRANCH   1   5
HETATM    5  N   UNL     1      42.443 -12.930   6.035  1.00  0.00    -0.183 NA
HETATM    6  C   UNL     1      42.602 -14.215   6.063  1.00  0.00     0.153 C 
BRANCH   6   7
HETATM    7  C   UNL     1      42.152 -15.050   4.931  1.00  0.00     0.017 A 
HETATM    8  C   UNL     1      42.995 -16.077   4.495  1.00  0.00     0.034 A 
HETATM    9  C   UNL     1      42.595 -16.885   3.429  1.00  0.00     0.012 A 
HETATM   10  C   UNL     1      41.368 -16.679   2.796  1.00  0.00     0.022 A 
HETATM   11 BR   UNL     1      43.730 -18.275   2.834  1.00  0.00    -0.051 Br
HETATM   12  C   UNL     1      40.530 -15.653   3.233  1.00  0.00     0.039 A 
HETATM   13  C   UNL     1      40.920 -14.842   4.296  1.00  0.00     0.077 A 
BRANCH  13  14
HETATM   14  O   UNL     1      40.039 -13.861   4.662  1.00  0.00    -0.360 OA
HETATM   15  H   UNL     1      39.736 -14.040   5.582  1.00  0.00     0.217 HD
ENDBRANCH  13  14
ENDBRANCH   6   7
ENDBRANCH   1   5
BRANCH   2  16
HETATM   16  C   UNL     1      44.256 -10.744   8.338  1.00  0.00     0.154 A 
HETATM   17  N   UNL     1      45.434 -10.953   8.975  1.00  0.00    -0.169 NA
HETATM   18  N   UNL     1      45.343 -10.212  10.098  1.00  0.00    -0.281 N 
HETATM   19  H   UNL     1      46.124 -10.215  10.747  1.00  0.00     0.189 HD
HETATM   20  C   UNL     1      44.165  -9.544  10.203  1.00  0.00     0.036 A 
HETATM   21  C   UNL     1      43.430  -9.867   9.087  1.00  0.00     0.002 A 
HETATM   22  C   UNL     1      43.739  -8.662  11.316  1.00  0.00     0.059 C 
HETATM   23  C   UNL     1      42.072  -9.319   8.825  1.00  0.00     0.043 C 
HETATM   24  C   UNL     1      41.481  -8.690  10.104  1.00  0.00     0.005 C 
HETATM   25  C   UNL     1      42.511  -7.840  10.876  1.00  0.00     0.006 C 
ENDBRANCH   2  16
TORSDOF 4
ENDMDL
MODEL 10
REMARK VINA RESULT:      -7.4      2.944      7.901
REMARK  4 active torsions:
REMARK  status: ('A' for Active; 'I' for Inactive)
REMARK    1  A    between atoms: C_5  and  C_6 
REMARK    2  A    between atoms: N_7  and  N_8 
REMARK       I    between atoms: N_8  and  C_9 
REMARK    3  A    between atoms: C_9  and  C_10 
REMARK    4  A    between atoms: C_21  and  O_22 
ROOT
HETATM    1  N   UNL     1      40.103 -14.710   1.754  1.00  0.00    -0.242 N 
HETATM    2  C   UNL     1      40.505 -13.546   1.115  1.00  0.00     0.292 C 
HETATM    3  O   UNL     1      41.592 -12.996   1.276  1.00  0.00    -0.264 OA
HETATM    4  H   UNL     1      39.174 -15.059   1.528  1.00  0.00     0.192 HD
ENDROOT
BRANCH   1   5
HETATM    5  N   UNL     1      40.927 -15.350   2.624  1.00  0.00    -0.183 NA
HETATM    6  C   UNL     1      41.712 -16.237   2.103  1.00  0.00     0.153 C 
BRANCH   6   7
HETATM    7  C   UNL     1      42.657 -16.993   2.951  1.00  0.00     0.017 A 
HETATM    8  C   UNL     1      42.888 -18.338   2.642  1.00  0.00     0.034 A 
HETATM    9  C   UNL     1      43.778 -19.077   3.424  1.00  0.00     0.012 A 
HETATM   10  C   UNL     1      44.436 -18.490   4.505  1.00  0.00     0.022 A 
HETATM   11 BR   UNL     1      44.093 -20.895   3.013  1.00  0.00    -0.051 Br
HETATM   12  C   UNL     1      44.204 -17.149   4.810  1.00  0.00     0.039 A 
HETATM   13  C   UNL     1      43.317 -16.403   4.036  1.00  0.00     0.077 A 
BRANCH  13  14
HETATM   14  O   UNL     1      43.147 -15.096   4.403  1.00  0.00    -0.360 OA
HETATM   15  H   UNL     1      42.196 -14.863   4.297  1.00  0.00     0.217 HD
ENDBRANCH  13  14
ENDBRANCH   6   7
ENDBRANCH   1   5
BRANCH   2  16
HETATM   16  C   UNL     1      39.472 -13.030   0.202  1.00  0.00     0.154 A 
HETATM   17  N   UNL     1      38.799 -11.882   0.464  1.00  0.00    -0.169 NA
HETATM   18  N   UNL     1      37.963 -11.738  -0.585  1.00  0.00    -0.281 N 
HETATM   19  H   UNL     1      37.344 -10.934  -0.606  1.00  0.00     0.189 HD
HETATM   20  C   UNL     1      38.073 -12.739  -1.497  1.00  0.00     0.036 A 
HETATM   21  C   UNL     1      39.034 -13.600  -1.021  1.00  0.00     0.002 A 
HETATM   22  C   UNL     1      37.290 -12.893  -2.746  1.00  0.00     0.059 C 
HETATM   23  C   UNL     1      39.455 -14.827  -1.750  1.00  0.00     0.043 C 
HETATM   24  C   UNL     1      38.436 -15.184  -2.852  1.00  0.00     0.005 C 
HETATM   25  C   UNL     1      37.966 -13.948  -3.646  1.00  0.00     0.006 C 
ENDBRANCH   2  16
TORSDOF 4
ENDMDL
