MODEL 1
REMARK VINA RESULT:      -9.4      0.000      0.000
REMARK  7 active torsions:
REMARK  status: ('A' for Active; 'I' for Inactive)
REMARK    1  A    between atoms: C_6  and  C_7 
REMARK       I    between atoms: C_7  and  N_8 
REMARK    2  A    between atoms: N_8  and  C_9 
REMARK    3  A    between atoms: C_9  and  C_10 
REMARK       I    between atoms: C_10  and  N_11 
REMARK    4  A    between atoms: N_11  and  N_12 
REMARK       I    between atoms: N_12  and  C_13 
REMARK    5  A    between atoms: C_13  and  C_14 
REMARK    6  A    between atoms: C_14  and  N_15 
REMARK    7  A    between atoms: N_15  and  C_16 
ROOT
HETATM    1  C   UNL     1      43.440 -11.963   4.093  1.00  0.00     0.253 C 
HETATM    2  N   UNL     1      42.802 -11.887   5.316  1.00  0.00    -0.266 N 
HETATM    3  O   UNL     1      44.434 -11.288   3.820  1.00  0.00    -0.270 OA
HETATM    4  H   UNL     1      42.280 -12.703   5.656  1.00  0.00     0.190 HD
ENDROOT
BRANCH   2   5
HETATM    5  N   UNL     1      43.378 -11.066   6.303  1.00  0.00    -0.266 N 
HETATM    6  C   UNL     1      44.000 -11.681   7.376  1.00  0.00     0.258 C 
HETATM    7  O   UNL     1      43.904 -12.888   7.594  1.00  0.00    -0.269 OA
HETATM    8  H   UNL     1      43.687 -10.139   6.002  1.00  0.00     0.190 HD
BRANCH   6   9
HETATM    9  C   UNL     1      44.786 -10.706   8.272  1.00  0.00     0.173 C 
HETATM   10  C   UNL     1      46.062 -10.233   7.580  1.00  0.00     0.042 C 
BRANCH   9  11
HETATM   11  N   UNL     1      43.970  -9.535   8.586  1.00  0.00    -0.356 N 
HETATM   12  H   UNL     1      43.861  -8.834   7.861  1.00  0.00     0.162 HD
BRANCH  11  13
HETATM   13  C   UNL     1      43.223  -9.473   9.705  1.00  0.00     0.168 A 
HETATM   14  S   UNL     1      43.979  -9.311  11.239  1.00  0.00    -0.050 SA
HETATM   15  C   UNL     1      42.444  -9.364  12.010  1.00  0.00     0.037 A 
HETATM   16  C   UNL     1      41.454  -9.475  11.033  1.00  0.00     0.076 A 
HETATM   17  C   UNL     1      42.134  -9.315  13.380  1.00  0.00     0.021 A 
HETATM   18  N   UNL     1      41.914  -9.514   9.727  1.00  0.00    -0.223 NA
HETATM   19  C   UNL     1      40.105  -9.540  11.439  1.00  0.00     0.033 A 
HETATM   20  C   UNL     1      39.786  -9.498  12.800  1.00  0.00     0.002 A 
HETATM   21  C   UNL     1      40.789  -9.386  13.757  1.00  0.00     0.002 A 
ENDBRANCH  11  13
ENDBRANCH   9  11
ENDBRANCH   6   9
ENDBRANCH   2   5
BRANCH   1  22
HETATM   22  C   UNL     1      42.908 -13.048   3.152  1.00  0.00     0.227 C 
BRANCH  22  23
HETATM   23  N   UNL     1      43.211 -14.408   3.576  1.00  0.00    -0.348 N 
HETATM   24  C   UNL     1      43.015 -15.481   2.733  1.00  0.00     0.252 C 
HETATM   25  O   UNL     1      42.652 -15.329   1.572  1.00  0.00    -0.268 OA
HETATM   26  H   UNL     1      43.754 -14.528   4.420  1.00  0.00     0.163 HD
BRANCH  24  27
HETATM   27  C   UNL     1      43.342 -16.832   3.266  1.00  0.00     0.032 A 
HETATM   28  C   UNL     1      43.281 -17.925   2.390  1.00  0.00     0.024 A 
HETATM   29  C   UNL     1      43.577 -19.226   2.832  1.00  0.00    -0.055 A 
HETATM   30  C   UNL     1      43.912 -19.434   4.185  1.00  0.00    -0.056 A 
HETATM   31  C   UNL     1      43.485 -20.367   1.857  1.00  0.00     0.049 C 
HETATM   32  C   UNL     1      44.237 -20.806   4.711  1.00  0.00     0.049 C 
HETATM   33  C   UNL     1      43.965 -18.336   5.056  1.00  0.00     0.008 A 
HETATM   34  C   UNL     1      43.676 -17.045   4.606  1.00  0.00     0.017 A 
ENDBRANCH  24  27
ENDBRANCH  22  23
ENDBRANCH   1  22
TORSDOF 7
ENDMDL
MODEL 2
REMARK VINA RESULT:      -9.3      2.452     10.539
REMARK  7 active torsions:
REMARK  status: ('A' for Active; 'I' for Inactive)
REMARK    1  A    between atoms: C_6  and  C_7 
REMARK       I    between atoms: C_7  and  N_8 
REMARK    2  A    between atoms: N_8  and  C_9 
REMARK    3  A    between atoms: C_9  and  C_10 
REMARK       I    between atoms: C_10  and  N_11 
REMARK    4  A    between atoms: N_11  and  N_12 
REMARK       I    between atoms: N_12  and  C_13 
REMARK    5  A    between atoms: C_13  and  C_14 
REMARK    6  A    between atoms: C_14  and  N_15 
REMARK    7  A    between atoms: N_15  and  C_16 
ROOT
HETATM    1  C   UNL     1      44.492 -11.579   7.260  1.00  0.00     0.253 C 
HETATM    2  N   UNL     1      43.220 -12.039   7.543  1.00  0.00    -0.266 N 
HETATM    3  O   UNL     1      45.276 -12.196   6.539  1.00  0.00    -0.270 OA
HETATM    4  H   UNL     1      42.485 -11.361   7.774  1.00  0.00     0.190 HD
ENDROOT
BRANCH   2   5
HETATM    5  N   UNL     1      42.795 -13.217   6.902  1.00  0.00    -0.266 N 
HETATM    6  C   UNL     1      42.013 -13.092   5.766  1.00  0.00     0.258 C 
HETATM    7  O   UNL     1      41.526 -12.019   5.413  1.00  0.00    -0.269 OA
HETATM    8  H   UNL     1      43.391 -14.041   7.019  1.00  0.00     0.190 HD
BRANCH   6   9
HETATM    9  C   UNL     1      41.793 -14.421   5.021  1.00  0.00     0.173 C 
HETATM   10  C   UNL     1      40.854 -14.234   3.833  1.00  0.00     0.042 C 
BRANCH   9  11
HETATM   11  N   UNL     1      43.066 -14.943   4.526  1.00  0.00    -0.356 N 
HETATM   12  H   UNL     1      43.856 -14.308   4.509  1.00  0.00     0.162 HD
BRANCH  11  13
HETATM   13  C   UNL     1      43.248 -16.256   4.293  1.00  0.00     0.168 A 
HETATM   14  S   UNL     1      43.844 -17.279   5.538  1.00  0.00    -0.050 SA
HETATM   15  C   UNL     1      43.816 -18.619   4.462  1.00  0.00     0.037 A 
HETATM   16  C   UNL     1      43.324 -18.194   3.228  1.00  0.00     0.076 A 
HETATM   17  C   UNL     1      44.205 -19.951   4.689  1.00  0.00     0.021 A 
HETATM   18  N   UNL     1      42.986 -16.853   3.156  1.00  0.00    -0.223 NA
HETATM   19  C   UNL     1      43.215 -19.133   2.181  1.00  0.00     0.033 A 
HETATM   20  C   UNL     1      43.604 -20.460   2.395  1.00  0.00     0.002 A 
HETATM   21  C   UNL     1      44.092 -20.861   3.634  1.00  0.00     0.002 A 
ENDBRANCH  11  13
ENDBRANCH   9  11
ENDBRANCH   6   9
ENDBRANCH   2   5
BRANCH   1  22
HETATM   22  C   UNL     1      44.805 -10.177   7.792  1.00  0.00     0.227 C 
BRANCH  22  23
HETATM   23  N   UNL     1      44.368  -9.944   9.162  1.00  0.00    -0.348 N 
HETATM   24  C   UNL     1      43.153  -9.356   9.435  1.00  0.00     0.252 C 
HETATM   25  O   UNL     1      42.359  -9.075   8.544  1.00  0.00    -0.268 OA
HETATM   26  H   UNL     1      44.879 -10.404   9.903  1.00  0.00     0.163 HD
BRANCH  24  27
HETATM   27  C   UNL     1      42.804  -9.149  10.868  1.00  0.00     0.032 A 
HETATM   28  C   UNL     1      41.644  -9.758  11.365  1.00  0.00     0.024 A 
HETATM   29  C   UNL     1      41.261  -9.600  12.708  1.00  0.00    -0.055 A 
HETATM   30  C   UNL     1      42.043  -8.792  13.557  1.00  0.00    -0.056 A 
HETATM   31  C   UNL     1      40.000 -10.264  13.191  1.00  0.00     0.049 C 
HETATM   32  C   UNL     1      41.679  -8.588  15.003  1.00  0.00     0.049 C 
HETATM   33  C   UNL     1      43.200  -8.181  13.050  1.00  0.00     0.008 A 
HETATM   34  C   UNL     1      43.577  -8.350  11.716  1.00  0.00     0.017 A 
ENDBRANCH  24  27
ENDBRANCH  22  23
ENDBRANCH   1  22
TORSDOF 7
ENDMDL
MODEL 3
REMARK VINA RESULT:      -9.2      2.730     10.634
REMARK  7 active torsions:
REMARK  status: ('A' for Active; 'I' for Inactive)
REMARK    1  A    between atoms: C_6  and  C_7 
REMARK       I    between atoms: C_7  and  N_8 
REMARK    2  A    between atoms: N_8  and  C_9 
REMARK    3  A    between atoms: C_9  and  C_10 
REMARK       I    between atoms: C_10  and  N_11 
REMARK    4  A    between atoms: N_11  and  N_12 
REMARK       I    between atoms: N_12  and  C_13 
REMARK    5  A    between atoms: C_13  and  C_14 
REMARK    6  A    between atoms: C_14  and  N_15 
REMARK    7  A    between atoms: N_15  and  C_16 
ROOT
HETATM    1  C   UNL     1      44.824 -11.584   7.146  1.00  0.00     0.253 C 
HETATM    2  N   UNL     1      43.704 -12.207   7.661  1.00  0.00    -0.266 N 
HETATM    3  O   UNL     1      45.365 -11.947   6.100  1.00  0.00    -0.270 OA
HETATM    4  H   UNL     1      43.062 -11.668   8.253  1.00  0.00     0.190 HD
ENDROOT
BRANCH   2   5
HETATM    5  N   UNL     1      43.124 -13.239   6.899  1.00  0.00    -0.266 N 
HETATM    6  C   UNL     1      42.095 -12.906   6.034  1.00  0.00     0.258 C 
HETATM    7  O   UNL     1      41.551 -11.803   6.045  1.00  0.00    -0.269 OA
HETATM    8  H   UNL     1      43.719 -14.044   6.693  1.00  0.00     0.190 HD
BRANCH   6   9
HETATM    9  C   UNL     1      41.687 -14.055   5.094  1.00  0.00     0.173 C 
HETATM   10  C   UNL     1      40.547 -13.630   4.172  1.00  0.00     0.042 C 
BRANCH   9  11
HETATM   11  N   UNL     1      42.822 -14.462   4.267  1.00  0.00    -0.356 N 
HETATM   12  H   UNL     1      43.509 -13.753   4.034  1.00  0.00     0.162 HD
BRANCH  11  13
HETATM   13  C   UNL     1      43.066 -15.757   3.992  1.00  0.00     0.168 A 
HETATM   14  S   UNL     1      42.765 -16.378   2.419  1.00  0.00    -0.050 SA
HETATM   15  C   UNL     1      43.253 -17.944   2.933  1.00  0.00     0.037 A 
HETATM   16  C   UNL     1      43.641 -17.876   4.272  1.00  0.00     0.076 A 
HETATM   17  C   UNL     1      43.289 -19.148   2.209  1.00  0.00     0.021 A 
HETATM   18  N   UNL     1      43.548 -16.621   4.852  1.00  0.00    -0.223 NA
HETATM   19  C   UNL     1      44.079 -19.053   4.912  1.00  0.00     0.033 A 
HETATM   20  C   UNL     1      44.112 -20.259   4.202  1.00  0.00     0.002 A 
HETATM   21  C   UNL     1      43.723 -20.303   2.868  1.00  0.00     0.002 A 
ENDBRANCH  11  13
ENDBRANCH   9  11
ENDBRANCH   6   9
ENDBRANCH   2   5
BRANCH   1  22
HETATM   22  C   UNL     1      45.262 -10.321   7.893  1.00  0.00     0.227 C 
BRANCH  22  23
HETATM   23  N   UNL     1      44.273  -9.806   8.830  1.00  0.00    -0.348 N 
HETATM   24  C   UNL     1      44.406  -9.996  10.188  1.00  0.00     0.252 C 
HETATM   25  O   UNL     1      45.395 -10.539  10.668  1.00  0.00    -0.268 OA
HETATM   26  H   UNL     1      43.601  -9.136   8.483  1.00  0.00     0.163 HD
BRANCH  24  27
HETATM   27  C   UNL     1      43.334  -9.443  11.061  1.00  0.00     0.032 A 
HETATM   28  C   UNL     1      43.705  -8.606  12.121  1.00  0.00     0.024 A 
HETATM   29  C   UNL     1      42.741  -8.052  12.981  1.00  0.00    -0.055 A 
HETATM   30  C   UNL     1      41.382  -8.370  12.786  1.00  0.00    -0.056 A 
HETATM   31  C   UNL     1      43.191  -7.170  14.112  1.00  0.00     0.049 C 
HETATM   32  C   UNL     1      40.307  -7.806  13.677  1.00  0.00     0.049 C 
HETATM   33  C   UNL     1      41.018  -9.214  11.725  1.00  0.00     0.008 A 
HETATM   34  C   UNL     1      41.984  -9.753  10.872  1.00  0.00     0.017 A 
ENDBRANCH  24  27
ENDBRANCH  22  23
ENDBRANCH   1  22
TORSDOF 7
ENDMDL
MODEL 4
REMARK VINA RESULT:      -8.8      1.718      2.233
REMARK  7 active torsions:
REMARK  status: ('A' for Active; 'I' for Inactive)
REMARK    1  A    between atoms: C_6  and  C_7 
REMARK       I    between atoms: C_7  and  N_8 
REMARK    2  A    between atoms: N_8  and  C_9 
REMARK    3  A    between atoms: C_9  and  C_10 
REMARK       I    between atoms: C_10  and  N_11 
REMARK    4  A    between atoms: N_11  and  N_12 
REMARK       I    between atoms: N_12  and  C_13 
REMARK    5  A    between atoms: C_13  and  C_14 
REMARK    6  A    between atoms: C_14  and  N_15 
REMARK    7  A    between atoms: N_15  and  C_16 
ROOT
HETATM    1  C   UNL     1      42.118 -12.763   5.620  1.00  0.00     0.253 C 
HETATM    2  N   UNL     1      43.293 -13.058   6.285  1.00  0.00    -0.266 N 
HETATM    3  O   UNL     1      41.313 -11.926   6.033  1.00  0.00    -0.270 OA
HETATM    4  H   UNL     1      44.093 -13.413   5.748  1.00  0.00     0.190 HD
ENDROOT
BRANCH   2   5
HETATM    5  N   UNL     1      43.603 -12.299   7.428  1.00  0.00    -0.266 N 
HETATM    6  C   UNL     1      44.667 -11.416   7.352  1.00  0.00     0.258 C 
HETATM    7  O   UNL     1      45.454 -11.408   6.407  1.00  0.00    -0.269 OA
HETATM    8  H   UNL     1      42.832 -12.109   8.073  1.00  0.00     0.190 HD
BRANCH   6   9
HETATM    9  C   UNL     1      44.779 -10.481   8.571  1.00  0.00     0.173 C 
HETATM   10  C   UNL     1      45.804  -9.378   8.322  1.00  0.00     0.042 C 
BRANCH   9  11
HETATM   11  N   UNL     1      43.488  -9.857   8.853  1.00  0.00    -0.356 N 
HETATM   12  H   UNL     1      42.690 -10.165   8.308  1.00  0.00     0.162 HD
BRANCH  11  13
HETATM   13  C   UNL     1      43.308  -9.059   9.923  1.00  0.00     0.168 A 
HETATM   14  S   UNL     1      43.681  -9.631  11.498  1.00  0.00    -0.050 SA
HETATM   15  C   UNL     1      43.154  -8.140  12.174  1.00  0.00     0.037 A 
HETATM   16  C   UNL     1      42.754  -7.295  11.138  1.00  0.00     0.076 A 
HETATM   17  C   UNL     1      43.095  -7.745  13.521  1.00  0.00     0.021 A 
HETATM   18  N   UNL     1      42.868  -7.825   9.864  1.00  0.00    -0.223 NA
HETATM   19  C   UNL     1      42.276  -6.008  11.459  1.00  0.00     0.033 A 
HETATM   20  C   UNL     1      42.206  -5.607  12.798  1.00  0.00     0.002 A 
HETATM   21  C   UNL     1      42.612  -6.465  13.814  1.00  0.00     0.002 A 
ENDBRANCH  11  13
ENDBRANCH   9  11
ENDBRANCH   6   9
ENDBRANCH   2   5
BRANCH   1  22
HETATM   22  C   UNL     1      41.956 -13.448   4.260  1.00  0.00     0.227 C 
BRANCH  22  23
HETATM   23  N   UNL     1      42.269 -14.870   4.264  1.00  0.00    -0.348 N 
HETATM   24  C   UNL     1      42.995 -15.446   3.245  1.00  0.00     0.252 C 
HETATM   25  O   UNL     1      43.471 -14.776   2.335  1.00  0.00    -0.268 OA
HETATM   26  H   UNL     1      42.119 -15.382   5.123  1.00  0.00     0.163 HD
BRANCH  24  27
HETATM   27  C   UNL     1      43.250 -16.910   3.335  1.00  0.00     0.032 A 
HETATM   28  C   UNL     1      43.359 -17.490   4.606  1.00  0.00     0.024 A 
HETATM   29  C   UNL     1      43.600 -18.867   4.757  1.00  0.00    -0.055 A 
HETATM   30  C   UNL     1      43.763 -19.667   3.609  1.00  0.00    -0.056 A 
HETATM   31  C   UNL     1      43.721 -19.439   6.143  1.00  0.00     0.049 C 
HETATM   32  C   UNL     1      44.023 -21.146   3.713  1.00  0.00     0.049 C 
HETATM   33  C   UNL     1      43.659 -19.078   2.340  1.00  0.00     0.008 A 
HETATM   34  C   UNL     1      43.411 -17.710   2.200  1.00  0.00     0.017 A 
ENDBRANCH  24  27
ENDBRANCH  22  23
ENDBRANCH   1  22
TORSDOF 7
ENDMDL
MODEL 5
REMARK VINA RESULT:      -8.8      6.721      9.101
REMARK  7 active torsions:
REMARK  status: ('A' for Active; 'I' for Inactive)
REMARK    1  A    between atoms: C_6  and  C_7 
REMARK       I    between atoms: C_7  and  N_8 
REMARK    2  A    between atoms: N_8  and  C_9 
REMARK    3  A    between atoms: C_9  and  C_10 
REMARK       I    between atoms: C_10  and  N_11 
REMARK    4  A    between atoms: N_11  and  N_12 
REMARK       I    between atoms: N_12  and  C_13 
REMARK    5  A    between atoms: C_13  and  C_14 
REMARK    6  A    between atoms: C_14  and  N_15 
REMARK    7  A    between atoms: N_15  and  C_16 
ROOT
HETATM    1  C   UNL     1      40.770 -13.392   1.481  1.00  0.00     0.253 C 
HETATM    2  N   UNL     1      41.243 -13.751   0.234  1.00  0.00    -0.266 N 
HETATM    3  O   UNL     1      39.571 -13.240   1.719  1.00  0.00    -0.270 OA
HETATM    4  H   UNL     1      42.134 -14.256   0.166  1.00  0.00     0.190 HD
ENDROOT
BRANCH   2   5
HETATM    5  N   UNL     1      40.294 -14.034  -0.766  1.00  0.00    -0.266 N 
HETATM    6  C   UNL     1      40.394 -13.352  -1.967  1.00  0.00     0.258 C 
HETATM    7  O   UNL     1      41.146 -12.391  -2.122  1.00  0.00    -0.269 OA
HETATM    8  H   UNL     1      39.874 -14.966  -0.746  1.00  0.00     0.190 HD
BRANCH   6   9
HETATM    9  C   UNL     1      39.455 -13.893  -3.061  1.00  0.00     0.173 C 
HETATM   10  C   UNL     1      38.821 -15.214  -2.634  1.00  0.00     0.042 C 
BRANCH   9  11
HETATM   11  N   UNL     1      38.386 -12.934  -3.332  1.00  0.00    -0.356 N 
HETATM   12  H   UNL     1      37.782 -13.120  -4.126  1.00  0.00     0.162 HD
BRANCH  11  13
HETATM   13  C   UNL     1      38.074 -11.958  -2.459  1.00  0.00     0.168 A 
HETATM   14  S   UNL     1      38.219 -10.310  -2.918  1.00  0.00    -0.050 SA
HETATM   15  C   UNL     1      37.724  -9.819  -1.348  1.00  0.00     0.037 A 
HETATM   16  C   UNL     1      37.454 -10.956  -0.586  1.00  0.00     0.076 A 
HETATM   17  C   UNL     1      37.586  -8.523  -0.822  1.00  0.00     0.021 A 
HETATM   18  N   UNL     1      37.638 -12.164  -1.240  1.00  0.00    -0.223 NA
HETATM   19  C   UNL     1      37.032 -10.794   0.750  1.00  0.00     0.033 A 
HETATM   20  C   UNL     1      36.897  -9.509   1.285  1.00  0.00     0.002 A 
HETATM   21  C   UNL     1      37.170  -8.389   0.507  1.00  0.00     0.002 A 
ENDBRANCH  11  13
ENDBRANCH   9  11
ENDBRANCH   6   9
ENDBRANCH   2   5
BRANCH   1  22
HETATM   22  C   UNL     1      41.832 -13.335   2.583  1.00  0.00     0.227 C 
BRANCH  22  23
HETATM   23  N   UNL     1      42.192 -14.634   3.136  1.00  0.00    -0.348 N 
HETATM   24  C   UNL     1      43.151 -15.423   2.541  1.00  0.00     0.252 C 
HETATM   25  O   UNL     1      43.793 -15.036   1.570  1.00  0.00    -0.268 OA
HETATM   26  H   UNL     1      41.874 -14.852   4.070  1.00  0.00     0.163 HD
BRANCH  24  27
HETATM   27  C   UNL     1      43.438 -16.740   3.175  1.00  0.00     0.032 A 
HETATM   28  C   UNL     1      43.381 -17.890   2.376  1.00  0.00     0.024 A 
HETATM   29  C   UNL     1      43.640 -19.162   2.916  1.00  0.00    -0.055 A 
HETATM   30  C   UNL     1      43.933 -19.281   4.289  1.00  0.00    -0.056 A 
HETATM   31  C   UNL     1      43.554 -20.367   2.020  1.00  0.00     0.049 C 
HETATM   32  C   UNL     1      44.219 -20.617   4.918  1.00  0.00     0.049 C 
HETATM   33  C   UNL     1      43.983 -18.125   5.083  1.00  0.00     0.008 A 
HETATM   34  C   UNL     1      43.731 -16.864   4.536  1.00  0.00     0.017 A 
ENDBRANCH  24  27
ENDBRANCH  22  23
ENDBRANCH   1  22
TORSDOF 7
ENDMDL
MODEL 6
REMARK VINA RESULT:      -8.7      1.932      2.242
REMARK  7 active torsions:
REMARK  status: ('A' for Active; 'I' for Inactive)
REMARK    1  A    between atoms: C_6  and  C_7 
REMARK       I    between atoms: C_7  and  N_8 
REMARK    2  A    between atoms: N_8  and  C_9 
REMARK    3  A    between atoms: C_9  and  C_10 
REMARK       I    between atoms: C_10  and  N_11 
REMARK    4  A    between atoms: N_11  and  N_12 
REMARK       I    between atoms: N_12  and  C_13 
REMARK    5  A    between atoms: C_13  and  C_14 
REMARK    6  A    between atoms: C_14  and  N_15 
REMARK    7  A    between atoms: N_15  and  C_16 
ROOT
HETATM    1  C   UNL     1      42.945 -11.835   3.510  1.00  0.00     0.253 C 
HETATM    2  N   UNL     1      42.016 -11.616   4.509  1.00  0.00    -0.266 N 
HETATM    3  O   UNL     1      43.994 -11.194   3.426  1.00  0.00    -0.270 OA
HETATM    4  H   UNL     1      41.402 -12.387   4.796  1.00  0.00     0.190 HD
ENDROOT
BRANCH   2   5
HETATM    5  N   UNL     1      42.341 -10.680   5.508  1.00  0.00    -0.266 N 
HETATM    6  C   UNL     1      41.446 -10.506   6.550  1.00  0.00     0.258 C 
HETATM    7  O   UNL     1      40.314 -10.986   6.537  1.00  0.00    -0.269 OA
HETATM    8  H   UNL     1      43.337 -10.502   5.660  1.00  0.00     0.190 HD
BRANCH   6   9
HETATM    9  C   UNL     1      41.996  -9.634   7.694  1.00  0.00     0.173 C 
HETATM   10  C   UNL     1      42.232  -8.201   7.224  1.00  0.00     0.042 C 
BRANCH   9  11
HETATM   11  N   UNL     1      41.052  -9.604   8.809  1.00  0.00    -0.356 N 
HETATM   12  H   UNL     1      40.253 -10.227   8.762  1.00  0.00     0.162 HD
BRANCH  11  13
HETATM   13  C   UNL     1      41.325  -8.940   9.948  1.00  0.00     0.168 A 
HETATM   14  S   UNL     1      40.315  -7.647  10.456  1.00  0.00    -0.050 SA
HETATM   15  C   UNL     1      41.329  -7.379  11.818  1.00  0.00     0.037 A 
HETATM   16  C   UNL     1      42.359  -8.319  11.803  1.00  0.00     0.076 A 
HETATM   17  C   UNL     1      41.225  -6.405  12.827  1.00  0.00     0.021 A 
HETATM   18  N   UNL     1      42.330  -9.212  10.745  1.00  0.00    -0.223 NA
HETATM   19  C   UNL     1      43.323  -8.287  12.832  1.00  0.00     0.033 A 
HETATM   20  C   UNL     1      43.233  -7.318  13.838  1.00  0.00     0.002 A 
HETATM   21  C   UNL     1      42.196  -6.391  13.833  1.00  0.00     0.002 A 
ENDBRANCH  11  13
ENDBRANCH   9  11
ENDBRANCH   6   9
ENDBRANCH   2   5
BRANCH   1  22
HETATM   22  C   UNL     1      42.644 -13.028   2.598  1.00  0.00     0.227 C 
BRANCH  22  23
HETATM   23  N   UNL     1      43.044 -14.317   3.146  1.00  0.00    -0.348 N 
HETATM   24  C   UNL     1      42.789 -15.491   2.473  1.00  0.00     0.252 C 
HETATM   25  O   UNL     1      42.284 -15.496   1.355  1.00  0.00    -0.268 OA
HETATM   26  H   UNL     1      43.689 -14.317   3.925  1.00  0.00     0.163 HD
BRANCH  24  27
HETATM   27  C   UNL     1      43.226 -16.757   3.124  1.00  0.00     0.032 A 
HETATM   28  C   UNL     1      43.230 -17.931   2.359  1.00  0.00     0.024 A 
HETATM   29  C   UNL     1      43.631 -19.158   2.916  1.00  0.00    -0.055 A 
HETATM   30  C   UNL     1      44.006 -19.208   4.273  1.00  0.00    -0.056 A 
HETATM   31  C   UNL     1      43.606 -20.393   2.058  1.00  0.00     0.049 C 
HETATM   32  C   UNL     1      44.443 -20.495   4.921  1.00  0.00     0.049 C 
HETATM   33  C   UNL     1      43.993 -18.029   5.034  1.00  0.00     0.008 A 
HETATM   34  C   UNL     1      43.601 -16.813   4.469  1.00  0.00     0.017 A 
ENDBRANCH  24  27
ENDBRANCH  22  23
ENDBRANCH   1  22
TORSDOF 7
ENDMDL
MODEL 7
REMARK VINA RESULT:      -8.7      5.015      8.557
REMARK  7 active torsions:
REMARK  status: ('A' for Active; 'I' for Inactive)
REMARK    1  A    between atoms: C_6  and  C_7 
REMARK       I    between atoms: C_7  and  N_8 
REMARK    2  A    between atoms: N_8  and  C_9 
REMARK    3  A    between atoms: C_9  and  C_10 
REMARK       I    between atoms: C_10  and  N_11 
REMARK    4  A    between atoms: N_11  and  N_12 
REMARK       I    between atoms: N_12  and  C_13 
REMARK    5  A    between atoms: C_13  and  C_14 
REMARK    6  A    between atoms: C_14  and  N_15 
REMARK    7  A    between atoms: N_15  and  C_16 
ROOT
HETATM    1  C   UNL     1      41.227 -12.809   5.494  1.00  0.00     0.253 C 
HETATM    2  N   UNL     1      41.868 -11.805   4.794  1.00  0.00    -0.266 N 
HETATM    3  O   UNL     1      40.000 -12.918   5.526  1.00  0.00    -0.270 OA
HETATM    4  H   UNL     1      42.821 -11.969   4.449  1.00  0.00     0.190 HD
ENDROOT
BRANCH   2   5
HETATM    5  N   UNL     1      41.072 -10.936   4.025  1.00  0.00    -0.266 N 
HETATM    6  C   UNL     1      41.478 -10.660   2.731  1.00  0.00     0.258 C 
HETATM    7  O   UNL     1      42.583 -10.984   2.300  1.00  0.00    -0.269 OA
HETATM    8  H   UNL     1      40.079 -10.895   4.265  1.00  0.00     0.190 HD
BRANCH   6   9
HETATM    9  C   UNL     1      40.430  -9.886   1.909  1.00  0.00     0.173 C 
HETATM   10  C   UNL     1      40.957  -9.563   0.514  1.00  0.00     0.042 C 
BRANCH   9  11
HETATM   11  N   UNL     1      39.209 -10.678   1.769  1.00  0.00    -0.356 N 
HETATM   12  H   UNL     1      38.460 -10.503   2.431  1.00  0.00     0.162 HD
BRANCH  11  13
HETATM   13  C   UNL     1      38.993 -11.459   0.694  1.00  0.00     0.168 A 
HETATM   14  S   UNL     1      37.809 -11.018  -0.469  1.00  0.00    -0.050 SA
HETATM   15  C   UNL     1      38.139 -12.450  -1.361  1.00  0.00     0.037 A 
HETATM   16  C   UNL     1      39.157 -13.155  -0.717  1.00  0.00     0.076 A 
HETATM   17  C   UNL     1      37.541 -12.922  -2.542  1.00  0.00     0.021 A 
HETATM   18  N   UNL     1      39.646 -12.567   0.438  1.00  0.00    -0.223 NA
HETATM   19  C   UNL     1      39.593 -14.376  -1.272  1.00  0.00     0.033 A 
HETATM   20  C   UNL     1      39.000 -14.857  -2.445  1.00  0.00     0.002 A 
HETATM   21  C   UNL     1      37.988 -14.137  -3.070  1.00  0.00     0.002 A 
ENDBRANCH  11  13
ENDBRANCH   9  11
ENDBRANCH   6   9
ENDBRANCH   2   5
BRANCH   1  22
HETATM   22  C   UNL     1      42.154 -13.861   6.110  1.00  0.00     0.227 C 
BRANCH  22  23
HETATM   23  N   UNL     1      42.323 -15.059   5.299  1.00  0.00    -0.348 N 
HETATM   24  C   UNL     1      43.403 -15.896   5.473  1.00  0.00     0.252 C 
HETATM   25  O   UNL     1      44.225 -15.709   6.365  1.00  0.00    -0.268 OA
HETATM   26  H   UNL     1      41.533 -15.371   4.751  1.00  0.00     0.163 HD
BRANCH  24  27
HETATM   27  C   UNL     1      43.492 -17.088   4.585  1.00  0.00     0.032 A 
HETATM   28  C   UNL     1      43.899 -18.306   5.145  1.00  0.00     0.024 A 
HETATM   29  C   UNL     1      44.003 -19.466   4.359  1.00  0.00    -0.055 A 
HETATM   30  C   UNL     1      43.720 -19.393   2.981  1.00  0.00    -0.056 A 
HETATM   31  C   UNL     1      44.456 -20.747   5.004  1.00  0.00     0.049 C 
HETATM   32  C   UNL     1      43.815 -20.604   2.093  1.00  0.00     0.049 C 
HETATM   33  C   UNL     1      43.318 -18.168   2.427  1.00  0.00     0.008 A 
HETATM   34  C   UNL     1      43.210 -17.021   3.218  1.00  0.00     0.017 A 
ENDBRANCH  24  27
ENDBRANCH  22  23
ENDBRANCH   1  22
TORSDOF 7
ENDMDL
MODEL 8
REMARK VINA RESULT:      -8.5      7.109      9.937
REMARK  7 active torsions:
REMARK  status: ('A' for Active; 'I' for Inactive)
REMARK    1  A    between atoms: C_6  and  C_7 
REMARK       I    between atoms: C_7  and  N_8 
REMARK    2  A    between atoms: N_8  and  C_9 
REMARK    3  A    between atoms: C_9  and  C_10 
REMARK       I    between atoms: C_10  and  N_11 
REMARK    4  A    between atoms: N_11  and  N_12 
REMARK       I    between atoms: N_12  and  C_13 
REMARK    5  A    between atoms: C_13  and  C_14 
REMARK    6  A    between atoms: C_14  and  N_15 
REMARK    7  A    between atoms: N_15  and  C_16 
ROOT
HETATM    1  C   UNL     1      40.095 -13.980   1.130  1.00  0.00     0.253 C 
HETATM    2  N   UNL     1      39.284 -12.899   0.840  1.00  0.00    -0.266 N 
HETATM    3  O   UNL     1      40.192 -14.956   0.385  1.00  0.00    -0.270 OA
HETATM    4  H   UNL     1      39.526 -11.978   1.225  1.00  0.00     0.190 HD
ENDROOT
BRANCH   2   5
HETATM    5  N   UNL     1      38.621 -12.896  -0.401  1.00  0.00    -0.266 N 
HETATM    6  C   UNL     1      39.224 -12.234  -1.457  1.00  0.00     0.258 C 
HETATM    7  O   UNL     1      40.201 -11.501  -1.308  1.00  0.00    -0.269 OA
HETATM    8  H   UNL     1      37.998 -13.685  -0.587  1.00  0.00     0.190 HD
BRANCH   6   9
HETATM    9  C   UNL     1      38.533 -12.480  -2.812  1.00  0.00     0.173 C 
HETATM   10  C   UNL     1      37.426 -13.522  -2.680  1.00  0.00     0.042 C 
BRANCH   9  11
HETATM   11  N   UNL     1      37.943 -11.240  -3.313  1.00  0.00    -0.356 N 
HETATM   12  H   UNL     1      38.284 -10.886  -4.200  1.00  0.00     0.162 HD
BRANCH  11  13
HETATM   13  C   UNL     1      36.854 -10.694  -2.740  1.00  0.00     0.168 A 
HETATM   14  S   UNL     1      35.389 -10.560  -3.626  1.00  0.00    -0.050 SA
HETATM   15  C   UNL     1      34.639  -9.787  -2.286  1.00  0.00     0.037 A 
HETATM   16  C   UNL     1      35.560  -9.710  -1.240  1.00  0.00     0.076 A 
HETATM   17  C   UNL     1      33.334  -9.280  -2.166  1.00  0.00     0.021 A 
HETATM   18  N   UNL     1      36.807 -10.250  -1.508  1.00  0.00    -0.223 NA
HETATM   19  C   UNL     1      35.163  -9.104  -0.030  1.00  0.00     0.033 A 
HETATM   20  C   UNL     1      33.867  -8.591   0.098  1.00  0.00     0.002 A 
HETATM   21  C   UNL     1      32.966  -8.680  -0.957  1.00  0.00     0.002 A 
ENDBRANCH  11  13
ENDBRANCH   9  11
ENDBRANCH   6   9
ENDBRANCH   2   5
BRANCH   1  22
HETATM   22  C   UNL     1      40.972 -13.814   2.375  1.00  0.00     0.227 C 
BRANCH  22  23
HETATM   23  N   UNL     1      41.500 -15.063   2.906  1.00  0.00    -0.348 N 
HETATM   24  C   UNL     1      42.787 -15.470   2.633  1.00  0.00     0.252 C 
HETATM   25  O   UNL     1      43.563 -14.766   1.996  1.00  0.00    -0.268 OA
HETATM   26  H   UNL     1      40.976 -15.520   3.640  1.00  0.00     0.163 HD
BRANCH  24  27
HETATM   27  C   UNL     1      43.227 -16.769   3.212  1.00  0.00     0.032 A 
HETATM   28  C   UNL     1      43.191 -17.908   2.396  1.00  0.00     0.024 A 
HETATM   29  C   UNL     1      43.593 -19.163   2.884  1.00  0.00    -0.055 A 
HETATM   30  C   UNL     1      44.011 -19.279   4.224  1.00  0.00    -0.056 A 
HETATM   31  C   UNL     1      43.525 -20.357   1.972  1.00  0.00     0.049 C 
HETATM   32  C   UNL     1      44.452 -20.598   4.799  1.00  0.00     0.049 C 
HETATM   33  C   UNL     1      44.039 -18.135   5.037  1.00  0.00     0.008 A 
HETATM   34  C   UNL     1      43.645 -16.890   4.540  1.00  0.00     0.017 A 
ENDBRANCH  24  27
ENDBRANCH  22  23
ENDBRANCH   1  22
TORSDOF 7
ENDMDL
MODEL 9
REMARK VINA RESULT:      -8.5      2.665     10.365
REMARK  7 active torsions:
REMARK  status: ('A' for Active; 'I' for Inactive)
REMARK    1  A    between atoms: C_6  and  C_7 
REMARK       I    between atoms: C_7  and  N_8 
REMARK    2  A    between atoms: N_8  and  C_9 
REMARK    3  A    between atoms: C_9  and  C_10 
REMARK       I    between atoms: C_10  and  N_11 
REMARK    4  A    between atoms: N_11  and  N_12 
REMARK       I    between atoms: N_12  and  C_13 
REMARK    5  A    between atoms: C_13  and  C_14 
REMARK    6  A    between atoms: C_14  and  N_15 
REMARK    7  A    between atoms: N_15  and  C_16 
ROOT
HETATM    1  C   UNL     1      44.260 -11.681   6.598  1.00  0.00     0.253 C 
HETATM    2  N   UNL     1      43.234 -11.144   5.843  1.00  0.00    -0.266 N 
HETATM    3  O   UNL     1      44.560 -12.875   6.556  1.00  0.00    -0.270 OA
HETATM    4  H   UNL     1      43.275 -10.151   5.583  1.00  0.00     0.190 HD
ENDROOT
BRANCH   2   5
HETATM    5  N   UNL     1      42.579 -11.995   4.934  1.00  0.00    -0.266 N 
HETATM    6  C   UNL     1      41.209 -12.152   5.065  1.00  0.00     0.258 C 
HETATM    7  O   UNL     1      40.585 -11.737   6.041  1.00  0.00    -0.269 OA
HETATM    8  H   UNL     1      43.017 -12.106   4.017  1.00  0.00     0.190 HD
BRANCH   6   9
HETATM    9  C   UNL     1      40.564 -12.917   3.895  1.00  0.00     0.173 C 
HETATM   10  C   UNL     1      41.510 -12.988   2.699  1.00  0.00     0.042 C 
BRANCH   9  11
HETATM   11  N   UNL     1      40.232 -14.281   4.302  1.00  0.00    -0.356 N 
HETATM   12  H   UNL     1      39.261 -14.482   4.517  1.00  0.00     0.162 HD
BRANCH  11  13
HETATM   13  C   UNL     1      41.124 -15.285   4.201  1.00  0.00     0.168 A 
HETATM   14  S   UNL     1      42.212 -15.606   5.491  1.00  0.00    -0.050 SA
HETATM   15  C   UNL     1      42.934 -16.871   4.579  1.00  0.00     0.037 A 
HETATM   16  C   UNL     1      42.271 -16.978   3.356  1.00  0.00     0.076 A 
HETATM   17  C   UNL     1      44.012 -17.707   4.915  1.00  0.00     0.021 A 
HETATM   18  N   UNL     1      41.231 -16.083   3.167  1.00  0.00    -0.223 NA
HETATM   19  C   UNL     1      42.700 -17.955   2.435  1.00  0.00     0.033 A 
HETATM   20  C   UNL     1      43.776 -18.789   2.757  1.00  0.00     0.002 A 
HETATM   21  C   UNL     1      44.422 -18.666   3.982  1.00  0.00     0.002 A 
ENDBRANCH  11  13
ENDBRANCH   9  11
ENDBRANCH   6   9
ENDBRANCH   2   5
BRANCH   1  22
HETATM   22  C   UNL     1      45.089 -10.660   7.382  1.00  0.00     0.227 C 
BRANCH  22  23
HETATM   23  N   UNL     1      44.399 -10.080   8.527  1.00  0.00    -0.348 N 
HETATM   24  C   UNL     1      44.661  -8.795   8.946  1.00  0.00     0.252 C 
HETATM   25  O   UNL     1      45.427  -8.061   8.330  1.00  0.00    -0.268 OA
HETATM   26  H   UNL     1      43.584 -10.564   8.879  1.00  0.00     0.163 HD
BRANCH  24  27
HETATM   27  C   UNL     1      43.913  -8.300  10.134  1.00  0.00     0.032 A 
HETATM   28  C   UNL     1      43.176  -7.115  10.011  1.00  0.00     0.024 A 
HETATM   29  C   UNL     1      42.450  -6.596  11.096  1.00  0.00    -0.055 A 
HETATM   30  C   UNL     1      42.490  -7.266  12.335  1.00  0.00    -0.056 A 
HETATM   31  C   UNL     1      41.684  -5.314  10.917  1.00  0.00     0.049 C 
HETATM   32  C   UNL     1      41.731  -6.755  13.530  1.00  0.00     0.049 C 
HETATM   33  C   UNL     1      43.235  -8.449  12.452  1.00  0.00     0.008 A 
HETATM   34  C   UNL     1      43.948  -8.962  11.365  1.00  0.00     0.017 A 
ENDBRANCH  24  27
ENDBRANCH  22  23
ENDBRANCH   1  22
TORSDOF 7
ENDMDL
MODEL 10
REMARK VINA RESULT:      -8.4      6.971      9.876
REMARK  7 active torsions:
REMARK  status: ('A' for Active; 'I' for Inactive)
REMARK    1  A    between atoms: C_6  and  C_7 
REMARK       I    between atoms: C_7  and  N_8 
REMARK    2  A    between atoms: N_8  and  C_9 
REMARK    3  A    between atoms: C_9  and  C_10 
REMARK       I    between atoms: C_10  and  N_11 
REMARK    4  A    between atoms: N_11  and  N_12 
REMARK       I    between atoms: N_12  and  C_13 
REMARK    5  A    between atoms: C_13  and  C_14 
REMARK    6  A    between atoms: C_14  and  N_15 
REMARK    7  A    between atoms: N_15  and  C_16 
ROOT
HETATM    1  C   UNL     1      40.127 -14.045   0.886  1.00  0.00     0.253 C 
HETATM    2  N   UNL     1      39.143 -13.100   0.671  1.00  0.00    -0.266 N 
HETATM    3  O   UNL     1      40.422 -14.900   0.049  1.00  0.00    -0.270 OA
HETATM    4  H   UNL     1      39.202 -12.199   1.161  1.00  0.00     0.190 HD
ENDROOT
BRANCH   2   5
HETATM    5  N   UNL     1      38.528 -13.075  -0.594  1.00  0.00    -0.266 N 
HETATM    6  C   UNL     1      37.796 -11.951  -0.938  1.00  0.00     0.258 C 
HETATM    7  O   UNL     1      37.510 -11.073  -0.125  1.00  0.00    -0.269 OA
HETATM    8  H   UNL     1      38.967 -13.638  -1.326  1.00  0.00     0.190 HD
BRANCH   6   9
HETATM    9  C   UNL     1      37.357 -11.932  -2.414  1.00  0.00     0.173 C 
HETATM   10  C   UNL     1      36.360 -10.805  -2.673  1.00  0.00     0.042 C 
BRANCH   9  11
HETATM   11  N   UNL     1      38.513 -11.734  -3.286  1.00  0.00    -0.356 N 
HETATM   12  H   UNL     1      38.537 -12.254  -4.156  1.00  0.00     0.162 HD
BRANCH  11  13
HETATM   13  C   UNL     1      39.411 -10.757  -3.056  1.00  0.00     0.168 A 
HETATM   14  S   UNL     1      39.411  -9.339  -4.026  1.00  0.00    -0.050 SA
HETATM   15  C   UNL     1      40.768  -8.736  -3.160  1.00  0.00     0.037 A 
HETATM   16  C   UNL     1      41.111  -9.654  -2.167  1.00  0.00     0.076 A 
HETATM   17  C   UNL     1      41.482  -7.540  -3.346  1.00  0.00     0.021 A 
HETATM   18  N   UNL     1      40.316 -10.787  -2.108  1.00  0.00    -0.223 NA
HETATM   19  C   UNL     1      42.208  -9.368  -1.329  1.00  0.00     0.033 A 
HETATM   20  C   UNL     1      42.930  -8.184  -1.509  1.00  0.00     0.002 A 
HETATM   21  C   UNL     1      42.570  -7.282  -2.505  1.00  0.00     0.002 A 
ENDBRANCH  11  13
ENDBRANCH   9  11
ENDBRANCH   6   9
ENDBRANCH   2   5
BRANCH   1  22
HETATM   22  C   UNL     1      40.923 -13.867   2.182  1.00  0.00     0.227 C 
BRANCH  22  23
HETATM   23  N   UNL     1      41.422 -15.110   2.755  1.00  0.00    -0.348 N 
HETATM   24  C   UNL     1      42.743 -15.480   2.622  1.00  0.00     0.252 C 
HETATM   25  O   UNL     1      43.566 -14.746   2.085  1.00  0.00    -0.268 OA
HETATM   26  H   UNL     1      40.833 -15.591   3.420  1.00  0.00     0.163 HD
BRANCH  24  27
HETATM   27  C   UNL     1      43.151 -16.776   3.231  1.00  0.00     0.032 A 
HETATM   28  C   UNL     1      43.157 -16.881   4.628  1.00  0.00     0.024 A 
HETATM   29  C   UNL     1      43.533 -18.078   5.263  1.00  0.00    -0.055 A 
HETATM   30  C   UNL     1      43.938 -19.176   4.479  1.00  0.00    -0.056 A 
HETATM   31  C   UNL     1      43.535 -18.138   6.766  1.00  0.00     0.049 C 
HETATM   32  C   UNL     1      44.350 -20.480   5.107  1.00  0.00     0.049 C 
HETATM   33  C   UNL     1      43.934 -19.060   3.081  1.00  0.00     0.008 A 
HETATM   34  C   UNL     1      43.551 -17.869   2.458  1.00  0.00     0.017 A 
ENDBRANCH  24  27
ENDBRANCH  22  23
ENDBRANCH   1  22
TORSDOF 7
ENDMDL
