MODEL 1
REMARK VINA RESULT:      -8.9      0.000      0.000
REMARK  4 active torsions:
REMARK  status: ('A' for Active; 'I' for Inactive)
REMARK    1  A    between atoms: C_4  and  C_5 
REMARK    2  A    between atoms: C_14  and  C_15 
REMARK    3  A    between atoms: C_15  and  C_16 
REMARK    4  A    between atoms: C_17  and  O_18 
ROOT
HETATM    1  C   UNL     1      39.990 -16.058   3.889  1.00  0.00     0.071 C 
HETATM    2  C   UNL     1      40.750 -15.360   2.790  1.00  0.00     0.045 A 
HETATM    3  N   UNL     1      39.965 -15.087   1.692  1.00  0.00    -0.234 NA
HETATM    4  C   UNL     1      40.492 -14.463   0.687  1.00  0.00     0.141 A 
HETATM    5  N   UNL     1      41.816 -14.116   0.661  1.00  0.00    -0.307 N 
HETATM    6  C   UNL     1      42.644 -14.345   1.711  1.00  0.00     0.255 A 
HETATM    7  O   UNL     1      43.820 -13.986   1.700  1.00  0.00    -0.268 OA
HETATM    8  C   UNL     1      42.049 -15.011   2.892  1.00  0.00     0.039 A 
HETATM    9  H   UNL     1      42.242 -13.676  -0.138  1.00  0.00     0.170 HD
ENDROOT
BRANCH   8  10
HETATM   10  C   UNL     1      42.977 -15.231   4.059  1.00  0.00     0.088 C 
BRANCH  10  11
HETATM   11  C   UNL     1      43.375 -16.681   4.253  1.00  0.00    -0.020 A 
HETATM   12  C   UNL     1      43.690 -17.240   5.513  1.00  0.00     0.074 A 
HETATM   13  C   UNL     1      43.986 -18.598   5.655  1.00  0.00     0.074 A 
HETATM   14  C   UNL     1      43.989 -19.383   4.525  1.00  0.00     0.077 A 
HETATM   15  C   UNL     1      43.728 -18.857   3.274  1.00  0.00    -0.022 A 
HETATM   16  O   UNL     1      44.273 -20.724   4.510  1.00  0.00    -0.350 OA
HETATM   17  C   UNL     1      43.908 -19.915   2.256  1.00  0.00     0.068 C 
HETATM   18  C   UNL     1      43.424 -17.515   3.116  1.00  0.00     0.020 A 
HETATM   19  C   UNL     1      43.887 -21.135   3.177  1.00  0.00     0.180 C 
BRANCH  12  20
HETATM   20  O   UNL     1      43.740 -16.520   6.674  1.00  0.00    -0.360 OA
HETATM   21  H   UNL     1      42.889 -16.545   7.153  1.00  0.00     0.217 HD
ENDBRANCH  12  20
ENDBRANCH  10  11
ENDBRANCH   8  10
BRANCH   4  22
HETATM   22  C   UNL     1      39.674 -14.099  -0.503  1.00  0.00     0.010 A 
HETATM   23  C   UNL     1      39.134 -12.816  -0.666  1.00  0.00     0.015 A 
HETATM   24  C   UNL     1      38.357 -12.520  -1.788  1.00  0.00     0.001 A 
HETATM   25  C   UNL     1      38.105 -13.502  -2.745  1.00  0.00     0.000 A 
HETATM   26  C   UNL     1      38.624 -14.784  -2.580  1.00  0.00     0.001 A 
HETATM   27  C   UNL     1      39.404 -15.084  -1.462  1.00  0.00     0.015 A 
ENDBRANCH   4  22
TORSDOF 4
ENDMDL
MODEL 2
REMARK VINA RESULT:      -8.7      3.880      7.259
REMARK  4 active torsions:
REMARK  status: ('A' for Active; 'I' for Inactive)
REMARK    1  A    between atoms: C_4  and  C_5 
REMARK    2  A    between atoms: C_14  and  C_15 
REMARK    3  A    between atoms: C_15  and  C_16 
REMARK    4  A    between atoms: C_17  and  O_18 
ROOT
HETATM    1  C   UNL     1      40.953 -14.792   5.958  1.00  0.00     0.071 C 
HETATM    2  C   UNL     1      41.843 -15.069   4.773  1.00  0.00     0.045 A 
HETATM    3  N   UNL     1      42.197 -16.397   4.674  1.00  0.00    -0.234 NA
HETATM    4  C   UNL     1      42.939 -16.772   3.682  1.00  0.00     0.141 A 
HETATM    5  N   UNL     1      43.425 -15.884   2.761  1.00  0.00    -0.307 N 
HETATM    6  C   UNL     1      43.109 -14.565   2.792  1.00  0.00     0.255 A 
HETATM    7  O   UNL     1      43.510 -13.781   1.934  1.00  0.00    -0.268 OA
HETATM    8  C   UNL     1      42.220 -14.123   3.890  1.00  0.00     0.039 A 
HETATM    9  H   UNL     1      44.044 -16.164   2.017  1.00  0.00     0.170 HD
ENDROOT
BRANCH   8  10
HETATM   10  C   UNL     1      41.856 -12.660   3.890  1.00  0.00     0.088 C 
BRANCH  10  11
HETATM   11  C   UNL     1      42.489 -11.878   5.026  1.00  0.00    -0.020 A 
HETATM   12  C   UNL     1      41.751 -11.061   5.914  1.00  0.00     0.074 A 
HETATM   13  C   UNL     1      42.365 -10.412   6.987  1.00  0.00     0.074 A 
HETATM   14  C   UNL     1      43.723 -10.567   7.149  1.00  0.00     0.077 A 
HETATM   15  C   UNL     1      44.477 -11.324   6.272  1.00  0.00    -0.022 A 
HETATM   16  O   UNL     1      44.460  -9.982   8.146  1.00  0.00    -0.350 OA
HETATM   17  C   UNL     1      45.905 -11.216   6.644  1.00  0.00     0.068 C 
HETATM   18  C   UNL     1      43.884 -11.981   5.208  1.00  0.00     0.020 A 
HETATM   19  C   UNL     1      45.740 -10.650   8.054  1.00  0.00     0.180 C 
BRANCH  12  20
HETATM   20  O   UNL     1      40.409 -10.831   5.800  1.00  0.00    -0.360 OA
HETATM   21  H   UNL     1      40.161  -9.952   6.149  1.00  0.00     0.217 HD
ENDBRANCH  12  20
ENDBRANCH  10  11
ENDBRANCH   8  10
BRANCH   4  22
HETATM   22  C   UNL     1      43.308 -18.204   3.501  1.00  0.00     0.010 A 
HETATM   23  C   UNL     1      43.092 -18.877   2.291  1.00  0.00     0.015 A 
HETATM   24  C   UNL     1      43.435 -20.225   2.166  1.00  0.00     0.001 A 
HETATM   25  C   UNL     1      43.984 -20.910   3.249  1.00  0.00     0.000 A 
HETATM   26  C   UNL     1      44.185 -20.253   4.461  1.00  0.00     0.001 A 
HETATM   27  C   UNL     1      43.846 -18.904   4.588  1.00  0.00     0.015 A 
ENDBRANCH   4  22
TORSDOF 4
ENDMDL
MODEL 3
REMARK VINA RESULT:      -8.4      1.525      2.142
REMARK  4 active torsions:
REMARK  status: ('A' for Active; 'I' for Inactive)
REMARK    1  A    between atoms: C_4  and  C_5 
REMARK    2  A    between atoms: C_14  and  C_15 
REMARK    3  A    between atoms: C_15  and  C_16 
REMARK    4  A    between atoms: C_17  and  O_18 
ROOT
HETATM    1  C   UNL     1      39.800 -13.023   4.254  1.00  0.00     0.071 C 
HETATM    2  C   UNL     1      40.558 -13.467   3.029  1.00  0.00     0.045 A 
HETATM    3  N   UNL     1      39.768 -13.506   1.901  1.00  0.00    -0.234 NA
HETATM    4  C   UNL     1      40.306 -13.845   0.774  1.00  0.00     0.141 A 
HETATM    5  N   UNL     1      41.620 -14.218   0.679  1.00  0.00    -0.307 N 
HETATM    6  C   UNL     1      42.457 -14.194   1.746  1.00  0.00     0.255 A 
HETATM    7  O   UNL     1      43.648 -14.482   1.643  1.00  0.00    -0.268 OA
HETATM    8  C   UNL     1      41.874 -13.758   3.035  1.00  0.00     0.039 A 
HETATM    9  H   UNL     1      42.030 -14.531  -0.186  1.00  0.00     0.170 HD
ENDROOT
BRANCH   8  10
HETATM   10  C   UNL     1      42.827 -13.709   4.202  1.00  0.00     0.088 C 
BRANCH  10  11
HETATM   11  C   UNL     1      42.920 -15.017   4.965  1.00  0.00    -0.020 A 
HETATM   12  C   UNL     1      42.340 -15.218   6.239  1.00  0.00     0.074 A 
HETATM   13  C   UNL     1      42.391 -16.460   6.876  1.00  0.00     0.074 A 
HETATM   14  C   UNL     1      43.048 -17.489   6.240  1.00  0.00     0.077 A 
HETATM   15  C   UNL     1      43.663 -17.311   5.015  1.00  0.00    -0.022 A 
HETATM   16  O   UNL     1      43.191 -18.754   6.749  1.00  0.00    -0.350 OA
HETATM   17  C   UNL     1      44.369 -18.556   4.642  1.00  0.00     0.068 C 
HETATM   18  C   UNL     1      43.614 -16.089   4.366  1.00  0.00     0.020 A 
HETATM   19  C   UNL     1      43.696 -19.513   5.626  1.00  0.00     0.180 C 
BRANCH  12  20
HETATM   20  O   UNL     1      41.700 -14.239   6.947  1.00  0.00    -0.360 OA
HETATM   21  H   UNL     1      41.009 -14.608   7.531  1.00  0.00     0.217 HD
ENDBRANCH  12  20
ENDBRANCH  10  11
ENDBRANCH   8  10
BRANCH   4  22
HETATM   22  C   UNL     1      39.508 -13.855  -0.484  1.00  0.00     0.010 A 
HETATM   23  C   UNL     1      39.502 -14.957  -1.349  1.00  0.00     0.015 A 
HETATM   24  C   UNL     1      38.754 -14.920  -2.528  1.00  0.00     0.001 A 
HETATM   25  C   UNL     1      38.019 -13.782  -2.855  1.00  0.00     0.000 A 
HETATM   26  C   UNL     1      38.033 -12.675  -2.008  1.00  0.00     0.001 A 
HETATM   27  C   UNL     1      38.778 -12.709  -0.827  1.00  0.00     0.015 A 
ENDBRANCH   4  22
TORSDOF 4
ENDMDL
MODEL 4
REMARK VINA RESULT:      -8.4      4.279      7.197
REMARK  4 active torsions:
REMARK  status: ('A' for Active; 'I' for Inactive)
REMARK    1  A    between atoms: C_4  and  C_5 
REMARK    2  A    between atoms: C_14  and  C_15 
REMARK    3  A    between atoms: C_15  and  C_16 
REMARK    4  A    between atoms: C_17  and  O_18 
ROOT
HETATM    1  C   UNL     1      43.574 -12.309   3.021  1.00  0.00     0.071 C 
HETATM    2  C   UNL     1      43.256 -12.596   4.466  1.00  0.00     0.045 A 
HETATM    3  N   UNL     1      43.962 -11.793   5.335  1.00  0.00    -0.234 NA
HETATM    4  C   UNL     1      43.760 -11.920   6.607  1.00  0.00     0.141 A 
HETATM    5  N   UNL     1      42.908 -12.863   7.116  1.00  0.00    -0.307 N 
HETATM    6  C   UNL     1      42.174 -13.680   6.320  1.00  0.00     0.255 A 
HETATM    7  O   UNL     1      41.374 -14.490   6.783  1.00  0.00    -0.268 OA
HETATM    8  C   UNL     1      42.352 -13.515   4.859  1.00  0.00     0.039 A 
HETATM    9  H   UNL     1      42.785 -13.000   8.107  1.00  0.00     0.170 HD
ENDROOT
BRANCH   8  10
HETATM   10  C   UNL     1      41.506 -14.411   3.991  1.00  0.00     0.088 C 
BRANCH  10  11
HETATM   11  C   UNL     1      42.207 -15.690   3.575  1.00  0.00    -0.020 A 
HETATM   12  C   UNL     1      42.491 -16.020   2.229  1.00  0.00     0.074 A 
HETATM   13  C   UNL     1      43.199 -17.177   1.896  1.00  0.00     0.074 A 
HETATM   14  C   UNL     1      43.596 -18.011   2.916  1.00  0.00     0.077 A 
HETATM   15  C   UNL     1      43.294 -17.738   4.237  1.00  0.00    -0.022 A 
HETATM   16  O   UNL     1      44.283 -19.184   2.740  1.00  0.00    -0.350 OA
HETATM   17  C   UNL     1      43.756 -18.861   5.082  1.00  0.00     0.068 C 
HETATM   18  C   UNL     1      42.601 -16.591   4.586  1.00  0.00     0.020 A 
HETATM   19  C   UNL     1      44.692 -19.539   4.081  1.00  0.00     0.180 C 
BRANCH  12  20
HETATM   20  O   UNL     1      42.103 -15.260   1.161  1.00  0.00    -0.360 OA
HETATM   21  H   UNL     1      41.840 -15.814   0.400  1.00  0.00     0.217 HD
ENDBRANCH  12  20
ENDBRANCH  10  11
ENDBRANCH   8  10
BRANCH   4  22
HETATM   22  C   UNL     1      44.460 -11.042   7.586  1.00  0.00     0.010 A 
HETATM   23  C   UNL     1      43.949 -10.810   8.870  1.00  0.00     0.015 A 
HETATM   24  C   UNL     1      44.626  -9.965   9.752  1.00  0.00     0.001 A 
HETATM   25  C   UNL     1      45.808  -9.341   9.356  1.00  0.00     0.000 A 
HETATM   26  C   UNL     1      46.313  -9.554   8.075  1.00  0.00     0.001 A 
HETATM   27  C   UNL     1      45.640 -10.399   7.190  1.00  0.00     0.015 A 
ENDBRANCH   4  22
TORSDOF 4
ENDMDL
MODEL 5
REMARK VINA RESULT:      -8.4      4.186      6.853
REMARK  4 active torsions:
REMARK  status: ('A' for Active; 'I' for Inactive)
REMARK    1  A    between atoms: C_4  and  C_5 
REMARK    2  A    between atoms: C_14  and  C_15 
REMARK    3  A    between atoms: C_15  and  C_16 
REMARK    4  A    between atoms: C_17  and  O_18 
ROOT
HETATM    1  C   UNL     1      42.165 -13.551   3.908  1.00  0.00     0.071 C 
HETATM    2  C   UNL     1      42.668 -13.595   5.328  1.00  0.00     0.045 A 
HETATM    3  N   UNL     1      43.377 -12.466   5.676  1.00  0.00    -0.234 NA
HETATM    4  C   UNL     1      43.840 -12.366   6.880  1.00  0.00     0.141 A 
HETATM    5  N   UNL     1      43.695 -13.369   7.800  1.00  0.00    -0.307 N 
HETATM    6  C   UNL     1      43.001 -14.503   7.530  1.00  0.00     0.255 A 
HETATM    7  O   UNL     1      42.832 -15.378   8.377  1.00  0.00    -0.268 OA
HETATM    8  C   UNL     1      42.418 -14.615   6.174  1.00  0.00     0.039 A 
HETATM    9  H   UNL     1      44.097 -13.317   8.723  1.00  0.00     0.170 HD
ENDROOT
BRANCH   8  10
HETATM   10  C   UNL     1      41.626 -15.868   5.902  1.00  0.00     0.088 C 
BRANCH  10  11
HETATM   11  C   UNL     1      42.450 -16.986   5.291  1.00  0.00    -0.020 A 
HETATM   12  C   UNL     1      43.193 -17.913   6.057  1.00  0.00     0.074 A 
HETATM   13  C   UNL     1      43.883 -18.968   5.456  1.00  0.00     0.074 A 
HETATM   14  C   UNL     1      43.844 -19.072   4.084  1.00  0.00     0.077 A 
HETATM   15  C   UNL     1      43.162 -18.155   3.306  1.00  0.00    -0.022 A 
HETATM   16  O   UNL     1      44.483 -20.044   3.358  1.00  0.00    -0.350 OA
HETATM   17  C   UNL     1      43.390 -18.468   1.878  1.00  0.00     0.068 C 
HETATM   18  C   UNL     1      42.466 -17.108   3.886  1.00  0.00     0.020 A 
HETATM   19  C   UNL     1      43.928 -19.890   2.031  1.00  0.00     0.180 C 
BRANCH  12  20
HETATM   20  O   UNL     1      43.308 -17.858   7.418  1.00  0.00    -0.360 OA
HETATM   21  H   UNL     1      44.209 -18.089   7.715  1.00  0.00     0.217 HD
ENDBRANCH  12  20
ENDBRANCH  10  11
ENDBRANCH   8  10
BRANCH   4  22
HETATM   22  C   UNL     1      44.569 -11.144   7.321  1.00  0.00     0.010 A 
HETATM   23  C   UNL     1      45.959 -11.022   7.186  1.00  0.00     0.015 A 
HETATM   24  C   UNL     1      46.608  -9.868   7.629  1.00  0.00     0.001 A 
HETATM   25  C   UNL     1      45.879  -8.835   8.216  1.00  0.00     0.000 A 
HETATM   26  C   UNL     1      44.499  -8.957   8.369  1.00  0.00     0.001 A 
HETATM   27  C   UNL     1      43.846 -10.108   7.926  1.00  0.00     0.015 A 
ENDBRANCH   4  22
TORSDOF 4
ENDMDL
MODEL 6
REMARK VINA RESULT:      -8.3      1.343      2.140
REMARK  4 active torsions:
REMARK  status: ('A' for Active; 'I' for Inactive)
REMARK    1  A    between atoms: C_4  and  C_5 
REMARK    2  A    between atoms: C_14  and  C_15 
REMARK    3  A    between atoms: C_15  and  C_16 
REMARK    4  A    between atoms: C_17  and  O_18 
ROOT
HETATM    1  C   UNL     1      43.603 -12.806   3.037  1.00  0.00     0.071 C 
HETATM    2  C   UNL     1      42.333 -13.610   2.925  1.00  0.00     0.045 A 
HETATM    3  N   UNL     1      41.641 -13.351   1.763  1.00  0.00    -0.234 NA
HETATM    4  C   UNL     1      40.544 -13.999   1.532  1.00  0.00     0.141 A 
HETATM    5  N   UNL     1      40.024 -14.890   2.431  1.00  0.00    -0.307 N 
HETATM    6  C   UNL     1      40.656 -15.201   3.590  1.00  0.00     0.255 A 
HETATM    7  O   UNL     1      40.208 -16.039   4.370  1.00  0.00    -0.268 OA
HETATM    8  C   UNL     1      41.940 -14.510   3.850  1.00  0.00     0.039 A 
HETATM    9  H   UNL     1      39.145 -15.359   2.278  1.00  0.00     0.170 HD
ENDROOT
BRANCH   8  10
HETATM   10  C   UNL     1      42.642 -14.889   5.128  1.00  0.00     0.088 C 
BRANCH  10  11
HETATM   11  C   UNL     1      43.063 -16.345   5.180  1.00  0.00    -0.020 A 
HETATM   12  C   UNL     1      43.124 -17.096   6.377  1.00  0.00     0.074 A 
HETATM   13  C   UNL     1      43.452 -18.454   6.371  1.00  0.00     0.074 A 
HETATM   14  C   UNL     1      43.742 -19.045   5.162  1.00  0.00     0.077 A 
HETATM   15  C   UNL     1      43.733 -18.327   3.981  1.00  0.00    -0.022 A 
HETATM   16  O   UNL     1      44.092 -20.362   5.004  1.00  0.00    -0.350 OA
HETATM   17  C   UNL     1      44.185 -19.204   2.878  1.00  0.00     0.068 C 
HETATM   18  C   UNL     1      43.402 -16.983   3.968  1.00  0.00     0.020 A 
HETATM   19  C   UNL     1      44.026 -20.557   3.572  1.00  0.00     0.180 C 
BRANCH  12  20
HETATM   20  O   UNL     1      42.883 -16.573   7.617  1.00  0.00    -0.360 OA
HETATM   21  H   UNL     1      42.358 -15.751   7.567  1.00  0.00     0.217 HD
ENDBRANCH  12  20
ENDBRANCH  10  11
ENDBRANCH   8  10
BRANCH   4  22
HETATM   22  C   UNL     1      39.785 -13.793   0.267  1.00  0.00     0.010 A 
HETATM   23  C   UNL     1      39.713 -14.783  -0.722  1.00  0.00     0.015 A 
HETATM   24  C   UNL     1      39.006 -14.544  -1.904  1.00  0.00     0.001 A 
HETATM   25  C   UNL     1      38.378 -13.316  -2.108  1.00  0.00     0.000 A 
HETATM   26  C   UNL     1      38.460 -12.321  -1.136  1.00  0.00     0.001 A 
HETATM   27  C   UNL     1      39.163 -12.557   0.047  1.00  0.00     0.015 A 
ENDBRANCH   4  22
TORSDOF 4
ENDMDL
MODEL 7
REMARK VINA RESULT:      -8.3     13.559     16.346
REMARK  4 active torsions:
REMARK  status: ('A' for Active; 'I' for Inactive)
REMARK    1  A    between atoms: C_4  and  C_5 
REMARK    2  A    between atoms: C_14  and  C_15 
REMARK    3  A    between atoms: C_15  and  C_16 
REMARK    4  A    between atoms: C_17  and  O_18 
ROOT
HETATM    1  C   UNL     1      44.163 -29.546   1.564  1.00  0.00     0.071 C 
HETATM    2  C   UNL     1      45.568 -29.187   1.152  1.00  0.00     0.045 A 
HETATM    3  N   UNL     1      46.513 -29.618   2.057  1.00  0.00    -0.234 NA
HETATM    4  C   UNL     1      47.764 -29.397   1.807  1.00  0.00     0.141 A 
HETATM    5  N   UNL     1      48.171 -28.701   0.701  1.00  0.00    -0.307 N 
HETATM    6  C   UNL     1      47.297 -28.255  -0.236  1.00  0.00     0.255 A 
HETATM    7  O   UNL     1      47.674 -27.674  -1.252  1.00  0.00    -0.268 OA
HETATM    8  C   UNL     1      45.865 -28.544   0.005  1.00  0.00     0.039 A 
HETATM    9  H   UNL     1      49.140 -28.483   0.528  1.00  0.00     0.170 HD
ENDROOT
BRANCH   8  10
HETATM   10  C   UNL     1      44.912 -28.067  -1.061  1.00  0.00     0.088 C 
BRANCH  10  11
HETATM   11  C   UNL     1      44.769 -29.031  -2.223  1.00  0.00    -0.020 A 
HETATM   12  C   UNL     1      45.008 -28.669  -3.569  1.00  0.00     0.074 A 
HETATM   13  C   UNL     1      44.931 -29.606  -4.601  1.00  0.00     0.074 A 
HETATM   14  C   UNL     1      44.588 -30.900  -4.278  1.00  0.00     0.077 A 
HETATM   15  C   UNL     1      44.305 -31.274  -2.978  1.00  0.00    -0.022 A 
HETATM   16  O   UNL     1      44.460 -31.921  -5.185  1.00  0.00    -0.350 OA
HETATM   17  C   UNL     1      43.870 -32.688  -2.964  1.00  0.00     0.068 C 
HETATM   18  C   UNL     1      44.386 -30.359  -1.942  1.00  0.00     0.020 A 
HETATM   19  C   UNL     1      44.361 -33.099  -4.352  1.00  0.00     0.180 C 
BRANCH  12  20
HETATM   20  O   UNL     1      45.321 -27.401  -3.972  1.00  0.00    -0.360 OA
HETATM   21  H   UNL     1      46.109 -27.057  -3.508  1.00  0.00     0.217 HD
ENDBRANCH  12  20
ENDBRANCH  10  11
ENDBRANCH   8  10
BRANCH   4  22
HETATM   22  C   UNL     1      48.828 -29.887   2.727  1.00  0.00     0.010 A 
HETATM   23  C   UNL     1      50.187 -29.815   2.393  1.00  0.00     0.015 A 
HETATM   24  C   UNL     1      51.153 -30.302   3.276  1.00  0.00     0.001 A 
HETATM   25  C   UNL     1      50.769 -30.874   4.488  1.00  0.00     0.000 A 
HETATM   26  C   UNL     1      49.419 -30.965   4.819  1.00  0.00     0.001 A 
HETATM   27  C   UNL     1      48.450 -30.476   3.941  1.00  0.00     0.015 A 
ENDBRANCH   4  22
TORSDOF 4
ENDMDL
MODEL 8
REMARK VINA RESULT:      -8.2      3.904      7.817
REMARK  4 active torsions:
REMARK  status: ('A' for Active; 'I' for Inactive)
REMARK    1  A    between atoms: C_4  and  C_5 
REMARK    2  A    between atoms: C_14  and  C_15 
REMARK    3  A    between atoms: C_15  and  C_16 
REMARK    4  A    between atoms: C_17  and  O_18 
ROOT
HETATM    1  C   UNL     1      43.143 -13.415   2.732  1.00  0.00     0.071 C 
HETATM    2  C   UNL     1      43.113 -14.433   3.844  1.00  0.00     0.045 A 
HETATM    3  N   UNL     1      43.248 -15.725   3.385  1.00  0.00    -0.234 NA
HETATM    4  C   UNL     1      43.265 -16.693   4.244  1.00  0.00     0.141 A 
HETATM    5  N   UNL     1      43.100 -16.478   5.585  1.00  0.00    -0.307 N 
HETATM    6  C   UNL     1      42.971 -15.232   6.107  1.00  0.00     0.255 A 
HETATM    7  O   UNL     1      42.873 -15.043   7.318  1.00  0.00    -0.268 OA
HETATM    8  C   UNL     1      43.001 -14.106   5.147  1.00  0.00     0.039 A 
HETATM    9  H   UNL     1      43.062 -17.233   6.252  1.00  0.00     0.170 HD
ENDROOT
BRANCH   8  10
HETATM   10  C   UNL     1      42.886 -12.728   5.748  1.00  0.00     0.088 C 
BRANCH  10  11
HETATM   11  C   UNL     1      41.561 -12.049   5.460  1.00  0.00    -0.020 A 
HETATM   12  C   UNL     1      40.328 -12.486   5.996  1.00  0.00     0.074 A 
HETATM   13  C   UNL     1      39.141 -11.790   5.759  1.00  0.00     0.074 A 
HETATM   14  C   UNL     1      39.195 -10.670   4.961  1.00  0.00     0.077 A 
HETATM   15  C   UNL     1      40.377 -10.243   4.387  1.00  0.00    -0.022 A 
HETATM   16  O   UNL     1      38.111  -9.897   4.631  1.00  0.00    -0.350 OA
HETATM   17  C   UNL     1      40.098  -9.086   3.507  1.00  0.00     0.068 C 
HETATM   18  C   UNL     1      41.564 -10.916   4.619  1.00  0.00     0.020 A 
HETATM   19  C   UNL     1      38.707  -8.725   4.026  1.00  0.00     0.180 C 
BRANCH  12  20
HETATM   20  O   UNL     1      40.189 -13.606   6.769  1.00  0.00    -0.360 OA
HETATM   21  H   UNL     1      40.911 -14.245   6.614  1.00  0.00     0.217 HD
ENDBRANCH  12  20
ENDBRANCH  10  11
ENDBRANCH   8  10
BRANCH   4  22
HETATM   22  C   UNL     1      43.460 -18.103   3.804  1.00  0.00     0.010 A 
HETATM   23  C   UNL     1      43.147 -18.523   2.504  1.00  0.00     0.015 A 
HETATM   24  C   UNL     1      43.326 -19.858   2.135  1.00  0.00     0.001 A 
HETATM   25  C   UNL     1      43.807 -20.782   3.062  1.00  0.00     0.000 A 
HETATM   26  C   UNL     1      44.104 -20.375   4.361  1.00  0.00     0.001 A 
HETATM   27  C   UNL     1      43.929 -19.041   4.733  1.00  0.00     0.015 A 
ENDBRANCH   4  22
TORSDOF 4
ENDMDL
MODEL 9
REMARK VINA RESULT:      -8.1      2.903      8.109
REMARK  4 active torsions:
REMARK  status: ('A' for Active; 'I' for Inactive)
REMARK    1  A    between atoms: C_4  and  C_5 
REMARK    2  A    between atoms: C_14  and  C_15 
REMARK    3  A    between atoms: C_15  and  C_16 
REMARK    4  A    between atoms: C_17  and  O_18 
ROOT
HETATM    1  C   UNL     1      43.458 -12.836   2.976  1.00  0.00     0.071 C 
HETATM    2  C   UNL     1      42.520 -14.006   2.828  1.00  0.00     0.045 A 
HETATM    3  N   UNL     1      43.150 -15.218   3.014  1.00  0.00    -0.234 NA
HETATM    4  C   UNL     1      42.448 -16.303   2.941  1.00  0.00     0.141 A 
HETATM    5  N   UNL     1      41.115 -16.288   2.632  1.00  0.00    -0.307 N 
HETATM    6  C   UNL     1      40.430 -15.132   2.446  1.00  0.00     0.255 A 
HETATM    7  O   UNL     1      39.221 -15.123   2.217  1.00  0.00    -0.268 OA
HETATM    8  C   UNL     1      41.202 -13.875   2.576  1.00  0.00     0.039 A 
HETATM    9  H   UNL     1      40.577 -17.132   2.524  1.00  0.00     0.170 HD
ENDROOT
BRANCH   8  10
HETATM   10  C   UNL     1      40.417 -12.601   2.395  1.00  0.00     0.088 C 
BRANCH  10  11
HETATM   11  C   UNL     1      40.546 -12.001   1.009  1.00  0.00    -0.020 A 
HETATM   12  C   UNL     1      39.894 -12.526  -0.131  1.00  0.00     0.074 A 
HETATM   13  C   UNL     1      39.987 -11.901  -1.377  1.00  0.00     0.074 A 
HETATM   14  C   UNL     1      40.756 -10.764  -1.477  1.00  0.00     0.077 A 
HETATM   15  C   UNL     1      41.441 -10.252  -0.390  1.00  0.00    -0.022 A 
HETATM   16  O   UNL     1      40.950 -10.054  -2.634  1.00  0.00    -0.350 OA
HETATM   17  C   UNL     1      42.256  -9.098  -0.831  1.00  0.00     0.068 C 
HETATM   18  C   UNL     1      41.353 -10.854   0.853  1.00  0.00     0.020 A 
HETATM   19  C   UNL     1      41.583  -8.836  -2.179  1.00  0.00     0.180 C 
BRANCH  12  20
HETATM   20  O   UNL     1      39.141 -13.667  -0.119  1.00  0.00    -0.360 OA
HETATM   21  H   UNL     1      38.195 -13.477  -0.271  1.00  0.00     0.217 HD
ENDBRANCH  12  20
ENDBRANCH  10  11
ENDBRANCH   8  10
BRANCH   4  22
HETATM   22  C   UNL     1      43.071 -17.635   3.184  1.00  0.00     0.010 A 
HETATM   23  C   UNL     1      43.028 -18.657   2.226  1.00  0.00     0.015 A 
HETATM   24  C   UNL     1      43.608 -19.898   2.499  1.00  0.00     0.001 A 
HETATM   25  C   UNL     1      44.222 -20.129   3.729  1.00  0.00     0.000 A 
HETATM   26  C   UNL     1      44.252 -19.123   4.692  1.00  0.00     0.001 A 
HETATM   27  C   UNL     1      43.676 -17.880   4.423  1.00  0.00     0.015 A 
ENDBRANCH   4  22
TORSDOF 4
ENDMDL
MODEL 10
REMARK VINA RESULT:      -8.0      2.438      3.300
REMARK  4 active torsions:
REMARK  status: ('A' for Active; 'I' for Inactive)
REMARK    1  A    between atoms: C_4  and  C_5 
REMARK    2  A    between atoms: C_14  and  C_15 
REMARK    3  A    between atoms: C_15  and  C_16 
REMARK    4  A    between atoms: C_17  and  O_18 
ROOT
HETATM    1  C   UNL     1      43.186 -13.770   1.884  1.00  0.00     0.071 C 
HETATM    2  C   UNL     1      41.728 -13.390   1.878  1.00  0.00     0.045 A 
HETATM    3  N   UNL     1      41.136 -13.575   0.648  1.00  0.00    -0.234 NA
HETATM    4  C   UNL     1      39.875 -13.311   0.516  1.00  0.00     0.141 A 
HETATM    5  N   UNL     1      39.128 -12.803   1.543  1.00  0.00    -0.307 N 
HETATM    6  C   UNL     1      39.643 -12.605   2.783  1.00  0.00     0.255 A 
HETATM    7  O   UNL     1      38.953 -12.195   3.714  1.00  0.00    -0.268 OA
HETATM    8  C   UNL     1      41.071 -12.949   2.970  1.00  0.00     0.039 A 
HETATM    9  H   UNL     1      38.160 -12.549   1.431  1.00  0.00     0.170 HD
ENDROOT
BRANCH   8  10
HETATM   10  C   UNL     1      41.617 -12.750   4.360  1.00  0.00     0.088 C 
BRANCH  10  11
HETATM   11  C   UNL     1      41.805 -14.043   5.129  1.00  0.00    -0.020 A 
HETATM   12  C   UNL     1      40.793 -14.632   5.922  1.00  0.00     0.074 A 
HETATM   13  C   UNL     1      40.987 -15.860   6.559  1.00  0.00     0.074 A 
HETATM   14  C   UNL     1      42.209 -16.478   6.417  1.00  0.00     0.077 A 
HETATM   15  C   UNL     1      43.232 -15.906   5.685  1.00  0.00    -0.022 A 
HETATM   16  O   UNL     1      42.547 -17.675   6.994  1.00  0.00    -0.350 OA
HETATM   17  C   UNL     1      44.443 -16.748   5.805  1.00  0.00     0.068 C 
HETATM   18  C   UNL     1      43.054 -14.694   5.040  1.00  0.00     0.020 A 
HETATM   19  C   UNL     1      43.792 -18.022   6.344  1.00  0.00     0.180 C 
BRANCH  12  20
HETATM   20  O   UNL     1      39.568 -14.065   6.138  1.00  0.00    -0.360 OA
HETATM   21  H   UNL     1      38.856 -14.734   6.152  1.00  0.00     0.217 HD
ENDBRANCH  12  20
ENDBRANCH  10  11
ENDBRANCH   8  10
BRANCH   4  22
HETATM   22  C   UNL     1      39.176 -13.542  -0.779  1.00  0.00     0.010 A 
HETATM   23  C   UNL     1      38.216 -12.649  -1.272  1.00  0.00     0.015 A 
HETATM   24  C   UNL     1      37.569 -12.911  -2.482  1.00  0.00     0.001 A 
HETATM   25  C   UNL     1      37.868 -14.068  -3.200  1.00  0.00     0.000 A 
HETATM   26  C   UNL     1      38.810 -14.969  -2.708  1.00  0.00     0.001 A 
HETATM   27  C   UNL     1      39.461 -14.710  -1.500  1.00  0.00     0.015 A 
ENDBRANCH   4  22
TORSDOF 4
ENDMDL
