MODEL 1
REMARK VINA RESULT:      -9.3      0.000      0.000
REMARK  5 active torsions:
REMARK  status: ('A' for Active; 'I' for Inactive)
REMARK    1  A    between atoms: C_14  and  C_15 
REMARK       I    between atoms: C_15  and  N_16 
REMARK    2  A    between atoms: N_16  and  C_17 
REMARK    3  A    between atoms: C_18  and  C_19 
REMARK    4  A    between atoms: C_19  and  O_20 
REMARK    5  A    between atoms: O_20  and  C_21 
ROOT
HETATM    1  C   UNL     1      41.275 -12.452   2.773  1.00  0.00     0.273 C 
HETATM    2  N   UNL     1      42.634 -12.642   2.989  1.00  0.00    -0.321 N 
HETATM    3  O   UNL     1      40.463 -12.285   3.676  1.00  0.00    -0.266 OA
HETATM    4  H   UNL     1      43.216 -12.275   2.247  1.00  0.00     0.169 HD
ENDROOT
BRANCH   1   5
HETATM    5  C   UNL     1      40.912 -12.369   1.360  1.00  0.00     0.104 C 
HETATM    6  N   UNL     1      40.538 -13.455   0.562  1.00  0.00    -0.345 N 
HETATM    7  C   UNL     1      40.675 -14.841   0.958  1.00  0.00     0.156 C 
HETATM    8  C   UNL     1      40.106 -12.977  -0.627  1.00  0.00     0.060 A 
HETATM    9  C   UNL     1      40.375 -11.626  -0.733  1.00  0.00     0.012 A 
HETATM   10  C   UNL     1      39.497 -13.623  -1.665  1.00  0.00     0.039 A 
HETATM   11  C   UNL     1      40.077 -10.976  -1.948  1.00  0.00     0.132 A 
HETATM   12  C   UNL     1      40.893 -11.247   0.529  1.00  0.00     0.050 C 
HETATM   13  N   UNL     1      39.507 -11.615  -3.013  1.00  0.00    -0.241 NA
HETATM   14  C   UNL     1      39.227 -12.913  -2.811  1.00  0.00     0.139 A 
HETATM   15  N   UNL     1      38.620 -13.777  -3.679  1.00  0.00    -0.350 N 
HETATM   16  H   UNL     1      38.314 -13.523  -4.606  1.00  0.00     0.166 HD
HETATM   17  C   UNL     1      38.468 -15.009  -3.071  1.00  0.00     0.091 A 
HETATM   18  C   UNL     1      39.003 -14.943  -1.795  1.00  0.00     0.034 A 
ENDBRANCH   1   5
BRANCH   2  19
HETATM   19  C   UNL     1      43.211 -12.672   4.279  1.00  0.00     0.043 A 
HETATM   20  C   UNL     1      43.093 -13.754   5.172  1.00  0.00    -0.007 A 
HETATM   21  C   UNL     1      43.626 -13.615   6.470  1.00  0.00     0.011 A 
HETATM   22  C   UNL     1      44.309 -12.460   6.852  1.00  0.00     0.001 A 
HETATM   23  C   UNL     1      44.492 -11.432   5.935  1.00  0.00     0.002 A 
HETATM   24  C   UNL     1      43.955 -11.542   4.652  1.00  0.00     0.030 A 
BRANCH  20  25
HETATM   25  C   UNL     1      42.561 -15.116   4.780  1.00  0.00     0.216 C 
BRANCH  25  26
HETATM   26  O   UNL     1      43.067 -15.504   3.500  1.00  0.00    -0.347 OA
BRANCH  26  27
HETATM   27  C   UNL     1      43.298 -16.852   3.407  1.00  0.00     0.069 A 
HETATM   28  C   UNL     1      42.954 -17.615   2.290  1.00  0.00     0.037 A 
HETATM   29  C   UNL     1      43.244 -18.982   2.265  1.00  0.00     0.003 A 
HETATM   30  C   UNL     1      43.887 -19.580   3.349  1.00  0.00     0.000 A 
HETATM   31  C   UNL     1      44.250 -18.812   4.454  1.00  0.00     0.003 A 
HETATM   32  C   UNL     1      43.962 -17.447   4.480  1.00  0.00     0.037 A 
ENDBRANCH  26  27
ENDBRANCH  25  26
ENDBRANCH  20  25
ENDBRANCH   2  19
TORSDOF 5
ENDMDL
MODEL 2
REMARK VINA RESULT:      -9.2      1.271      2.268
REMARK  5 active torsions:
REMARK  status: ('A' for Active; 'I' for Inactive)
REMARK    1  A    between atoms: C_14  and  C_15 
REMARK       I    between atoms: C_15  and  N_16 
REMARK    2  A    between atoms: N_16  and  C_17 
REMARK    3  A    between atoms: C_18  and  C_19 
REMARK    4  A    between atoms: C_19  and  O_20 
REMARK    5  A    between atoms: O_20  and  C_21 
ROOT
HETATM    1  C   UNL     1      42.367 -13.819   2.172  1.00  0.00     0.273 C 
HETATM    2  N   UNL     1      41.785 -13.739   3.431  1.00  0.00    -0.321 N 
HETATM    3  O   UNL     1      43.560 -14.032   1.991  1.00  0.00    -0.266 OA
HETATM    4  H   UNL     1      40.825 -14.058   3.452  1.00  0.00     0.169 HD
ENDROOT
BRANCH   1   5
HETATM    5  C   UNL     1      41.407 -13.723   1.075  1.00  0.00     0.104 C 
HETATM    6  N   UNL     1      40.986 -12.531   0.477  1.00  0.00    -0.345 N 
HETATM    7  C   UNL     1      41.268 -11.213   1.005  1.00  0.00     0.156 C 
HETATM    8  C   UNL     1      40.241 -12.842  -0.608  1.00  0.00     0.060 A 
HETATM    9  C   UNL     1      39.970 -14.196  -0.637  1.00  0.00     0.012 A 
HETATM   10  C   UNL     1      39.745 -12.037  -1.594  1.00  0.00     0.039 A 
HETATM   11  C   UNL     1      39.122 -14.689  -1.650  1.00  0.00     0.132 A 
HETATM   12  C   UNL     1      40.707 -14.750   0.438  1.00  0.00     0.050 C 
HETATM   13  N   UNL     1      38.583 -13.893  -2.621  1.00  0.00    -0.241 NA
HETATM   14  C   UNL     1      38.938 -12.598  -2.555  1.00  0.00     0.139 A 
HETATM   15  N   UNL     1      38.587 -11.595  -3.413  1.00  0.00    -0.350 N 
HETATM   16  H   UNL     1      37.991 -11.724  -4.217  1.00  0.00     0.166 HD
HETATM   17  C   UNL     1      39.203 -10.421  -3.025  1.00  0.00     0.091 A 
HETATM   18  C   UNL     1      39.949 -10.668  -1.884  1.00  0.00     0.034 A 
ENDBRANCH   1   5
BRANCH   2  19
HETATM   19  C   UNL     1      42.520 -13.886   4.629  1.00  0.00     0.043 A 
HETATM   20  C   UNL     1      42.721 -15.114   5.287  1.00  0.00    -0.007 A 
HETATM   21  C   UNL     1      43.383 -15.110   6.532  1.00  0.00     0.011 A 
HETATM   22  C   UNL     1      43.885 -13.929   7.080  1.00  0.00     0.001 A 
HETATM   23  C   UNL     1      43.755 -12.735   6.381  1.00  0.00     0.002 A 
HETATM   24  C   UNL     1      43.085 -12.715   5.158  1.00  0.00     0.030 A 
BRANCH  20  25
HETATM   25  C   UNL     1      42.402 -16.461   4.673  1.00  0.00     0.216 C 
BRANCH  25  26
HETATM   26  O   UNL     1      43.380 -16.808   3.689  1.00  0.00    -0.347 OA
BRANCH  26  27
HETATM   27  C   UNL     1      43.505 -18.162   3.518  1.00  0.00     0.069 A 
HETATM   28  C   UNL     1      43.213 -18.817   2.321  1.00  0.00     0.037 A 
HETATM   29  C   UNL     1      43.387 -20.199   2.222  1.00  0.00     0.003 A 
HETATM   30  C   UNL     1      43.864 -20.924   3.315  1.00  0.00     0.000 A 
HETATM   31  C   UNL     1      44.175 -20.266   4.504  1.00  0.00     0.003 A 
HETATM   32  C   UNL     1      44.003 -18.884   4.603  1.00  0.00     0.037 A 
ENDBRANCH  26  27
ENDBRANCH  25  26
ENDBRANCH  20  25
ENDBRANCH   2  19
TORSDOF 5
ENDMDL
MODEL 3
REMARK VINA RESULT:      -9.0      3.598      7.934
REMARK  5 active torsions:
REMARK  status: ('A' for Active; 'I' for Inactive)
REMARK    1  A    between atoms: C_14  and  C_15 
REMARK       I    between atoms: C_15  and  N_16 
REMARK    2  A    between atoms: N_16  and  C_17 
REMARK    3  A    between atoms: C_18  and  C_19 
REMARK    4  A    between atoms: C_19  and  O_20 
REMARK    5  A    between atoms: O_20  and  C_21 
ROOT
HETATM    1  C   UNL     1      42.980 -12.388   4.634  1.00  0.00     0.273 C 
HETATM    2  N   UNL     1      42.078 -13.378   5.006  1.00  0.00    -0.321 N 
HETATM    3  O   UNL     1      43.228 -12.105   3.467  1.00  0.00    -0.266 OA
HETATM    4  H   UNL     1      41.606 -13.185   5.880  1.00  0.00     0.169 HD
ENDROOT
BRANCH   1   5
HETATM    5  C   UNL     1      43.534 -11.646   5.763  1.00  0.00     0.104 C 
HETATM    6  N   UNL     1      42.822 -10.742   6.558  1.00  0.00    -0.345 N 
HETATM    7  C   UNL     1      41.501 -10.243   6.237  1.00  0.00     0.156 C 
HETATM    8  C   UNL     1      43.604 -10.390   7.603  1.00  0.00     0.060 A 
HETATM    9  C   UNL     1      44.891 -10.861   7.425  1.00  0.00     0.012 A 
HETATM   10  C   UNL     1      43.304  -9.665   8.721  1.00  0.00     0.039 A 
HETATM   11  C   UNL     1      45.871 -10.508   8.375  1.00  0.00     0.132 A 
HETATM   12  C   UNL     1      44.842 -11.652   6.252  1.00  0.00     0.050 C 
HETATM   13  N   UNL     1      45.599  -9.748   9.478  1.00  0.00    -0.241 NA
HETATM   14  C   UNL     1      44.315  -9.376   9.606  1.00  0.00     0.139 A 
HETATM   15  N   UNL     1      43.756  -8.657  10.625  1.00  0.00    -0.350 N 
HETATM   16  H   UNL     1      44.273  -8.307  11.418  1.00  0.00     0.166 HD
HETATM   17  C   UNL     1      42.397  -8.531  10.409  1.00  0.00     0.091 A 
HETATM   18  C   UNL     1      42.077  -9.165   9.219  1.00  0.00     0.034 A 
ENDBRANCH   1   5
BRANCH   2  19
HETATM   19  C   UNL     1      41.366 -14.162   4.070  1.00  0.00     0.043 A 
HETATM   20  C   UNL     1      41.645 -15.515   3.798  1.00  0.00    -0.007 A 
HETATM   21  C   UNL     1      40.930 -16.154   2.764  1.00  0.00     0.011 A 
HETATM   22  C   UNL     1      39.926 -15.489   2.061  1.00  0.00     0.001 A 
HETATM   23  C   UNL     1      39.602 -14.179   2.395  1.00  0.00     0.002 A 
HETATM   24  C   UNL     1      40.312 -13.523   3.400  1.00  0.00     0.030 A 
BRANCH  20  25
HETATM   25  C   UNL     1      42.561 -16.374   4.645  1.00  0.00     0.216 C 
BRANCH  25  26
HETATM   26  O   UNL     1      43.679 -16.825   3.876  1.00  0.00    -0.347 OA
BRANCH  26  27
HETATM   27  C   UNL     1      43.777 -18.191   3.833  1.00  0.00     0.069 A 
HETATM   28  C   UNL     1      44.068 -18.977   4.950  1.00  0.00     0.037 A 
HETATM   29  C   UNL     1      44.128 -20.367   4.825  1.00  0.00     0.003 A 
HETATM   30  C   UNL     1      43.886 -20.970   3.591  1.00  0.00     0.000 A 
HETATM   31  C   UNL     1      43.575 -20.185   2.482  1.00  0.00     0.003 A 
HETATM   32  C   UNL     1      43.513 -18.797   2.605  1.00  0.00     0.037 A 
ENDBRANCH  26  27
ENDBRANCH  25  26
ENDBRANCH  20  25
ENDBRANCH   2  19
TORSDOF 5
ENDMDL
MODEL 4
REMARK VINA RESULT:      -8.9      2.311      5.171
REMARK  5 active torsions:
REMARK  status: ('A' for Active; 'I' for Inactive)
REMARK    1  A    between atoms: C_14  and  C_15 
REMARK       I    between atoms: C_15  and  N_16 
REMARK    2  A    between atoms: N_16  and  C_17 
REMARK    3  A    between atoms: C_18  and  C_19 
REMARK    4  A    between atoms: C_19  and  O_20 
REMARK    5  A    between atoms: O_20  and  C_21 
ROOT
HETATM    1  C   UNL     1      41.964 -16.241   2.739  1.00  0.00     0.273 C 
HETATM    2  N   UNL     1      43.228 -16.817   2.742  1.00  0.00    -0.321 N 
HETATM    3  O   UNL     1      40.945 -16.842   3.061  1.00  0.00    -0.266 OA
HETATM    4  H   UNL     1      43.969 -16.163   2.952  1.00  0.00     0.169 HD
ENDROOT
BRANCH   1   5
HETATM    5  C   UNL     1      41.970 -14.818   2.409  1.00  0.00     0.104 C 
HETATM    6  N   UNL     1      41.207 -14.223   1.398  1.00  0.00    -0.345 N 
HETATM    7  C   UNL     1      40.476 -14.962   0.390  1.00  0.00     0.156 C 
HETATM    8  C   UNL     1      41.336 -12.882   1.504  1.00  0.00     0.060 A 
HETATM    9  C   UNL     1      42.324 -12.561   2.415  1.00  0.00     0.012 A 
HETATM   10  C   UNL     1      40.671 -11.880   0.856  1.00  0.00     0.039 A 
HETATM   11  C   UNL     1      42.663 -11.203   2.586  1.00  0.00     0.132 A 
HETATM   12  C   UNL     1      42.728 -13.794   2.981  1.00  0.00     0.050 C 
HETATM   13  N   UNL     1      42.038 -10.190   1.915  1.00  0.00    -0.241 NA
HETATM   14  C   UNL     1      41.053 -10.580   1.089  1.00  0.00     0.139 A 
HETATM   15  N   UNL     1      40.237  -9.786   0.334  1.00  0.00    -0.350 N 
HETATM   16  H   UNL     1      40.297  -8.779   0.309  1.00  0.00     0.166 HD
HETATM   17  C   UNL     1      39.319 -10.572  -0.335  1.00  0.00     0.091 A 
HETATM   18  C   UNL     1      39.560 -11.900  -0.020  1.00  0.00     0.034 A 
ENDBRANCH   1   5
BRANCH   2  19
HETATM   19  C   UNL     1      43.458 -18.163   3.109  1.00  0.00     0.043 A 
HETATM   20  C   UNL     1      43.946 -18.566   4.366  1.00  0.00    -0.007 A 
HETATM   21  C   UNL     1      44.234 -19.931   4.570  1.00  0.00     0.011 A 
HETATM   22  C   UNL     1      43.988 -20.878   3.576  1.00  0.00     0.001 A 
HETATM   23  C   UNL     1      43.427 -20.480   2.368  1.00  0.00     0.002 A 
HETATM   24  C   UNL     1      43.155 -19.131   2.140  1.00  0.00     0.030 A 
BRANCH  20  25
HETATM   25  C   UNL     1      44.042 -17.648   5.567  1.00  0.00     0.216 C 
BRANCH  25  26
HETATM   26  O   UNL     1      42.737 -17.273   6.018  1.00  0.00    -0.347 OA
BRANCH  26  27
HETATM   27  C   UNL     1      42.597 -15.918   6.167  1.00  0.00     0.069 A 
HETATM   28  C   UNL     1      41.361 -15.269   6.177  1.00  0.00     0.037 A 
HETATM   29  C   UNL     1      41.302 -13.885   6.357  1.00  0.00     0.003 A 
HETATM   30  C   UNL     1      42.476 -13.153   6.538  1.00  0.00     0.000 A 
HETATM   31  C   UNL     1      43.708 -13.805   6.549  1.00  0.00     0.003 A 
HETATM   32  C   UNL     1      43.768 -15.188   6.371  1.00  0.00     0.037 A 
ENDBRANCH  26  27
ENDBRANCH  25  26
ENDBRANCH  20  25
ENDBRANCH   2  19
TORSDOF 5
ENDMDL
MODEL 5
REMARK VINA RESULT:      -8.7      2.896      7.415
REMARK  5 active torsions:
REMARK  status: ('A' for Active; 'I' for Inactive)
REMARK    1  A    between atoms: C_14  and  C_15 
REMARK       I    between atoms: C_15  and  N_16 
REMARK    2  A    between atoms: N_16  and  C_17 
REMARK    3  A    between atoms: C_18  and  C_19 
REMARK    4  A    between atoms: C_19  and  O_20 
REMARK    5  A    between atoms: O_20  and  C_21 
ROOT
HETATM    1  C   UNL     1      42.590 -14.722   3.290  1.00  0.00     0.273 C 
HETATM    2  N   UNL     1      41.428 -14.526   4.026  1.00  0.00    -0.321 N 
HETATM    3  O   UNL     1      43.294 -13.806   2.880  1.00  0.00    -0.266 OA
HETATM    4  H   UNL     1      41.242 -15.266   4.690  1.00  0.00     0.169 HD
ENDROOT
BRANCH   1   5
HETATM    5  C   UNL     1      42.953 -16.129   3.131  1.00  0.00     0.104 C 
HETATM    6  N   UNL     1      43.448 -16.951   4.149  1.00  0.00    -0.345 N 
HETATM    7  C   UNL     1      43.884 -16.469   5.443  1.00  0.00     0.156 C 
HETATM    8  C   UNL     1      43.498 -18.218   3.683  1.00  0.00     0.060 A 
HETATM    9  C   UNL     1      43.256 -18.244   2.323  1.00  0.00     0.012 A 
HETATM   10  C   UNL     1      43.758 -19.388   4.339  1.00  0.00     0.039 A 
HETATM   11  C   UNL     1      43.361 -19.476   1.645  1.00  0.00     0.132 A 
HETATM   12  C   UNL     1      42.917 -16.913   1.977  1.00  0.00     0.050 C 
HETATM   13  N   UNL     1      43.661 -20.649   2.278  1.00  0.00    -0.241 NA
HETATM   14  C   UNL     1      43.830 -20.549   3.607  1.00  0.00     0.139 A 
HETATM   15  N   UNL     1      44.090 -21.558   4.491  1.00  0.00    -0.350 N 
HETATM   16  H   UNL     1      44.198 -22.526   4.225  1.00  0.00     0.166 HD
HETATM   17  C   UNL     1      44.139 -21.047   5.773  1.00  0.00     0.091 A 
HETATM   18  C   UNL     1      43.924 -19.680   5.714  1.00  0.00     0.034 A 
ENDBRANCH   1   5
BRANCH   2  19
HETATM   19  C   UNL     1      40.940 -13.243   4.364  1.00  0.00     0.043 A 
HETATM   20  C   UNL     1      40.096 -12.476   3.540  1.00  0.00    -0.007 A 
HETATM   21  C   UNL     1      39.766 -11.167   3.947  1.00  0.00     0.011 A 
HETATM   22  C   UNL     1      40.211 -10.656   5.166  1.00  0.00     0.001 A 
HETATM   23  C   UNL     1      40.975 -11.452   6.011  1.00  0.00     0.002 A 
HETATM   24  C   UNL     1      41.329 -12.742   5.616  1.00  0.00     0.030 A 
BRANCH  20  25
HETATM   25  C   UNL     1      39.396 -13.020   2.312  1.00  0.00     0.216 C 
BRANCH  25  26
HETATM   26  O   UNL     1      39.885 -12.378   1.130  1.00  0.00    -0.347 OA
BRANCH  26  27
HETATM   27  C   UNL     1      39.361 -12.912  -0.018  1.00  0.00     0.069 A 
HETATM   28  C   UNL     1      38.475 -12.227  -0.850  1.00  0.00     0.037 A 
HETATM   29  C   UNL     1      38.004 -12.834  -2.017  1.00  0.00     0.003 A 
HETATM   30  C   UNL     1      38.428 -14.119  -2.356  1.00  0.00     0.000 A 
HETATM   31  C   UNL     1      39.330 -14.794  -1.536  1.00  0.00     0.003 A 
HETATM   32  C   UNL     1      39.802 -14.187  -0.371  1.00  0.00     0.037 A 
ENDBRANCH  26  27
ENDBRANCH  25  26
ENDBRANCH  20  25
ENDBRANCH   2  19
TORSDOF 5
ENDMDL
MODEL 6
REMARK VINA RESULT:      -8.6      2.552      7.389
REMARK  5 active torsions:
REMARK  status: ('A' for Active; 'I' for Inactive)
REMARK    1  A    between atoms: C_14  and  C_15 
REMARK       I    between atoms: C_15  and  N_16 
REMARK    2  A    between atoms: N_16  and  C_17 
REMARK    3  A    between atoms: C_18  and  C_19 
REMARK    4  A    between atoms: C_19  and  O_20 
REMARK    5  A    between atoms: O_20  and  C_21 
ROOT
HETATM    1  C   UNL     1      42.316 -11.467   2.800  1.00  0.00     0.273 C 
HETATM    2  N   UNL     1      41.449 -12.552   2.751  1.00  0.00    -0.321 N 
HETATM    3  O   UNL     1      42.499 -10.706   1.857  1.00  0.00    -0.266 OA
HETATM    4  H   UNL     1      41.020 -12.766   3.642  1.00  0.00     0.169 HD
ENDROOT
BRANCH   1   5
HETATM    5  C   UNL     1      42.917 -11.257   4.114  1.00  0.00     0.104 C 
HETATM    6  N   UNL     1      42.415 -10.401   5.100  1.00  0.00    -0.345 N 
HETATM    7  C   UNL     1      41.360  -9.435   4.877  1.00  0.00     0.156 C 
HETATM    8  C   UNL     1      43.124 -10.600   6.234  1.00  0.00     0.060 A 
HETATM    9  C   UNL     1      44.219 -11.403   5.985  1.00  0.00     0.012 A 
HETATM   10  C   UNL     1      42.914 -10.123   7.497  1.00  0.00     0.039 A 
HETATM   11  C   UNL     1      45.129 -11.642   7.036  1.00  0.00     0.132 A 
HETATM   12  C   UNL     1      44.086 -11.812   4.636  1.00  0.00     0.050 C 
HETATM   13  N   UNL     1      44.958 -11.139   8.296  1.00  0.00    -0.241 NA
HETATM   14  C   UNL     1      43.842 -10.413   8.470  1.00  0.00     0.139 A 
HETATM   15  N   UNL     1      43.399  -9.833   9.625  1.00  0.00    -0.350 N 
HETATM   16  H   UNL     1      43.890  -9.883  10.505  1.00  0.00     0.166 HD
HETATM   17  C   UNL     1      42.182  -9.220   9.395  1.00  0.00     0.091 A 
HETATM   18  C   UNL     1      41.843  -9.393   8.063  1.00  0.00     0.034 A 
ENDBRANCH   1   5
BRANCH   2  19
HETATM   19  C   UNL     1      40.701 -12.888   1.599  1.00  0.00     0.043 A 
HETATM   20  C   UNL     1      40.916 -14.044   0.826  1.00  0.00    -0.007 A 
HETATM   21  C   UNL     1      40.172 -14.209  -0.360  1.00  0.00     0.011 A 
HETATM   22  C   UNL     1      39.200 -13.284  -0.737  1.00  0.00     0.001 A 
HETATM   23  C   UNL     1      38.936 -12.188   0.077  1.00  0.00     0.002 A 
HETATM   24  C   UNL     1      39.676 -11.997   1.244  1.00  0.00     0.030 A 
BRANCH  20  25
HETATM   25  C   UNL     1      41.793 -15.200   1.265  1.00  0.00     0.216 C 
BRANCH  25  26
HETATM   26  O   UNL     1      41.560 -15.512   2.641  1.00  0.00    -0.347 OA
BRANCH  26  27
HETATM   27  C   UNL     1      42.422 -16.462   3.123  1.00  0.00     0.069 A 
HETATM   28  C   UNL     1      42.806 -17.591   2.397  1.00  0.00     0.037 A 
HETATM   29  C   UNL     1      43.707 -18.502   2.952  1.00  0.00     0.003 A 
HETATM   30  C   UNL     1      44.232 -18.279   4.225  1.00  0.00     0.000 A 
HETATM   31  C   UNL     1      43.865 -17.141   4.940  1.00  0.00     0.003 A 
HETATM   32  C   UNL     1      42.965 -16.229   4.386  1.00  0.00     0.037 A 
ENDBRANCH  26  27
ENDBRANCH  25  26
ENDBRANCH  20  25
ENDBRANCH   2  19
TORSDOF 5
ENDMDL
MODEL 7
REMARK VINA RESULT:      -8.5      2.040      4.625
REMARK  5 active torsions:
REMARK  status: ('A' for Active; 'I' for Inactive)
REMARK    1  A    between atoms: C_14  and  C_15 
REMARK       I    between atoms: C_15  and  N_16 
REMARK    2  A    between atoms: N_16  and  C_17 
REMARK    3  A    between atoms: C_18  and  C_19 
REMARK    4  A    between atoms: C_19  and  O_20 
REMARK    5  A    between atoms: O_20  and  C_21 
ROOT
HETATM    1  C   UNL     1      40.995 -15.243   2.554  1.00  0.00     0.273 C 
HETATM    2  N   UNL     1      42.371 -15.428   2.574  1.00  0.00    -0.321 N 
HETATM    3  O   UNL     1      40.198 -16.042   3.034  1.00  0.00    -0.266 OA
HETATM    4  H   UNL     1      42.894 -14.563   2.627  1.00  0.00     0.169 HD
ENDROOT
BRANCH   1   5
HETATM    5  C   UNL     1      40.584 -13.958   1.993  1.00  0.00     0.104 C 
HETATM    6  N   UNL     1      39.956 -13.785   0.756  1.00  0.00    -0.345 N 
HETATM    7  C   UNL     1      39.828 -14.825  -0.243  1.00  0.00     0.156 C 
HETATM    8  C   UNL     1      39.569 -12.494   0.654  1.00  0.00     0.060 A 
HETATM    9  C   UNL     1      40.102 -11.746   1.687  1.00  0.00     0.012 A 
HETATM   10  C   UNL     1      38.789 -11.880  -0.284  1.00  0.00     0.039 A 
HETATM   11  C   UNL     1      39.880 -10.354   1.691  1.00  0.00     0.132 A 
HETATM   12  C   UNL     1      40.751 -12.680   2.530  1.00  0.00     0.050 C 
HETATM   13  N   UNL     1      39.138  -9.716   0.737  1.00  0.00    -0.241 NA
HETATM   14  C   UNL     1      38.611 -10.520  -0.202  1.00  0.00     0.139 A 
HETATM   15  N   UNL     1      37.797 -10.163  -1.239  1.00  0.00    -0.350 N 
HETATM   16  H   UNL     1      37.501  -9.216  -1.424  1.00  0.00     0.166 HD
HETATM   17  C   UNL     1      37.429 -11.292  -1.945  1.00  0.00     0.091 A 
HETATM   18  C   UNL     1      38.031 -12.395  -1.362  1.00  0.00     0.034 A 
ENDBRANCH   1   5
BRANCH   2  19
HETATM   19  C   UNL     1      42.987 -16.566   3.145  1.00  0.00     0.043 A 
HETATM   20  C   UNL     1      43.555 -16.596   4.432  1.00  0.00    -0.007 A 
HETATM   21  C   UNL     1      44.233 -17.762   4.842  1.00  0.00     0.011 A 
HETATM   22  C   UNL     1      44.293 -18.888   4.021  1.00  0.00     0.001 A 
HETATM   23  C   UNL     1      43.657 -18.877   2.786  1.00  0.00     0.002 A 
HETATM   24  C   UNL     1      42.999 -17.726   2.354  1.00  0.00     0.030 A 
BRANCH  20  25
HETATM   25  C   UNL     1      43.356 -15.506   5.466  1.00  0.00     0.216 C 
BRANCH  25  26
HETATM   26  O   UNL     1      41.979 -15.416   5.842  1.00  0.00    -0.347 OA
BRANCH  26  27
HETATM   27  C   UNL     1      41.527 -14.124   5.895  1.00  0.00     0.069 A 
HETATM   28  C   UNL     1      40.182 -13.785   6.049  1.00  0.00     0.037 A 
HETATM   29  C   UNL     1      39.805 -12.442   6.116  1.00  0.00     0.003 A 
HETATM   30  C   UNL     1      40.773 -11.440   6.041  1.00  0.00     0.000 A 
HETATM   31  C   UNL     1      42.118 -11.779   5.909  1.00  0.00     0.003 A 
HETATM   32  C   UNL     1      42.496 -13.122   5.843  1.00  0.00     0.037 A 
ENDBRANCH  26  27
ENDBRANCH  25  26
ENDBRANCH  20  25
ENDBRANCH   2  19
TORSDOF 5
ENDMDL
MODEL 8
REMARK VINA RESULT:      -8.2      2.908      7.361
REMARK  5 active torsions:
REMARK  status: ('A' for Active; 'I' for Inactive)
REMARK    1  A    between atoms: C_14  and  C_15 
REMARK       I    between atoms: C_15  and  N_16 
REMARK    2  A    between atoms: N_16  and  C_17 
REMARK    3  A    between atoms: C_18  and  C_19 
REMARK    4  A    between atoms: C_19  and  O_20 
REMARK    5  A    between atoms: O_20  and  C_21 
ROOT
HETATM    1  C   UNL     1      41.730 -14.104   4.134  1.00  0.00     0.273 C 
HETATM    2  N   UNL     1      40.363 -13.942   4.319  1.00  0.00    -0.321 N 
HETATM    3  O   UNL     1      42.493 -13.178   3.885  1.00  0.00    -0.266 OA
HETATM    4  H   UNL     1      39.962 -14.604   4.970  1.00  0.00     0.169 HD
ENDROOT
BRANCH   1   5
HETATM    5  C   UNL     1      42.194 -15.471   4.362  1.00  0.00     0.104 C 
HETATM    6  N   UNL     1      42.167 -16.497   3.411  1.00  0.00    -0.345 N 
HETATM    7  C   UNL     1      41.471 -16.414   2.145  1.00  0.00     0.156 C 
HETATM    8  C   UNL     1      42.834 -17.559   3.917  1.00  0.00     0.060 A 
HETATM    9  C   UNL     1      43.125 -17.357   5.252  1.00  0.00     0.012 A 
HETATM   10  C   UNL     1      43.212 -18.726   3.317  1.00  0.00     0.039 A 
HETATM   11  C   UNL     1      43.738 -18.404   5.971  1.00  0.00     0.132 A 
HETATM   12  C   UNL     1      42.710 -16.033   5.531  1.00  0.00     0.050 C 
HETATM   13  N   UNL     1      44.085 -19.595   5.398  1.00  0.00    -0.241 NA
HETATM   14  C   UNL     1      43.819 -19.692   4.085  1.00  0.00     0.139 A 
HETATM   15  N   UNL     1      44.097 -20.741   3.255  1.00  0.00    -0.350 N 
HETATM   16  H   UNL     1      44.543 -21.595   3.556  1.00  0.00     0.166 HD
HETATM   17  C   UNL     1      43.711 -20.425   1.967  1.00  0.00     0.091 A 
HETATM   18  C   UNL     1      43.157 -19.155   1.970  1.00  0.00     0.034 A 
ENDBRANCH   1   5
BRANCH   2  19
HETATM   19  C   UNL     1      39.717 -12.688   4.226  1.00  0.00     0.043 A 
HETATM   20  C   UNL     1      39.340 -12.080   3.014  1.00  0.00    -0.007 A 
HETATM   21  C   UNL     1      38.800 -10.779   3.052  1.00  0.00     0.011 A 
HETATM   22  C   UNL     1      38.583 -10.122   4.263  1.00  0.00     0.001 A 
HETATM   23  C   UNL     1      38.881 -10.764   5.460  1.00  0.00     0.002 A 
HETATM   24  C   UNL     1      39.436 -12.044   5.441  1.00  0.00     0.030 A 
BRANCH  20  25
HETATM   25  C   UNL     1      39.340 -12.795   1.678  1.00  0.00     0.216 C 
BRANCH  25  26
HETATM   26  O   UNL     1      39.108 -11.868   0.613  1.00  0.00    -0.347 OA
BRANCH  26  27
HETATM   27  C   UNL     1      39.670 -12.269  -0.571  1.00  0.00     0.069 A 
HETATM   28  C   UNL     1      40.576 -11.491  -1.294  1.00  0.00     0.037 A 
HETATM   29  C   UNL     1      41.121 -11.983  -2.483  1.00  0.00     0.003 A 
HETATM   30  C   UNL     1      40.771 -13.253  -2.940  1.00  0.00     0.000 A 
HETATM   31  C   UNL     1      39.883 -14.038  -2.206  1.00  0.00     0.003 A 
HETATM   32  C   UNL     1      39.339 -13.548  -1.017  1.00  0.00     0.037 A 
ENDBRANCH  26  27
ENDBRANCH  25  26
ENDBRANCH  20  25
ENDBRANCH   2  19
TORSDOF 5
ENDMDL
MODEL 9
REMARK VINA RESULT:      -8.2      3.954      7.199
REMARK  5 active torsions:
REMARK  status: ('A' for Active; 'I' for Inactive)
REMARK    1  A    between atoms: C_14  and  C_15 
REMARK       I    between atoms: C_15  and  N_16 
REMARK    2  A    between atoms: N_16  and  C_17 
REMARK    3  A    between atoms: C_18  and  C_19 
REMARK    4  A    between atoms: C_19  and  O_20 
REMARK    5  A    between atoms: O_20  and  C_21 
ROOT
HETATM    1  C   UNL     1      40.508 -13.063   5.406  1.00  0.00     0.273 C 
HETATM    2  N   UNL     1      40.950 -12.014   4.609  1.00  0.00    -0.321 N 
HETATM    3  O   UNL     1      39.446 -13.047   6.017  1.00  0.00    -0.266 OA
HETATM    4  H   UNL     1      41.510 -12.313   3.822  1.00  0.00     0.169 HD
ENDROOT
BRANCH   1   5
HETATM    5  C   UNL     1      41.382 -14.233   5.371  1.00  0.00     0.104 C 
HETATM    6  N   UNL     1      41.337 -15.241   4.402  1.00  0.00    -0.345 N 
HETATM    7  C   UNL     1      40.275 -15.387   3.430  1.00  0.00     0.156 C 
HETATM    8  C   UNL     1      42.400 -16.055   4.589  1.00  0.00     0.060 A 
HETATM    9  C   UNL     1      43.038 -15.753   5.777  1.00  0.00     0.012 A 
HETATM   10  C   UNL     1      42.874 -17.076   3.814  1.00  0.00     0.039 A 
HETATM   11  C   UNL     1      44.117 -16.565   6.183  1.00  0.00     0.132 A 
HETATM   12  C   UNL     1      42.384 -14.600   6.272  1.00  0.00     0.050 C 
HETATM   13  N   UNL     1      44.578 -17.616   5.442  1.00  0.00    -0.241 NA
HETATM   14  C   UNL     1      43.939 -17.810   4.276  1.00  0.00     0.139 A 
HETATM   15  N   UNL     1      44.215 -18.750   3.324  1.00  0.00    -0.350 N 
HETATM   16  H   UNL     1      44.954 -19.433   3.403  1.00  0.00     0.166 HD
HETATM   17  C   UNL     1      43.361 -18.583   2.251  1.00  0.00     0.091 A 
HETATM   18  C   UNL     1      42.507 -17.527   2.525  1.00  0.00     0.034 A 
ENDBRANCH   1   5
BRANCH   2  19
HETATM   19  C   UNL     1      40.216 -10.818   4.436  1.00  0.00     0.043 A 
HETATM   20  C   UNL     1      40.483  -9.620   5.125  1.00  0.00    -0.007 A 
HETATM   21  C   UNL     1      39.610  -8.528   4.940  1.00  0.00     0.011 A 
HETATM   22  C   UNL     1      38.538  -8.603   4.051  1.00  0.00     0.001 A 
HETATM   23  C   UNL     1      38.334  -9.763   3.312  1.00  0.00     0.002 A 
HETATM   24  C   UNL     1      39.174 -10.860   3.497  1.00  0.00     0.030 A 
BRANCH  20  25
HETATM   25  C   UNL     1      41.736  -9.379   5.942  1.00  0.00     0.216 C 
BRANCH  25  26
HETATM   26  O   UNL     1      42.063 -10.538   6.713  1.00  0.00    -0.347 OA
BRANCH  26  27
HETATM   27  C   UNL     1      43.408 -10.655   6.950  1.00  0.00     0.069 A 
HETATM   28  C   UNL     1      44.268 -11.406   6.148  1.00  0.00     0.037 A 
HETATM   29  C   UNL     1      45.632 -11.456   6.446  1.00  0.00     0.003 A 
HETATM   30  C   UNL     1      46.136 -10.747   7.537  1.00  0.00     0.000 A 
HETATM   31  C   UNL     1      45.279  -9.981   8.325  1.00  0.00     0.003 A 
HETATM   32  C   UNL     1      43.916  -9.929   8.027  1.00  0.00     0.037 A 
ENDBRANCH  26  27
ENDBRANCH  25  26
ENDBRANCH  20  25
ENDBRANCH   2  19
TORSDOF 5
ENDMDL
MODEL 10
REMARK VINA RESULT:      -8.1     15.766     19.370
REMARK  5 active torsions:
REMARK  status: ('A' for Active; 'I' for Inactive)
REMARK    1  A    between atoms: C_14  and  C_15 
REMARK       I    between atoms: C_15  and  N_16 
REMARK    2  A    between atoms: N_16  and  C_17 
REMARK    3  A    between atoms: C_18  and  C_19 
REMARK    4  A    between atoms: C_19  and  O_20 
REMARK    5  A    between atoms: O_20  and  C_21 
ROOT
HETATM    1  C   UNL     1      47.933 -28.936   2.057  1.00  0.00     0.273 C 
HETATM    2  N   UNL     1      47.591 -29.719   0.961  1.00  0.00    -0.321 N 
HETATM    3  O   UNL     1      47.608 -27.761   2.176  1.00  0.00    -0.266 OA
HETATM    4  H   UNL     1      47.464 -30.697   1.188  1.00  0.00     0.169 HD
ENDROOT
BRANCH   1   5
HETATM    5  C   UNL     1      48.636 -29.672   3.105  1.00  0.00     0.104 C 
HETATM    6  N   UNL     1      48.035 -30.554   4.009  1.00  0.00    -0.345 N 
HETATM    7  C   UNL     1      46.604 -30.691   4.182  1.00  0.00     0.156 C 
HETATM    8  C   UNL     1      49.011 -31.177   4.706  1.00  0.00     0.060 A 
HETATM    9  C   UNL     1      50.237 -30.592   4.451  1.00  0.00     0.012 A 
HETATM   10  C   UNL     1      48.938 -32.225   5.579  1.00  0.00     0.039 A 
HETATM   11  C   UNL     1      51.362 -31.053   5.166  1.00  0.00     0.132 A 
HETATM   12  C   UNL     1      49.991 -29.632   3.439  1.00  0.00     0.050 C 
HETATM   13  N   UNL     1      51.300 -32.071   6.074  1.00  0.00    -0.241 NA
HETATM   14  C   UNL     1      50.084 -32.623   6.225  1.00  0.00     0.139 A 
HETATM   15  N   UNL     1      49.743 -33.677   7.025  1.00  0.00    -0.350 N 
HETATM   16  H   UNL     1      50.394 -34.167   7.619  1.00  0.00     0.166 HD
HETATM   17  C   UNL     1      48.404 -33.971   6.853  1.00  0.00     0.091 A 
HETATM   18  C   UNL     1      47.868 -33.078   5.939  1.00  0.00     0.034 A 
ENDBRANCH   1   5
BRANCH   2  19
HETATM   19  C   UNL     1      46.839 -29.227  -0.131  1.00  0.00     0.043 A 
HETATM   20  C   UNL     1      47.361 -29.025  -1.422  1.00  0.00    -0.007 A 
HETATM   21  C   UNL     1      46.534 -28.429  -2.396  1.00  0.00     0.011 A 
HETATM   22  C   UNL     1      45.209 -28.098  -2.114  1.00  0.00     0.001 A 
HETATM   23  C   UNL     1      44.679 -28.379  -0.861  1.00  0.00     0.002 A 
HETATM   24  C   UNL     1      45.487 -28.949   0.122  1.00  0.00     0.030 A 
BRANCH  20  25
HETATM   25  C   UNL     1      48.710 -29.545  -1.877  1.00  0.00     0.216 C 
BRANCH  25  26
HETATM   26  O   UNL     1      49.681 -29.397  -0.837  1.00  0.00    -0.347 OA
BRANCH  26  27
HETATM   27  C   UNL     1      50.634 -30.382  -0.858  1.00  0.00     0.069 A 
HETATM   28  C   UNL     1      50.894 -31.223   0.225  1.00  0.00     0.037 A 
HETATM   29  C   UNL     1      51.868 -32.218   0.116  1.00  0.00     0.003 A 
HETATM   30  C   UNL     1      52.572 -32.379  -1.078  1.00  0.00     0.000 A 
HETATM   31  C   UNL     1      52.296 -31.552  -2.166  1.00  0.00     0.003 A 
HETATM   32  C   UNL     1      51.322 -30.558  -2.058  1.00  0.00     0.037 A 
ENDBRANCH  26  27
ENDBRANCH  25  26
ENDBRANCH  20  25
ENDBRANCH   2  19
TORSDOF 5
ENDMDL
