MODEL 1
REMARK VINA RESULT:      -8.1      0.000      0.000
REMARK  6 active torsions:
REMARK  status: ('A' for Active; 'I' for Inactive)
REMARK    1  A    between atoms: C_5  and  N_6 
REMARK    2  A    between atoms: N_6  and  C_7 
REMARK    3  A    between atoms: C_7  and  C_8 
REMARK    4  A    between atoms: N_10  and  C_12 
REMARK    5  A    between atoms: C_12  and  C_13 
REMARK    6  A    between atoms: C_14  and  O_15 
ROOT
HETATM    1  C   UNL     1      43.029 -14.406   5.321  1.00  0.00     0.031 C 
HETATM    2  C   UNL     1      43.390 -13.678   6.608  1.00  0.00     0.241 C 
HETATM    3  N   UNL     1      42.466 -12.482   6.605  1.00  0.00    -0.067 N 
HETATM    4  H   UNL     1      42.167 -12.300   7.581  1.00  0.00     0.280 HD
HETATM    5  C   UNL     1      41.261 -12.834   5.764  1.00  0.00     0.235 C 
HETATM    6  C   UNL     1      41.510 -14.269   5.310  1.00  0.00     0.035 C 
ENDROOT
BRANCH   1   7
HETATM    7  C   UNL     1      43.513 -15.859   5.261  1.00  0.00     0.127 C 
BRANCH   7   8
HETATM    8  N   UNL     1      43.315 -16.398   3.921  1.00  0.00    -0.376 N 
HETATM    9  H   UNL     1      42.476 -16.044   3.450  1.00  0.00     0.161 HD
BRANCH   8  10
HETATM   10  C   UNL     1      43.442 -17.761   3.636  1.00  0.00     0.101 A 
HETATM   11  N   UNL     1      43.873 -18.663   4.534  1.00  0.00    -0.347 N 
HETATM   12  C   UNL     1      43.998 -19.981   4.271  1.00  0.00     0.007 A 
HETATM   13  H   UNL     1      44.096 -18.346   5.470  1.00  0.00     0.167 HD
HETATM   14  C   UNL     1      44.436 -20.902   5.364  1.00  0.00     0.068 C 
HETATM   15  C   UNL     1      43.704 -20.452   2.992  1.00  0.00     0.025 A 
HETATM   16  C   UNL     1      43.283 -19.558   2.019  1.00  0.00     0.006 A 
HETATM   17  C   UNL     1      43.150 -18.212   2.341  1.00  0.00     0.048 A 
ENDBRANCH   8  10
ENDBRANCH   7   8
ENDBRANCH   1   7
BRANCH   3  18
HETATM   18  C   UNL     1      43.110 -11.174   6.200  1.00  0.00     0.276 C 
BRANCH  18  19
HETATM   19  C   UNL     1      44.051 -10.624   7.235  1.00  0.00     0.002 A 
HETATM   20  C   UNL     1      45.433 -10.580   7.010  1.00  0.00     0.073 A 
HETATM   21  C   UNL     1      46.311 -10.093   7.976  1.00  0.00     0.038 A 
HETATM   22  C   UNL     1      45.807  -9.634   9.194  1.00  0.00     0.022 A 
HETATM   23  C   UNL     1      44.435  -9.674   9.434  1.00  0.00     0.011 A 
HETATM   24 BR   UNL     1      43.748  -9.036  11.075  1.00  0.00    -0.051 Br
HETATM   25  C   UNL     1      43.558 -10.172   8.469  1.00  0.00     0.030 A 
BRANCH  20  26
HETATM   26  O   UNL     1      45.904 -11.008   5.797  1.00  0.00    -0.360 OA
HETATM   27  H   UNL     1      46.874 -10.873   5.792  1.00  0.00     0.217 HD
ENDBRANCH  20  26
ENDBRANCH  18  19
ENDBRANCH   3  18
TORSDOF 6
ENDMDL
MODEL 2
REMARK VINA RESULT:      -8.1      5.338      8.112
REMARK  6 active torsions:
REMARK  status: ('A' for Active; 'I' for Inactive)
REMARK    1  A    between atoms: C_5  and  N_6 
REMARK    2  A    between atoms: N_6  and  C_7 
REMARK    3  A    between atoms: C_7  and  C_8 
REMARK    4  A    between atoms: N_10  and  C_12 
REMARK    5  A    between atoms: C_12  and  C_13 
REMARK    6  A    between atoms: C_14  and  O_15 
ROOT
HETATM    1  C   UNL     1      40.873 -14.573   3.431  1.00  0.00     0.031 C 
HETATM    2  C   UNL     1      41.013 -15.908   4.148  1.00  0.00     0.241 C 
HETATM    3  N   UNL     1      42.008 -15.614   5.246  1.00  0.00    -0.067 N 
HETATM    4  H   UNL     1      41.730 -16.148   6.090  1.00  0.00     0.280 HD
HETATM    5  C   UNL     1      41.942 -14.133   5.542  1.00  0.00     0.235 C 
HETATM    6  C   UNL     1      40.866 -13.597   4.603  1.00  0.00     0.035 C 
ENDROOT
BRANCH   1   7
HETATM    7  C   UNL     1      39.633 -14.465   2.535  1.00  0.00     0.127 C 
BRANCH   7   8
HETATM    8  N   UNL     1      39.867 -15.155   1.273  1.00  0.00    -0.376 N 
HETATM    9  H   UNL     1      40.669 -15.792   1.289  1.00  0.00     0.161 HD
BRANCH   8  10
HETATM   10  C   UNL     1      39.852 -14.490   0.042  1.00  0.00     0.101 A 
HETATM   11  N   UNL     1      39.177 -14.941  -1.029  1.00  0.00    -0.347 N 
HETATM   12  C   UNL     1      39.154 -14.307  -2.220  1.00  0.00     0.007 A 
HETATM   13  H   UNL     1      38.636 -15.792  -0.937  1.00  0.00     0.167 HD
HETATM   14  C   UNL     1      38.325 -14.872  -3.328  1.00  0.00     0.068 C 
HETATM   15  C   UNL     1      39.890 -13.135  -2.384  1.00  0.00     0.025 A 
HETATM   16  C   UNL     1      40.628 -12.641  -1.317  1.00  0.00     0.006 A 
HETATM   17  C   UNL     1      40.607 -13.318  -0.103  1.00  0.00     0.048 A 
ENDBRANCH   8  10
ENDBRANCH   7   8
ENDBRANCH   1   7
BRANCH   3  18
HETATM   18  C   UNL     1      43.416 -16.104   4.986  1.00  0.00     0.276 C 
BRANCH  18  19
HETATM   19  C   UNL     1      43.528 -17.602   4.932  1.00  0.00     0.002 A 
HETATM   20  C   UNL     1      43.520 -18.374   6.101  1.00  0.00     0.073 A 
HETATM   21  C   UNL     1      43.647 -19.761   6.056  1.00  0.00     0.038 A 
HETATM   22  C   UNL     1      43.781 -20.399   4.822  1.00  0.00     0.022 A 
HETATM   23  C   UNL     1      43.794 -19.645   3.650  1.00  0.00     0.011 A 
HETATM   24 BR   UNL     1      43.957 -20.508   1.978  1.00  0.00    -0.051 Br
HETATM   25  C   UNL     1      43.676 -18.255   3.698  1.00  0.00     0.030 A 
BRANCH  20  26
HETATM   26  O   UNL     1      43.357 -17.730   7.298  1.00  0.00    -0.360 OA
HETATM   27  H   UNL     1      43.742 -18.301   7.996  1.00  0.00     0.217 HD
ENDBRANCH  20  26
ENDBRANCH  18  19
ENDBRANCH   3  18
TORSDOF 6
ENDMDL
MODEL 3
REMARK VINA RESULT:      -7.9      5.642      7.576
REMARK  6 active torsions:
REMARK  status: ('A' for Active; 'I' for Inactive)
REMARK    1  A    between atoms: C_5  and  N_6 
REMARK    2  A    between atoms: N_6  and  C_7 
REMARK    3  A    between atoms: C_7  and  C_8 
REMARK    4  A    between atoms: N_10  and  C_12 
REMARK    5  A    between atoms: C_12  and  C_13 
REMARK    6  A    between atoms: C_14  and  O_15 
ROOT
HETATM    1  C   UNL     1      41.956 -15.292   3.761  1.00  0.00     0.031 C 
HETATM    2  C   UNL     1      40.993 -15.876   2.736  1.00  0.00     0.241 C 
HETATM    3  N   UNL     1      41.229 -15.027   1.509  1.00  0.00    -0.067 N 
HETATM    4  H   UNL     1      41.158 -15.636   0.673  1.00  0.00     0.280 HD
HETATM    5  C   UNL     1      42.627 -14.459   1.604  1.00  0.00     0.235 C 
HETATM    6  C   UNL     1      43.189 -15.029   2.903  1.00  0.00     0.035 C 
ENDROOT
BRANCH   1   7
HETATM    7  C   UNL     1      42.228 -16.205   4.962  1.00  0.00     0.127 C 
BRANCH   7   8
HETATM    8  N   UNL     1      43.531 -16.843   4.819  1.00  0.00    -0.376 N 
HETATM    9  H   UNL     1      44.184 -16.327   4.220  1.00  0.00     0.161 HD
BRANCH   8  10
HETATM   10  C   UNL     1      43.670 -18.210   4.556  1.00  0.00     0.101 A 
HETATM   11  N   UNL     1      43.612 -18.729   3.318  1.00  0.00    -0.347 N 
HETATM   12  C   UNL     1      43.747 -20.045   3.053  1.00  0.00     0.007 A 
HETATM   13  H   UNL     1      43.482 -18.101   2.535  1.00  0.00     0.167 HD
HETATM   14  C   UNL     1      43.719 -20.506   1.630  1.00  0.00     0.068 C 
HETATM   15  C   UNL     1      43.923 -20.940   4.106  1.00  0.00     0.025 A 
HETATM   16  C   UNL     1      43.962 -20.459   5.407  1.00  0.00     0.006 A 
HETATM   17  C   UNL     1      43.838 -19.092   5.632  1.00  0.00     0.048 A 
ENDBRANCH   8  10
ENDBRANCH   7   8
ENDBRANCH   1   7
BRANCH   3  18
HETATM   18  C   UNL     1      40.177 -13.971   1.247  1.00  0.00     0.276 C 
BRANCH  18  19
HETATM   19  C   UNL     1      40.004 -13.648  -0.211  1.00  0.00     0.002 A 
HETATM   20  C   UNL     1      39.468 -14.585  -1.103  1.00  0.00     0.073 A 
HETATM   21  C   UNL     1      39.327 -14.298  -2.460  1.00  0.00     0.038 A 
HETATM   22  C   UNL     1      39.723 -13.050  -2.942  1.00  0.00     0.022 A 
HETATM   23  C   UNL     1      40.260 -12.108  -2.068  1.00  0.00     0.011 A 
HETATM   24 BR   UNL     1      40.781 -10.411  -2.716  1.00  0.00    -0.051 Br
HETATM   25  C   UNL     1      40.410 -12.401  -0.711  1.00  0.00     0.030 A 
BRANCH  20  26
HETATM   26  O   UNL     1      39.058 -15.792  -0.603  1.00  0.00    -0.360 OA
HETATM   27  H   UNL     1      39.579 -16.490  -1.051  1.00  0.00     0.217 HD
ENDBRANCH  20  26
ENDBRANCH  18  19
ENDBRANCH   3  18
TORSDOF 6
ENDMDL
MODEL 4
REMARK VINA RESULT:      -7.9      3.684      8.543
REMARK  6 active torsions:
REMARK  status: ('A' for Active; 'I' for Inactive)
REMARK    1  A    between atoms: C_5  and  N_6 
REMARK    2  A    between atoms: N_6  and  C_7 
REMARK    3  A    between atoms: C_7  and  C_8 
REMARK    4  A    between atoms: N_10  and  C_12 
REMARK    5  A    between atoms: C_12  and  C_13 
REMARK    6  A    between atoms: C_14  and  O_15 
ROOT
HETATM    1  C   UNL     1      41.982 -13.505   5.855  1.00  0.00     0.031 C 
HETATM    2  C   UNL     1      42.517 -14.203   4.613  1.00  0.00     0.241 C 
HETATM    3  N   UNL     1      42.390 -15.670   4.952  1.00  0.00    -0.067 N 
HETATM    4  H   UNL     1      42.119 -16.181   4.092  1.00  0.00     0.280 HD
HETATM    5  C   UNL     1      41.297 -15.809   5.988  1.00  0.00     0.235 C 
HETATM    6  C   UNL     1      40.789 -14.388   6.209  1.00  0.00     0.035 C 
ENDROOT
BRANCH   1   7
HETATM    7  C   UNL     1      41.612 -12.033   5.641  1.00  0.00     0.127 C 
BRANCH   7   8
HETATM    8  N   UNL     1      41.972 -11.251   6.817  1.00  0.00    -0.376 N 
HETATM    9  H   UNL     1      41.471 -10.360   6.894  1.00  0.00     0.161 HD
BRANCH   8  10
HETATM   10  C   UNL     1      43.301 -11.048   7.203  1.00  0.00     0.101 A 
HETATM   11  N   UNL     1      43.655 -10.634   8.431  1.00  0.00    -0.347 N 
HETATM   12  C   UNL     1      44.934 -10.437   8.815  1.00  0.00     0.007 A 
HETATM   13  H   UNL     1      42.928 -10.482   9.119  1.00  0.00     0.167 HD
HETATM   14  C   UNL     1      45.215 -10.027  10.225  1.00  0.00     0.068 C 
HETATM   15  C   UNL     1      45.961 -10.634   7.893  1.00  0.00     0.025 A 
HETATM   16  C   UNL     1      45.648 -11.034   6.602  1.00  0.00     0.006 A 
HETATM   17  C   UNL     1      44.318 -11.244   6.257  1.00  0.00     0.048 A 
ENDBRANCH   8  10
ENDBRANCH   7   8
ENDBRANCH   1   7
BRANCH   3  18
HETATM   18  C   UNL     1      43.680 -16.350   5.356  1.00  0.00     0.276 C 
BRANCH  18  19
HETATM   19  C   UNL     1      43.669 -17.836   5.131  1.00  0.00     0.002 A 
HETATM   20  C   UNL     1      43.590 -18.733   6.204  1.00  0.00     0.073 A 
HETATM   21  C   UNL     1      43.604 -20.112   6.002  1.00  0.00     0.038 A 
HETATM   22  C   UNL     1      43.693 -20.614   4.703  1.00  0.00     0.022 A 
HETATM   23  C   UNL     1      43.775 -19.735   3.624  1.00  0.00     0.011 A 
HETATM   24 BR   UNL     1      43.878 -20.412   1.864  1.00  0.00    -0.051 Br
HETATM   25  C   UNL     1      43.771 -18.355   3.831  1.00  0.00     0.030 A 
BRANCH  20  26
HETATM   26  O   UNL     1      43.473 -18.218   7.468  1.00  0.00    -0.360 OA
HETATM   27  H   UNL     1      42.548 -18.358   7.760  1.00  0.00     0.217 HD
ENDBRANCH  20  26
ENDBRANCH  18  19
ENDBRANCH   3  18
TORSDOF 6
ENDMDL
MODEL 5
REMARK VINA RESULT:      -7.9      2.587      4.501
REMARK  6 active torsions:
REMARK  status: ('A' for Active; 'I' for Inactive)
REMARK    1  A    between atoms: C_5  and  N_6 
REMARK    2  A    between atoms: N_6  and  C_7 
REMARK    3  A    between atoms: C_7  and  C_8 
REMARK    4  A    between atoms: N_10  and  C_12 
REMARK    5  A    between atoms: C_12  and  C_13 
REMARK    6  A    between atoms: C_14  and  O_15 
ROOT
HETATM    1  C   UNL     1      44.365 -11.826   7.396  1.00  0.00     0.031 C 
HETATM    2  C   UNL     1      43.754 -10.632   8.116  1.00  0.00     0.241 C 
HETATM    3  N   UNL     1      44.958  -9.886   8.643  1.00  0.00    -0.067 N 
HETATM    4  H   UNL     1      44.767  -8.869   8.574  1.00  0.00     0.280 HD
HETATM    5  C   UNL     1      46.138 -10.240   7.766  1.00  0.00     0.235 C 
HETATM    6  C   UNL     1      45.569 -11.184   6.713  1.00  0.00     0.035 C 
ENDROOT
BRANCH   1   7
HETATM    7  C   UNL     1      43.412 -12.531   6.424  1.00  0.00     0.127 C 
BRANCH   7   8
HETATM    8  N   UNL     1      43.100 -13.868   6.912  1.00  0.00    -0.376 N 
HETATM    9  H   UNL     1      43.492 -14.076   7.837  1.00  0.00     0.161 HD
BRANCH   8  10
HETATM   10  C   UNL     1      43.226 -15.007   6.110  1.00  0.00     0.101 A 
HETATM   11  N   UNL     1      42.415 -15.267   5.070  1.00  0.00    -0.347 N 
HETATM   12  C   UNL     1      42.528 -16.360   4.288  1.00  0.00     0.007 A 
HETATM   13  H   UNL     1      41.690 -14.596   4.842  1.00  0.00     0.167 HD
HETATM   14  C   UNL     1      41.603 -16.520   3.124  1.00  0.00     0.068 C 
HETATM   15  C   UNL     1      43.511 -17.306   4.575  1.00  0.00     0.025 A 
HETATM   16  C   UNL     1      44.357 -17.100   5.656  1.00  0.00     0.006 A 
HETATM   17  C   UNL     1      44.216 -15.949   6.422  1.00  0.00     0.048 A 
ENDBRANCH   8  10
ENDBRANCH   7   8
ENDBRANCH   1   7
BRANCH   3  18
HETATM   18  C   UNL     1      45.238 -10.077  10.118  1.00  0.00     0.276 C 
BRANCH  18  19
HETATM   19  C   UNL     1      44.103  -9.645  11.004  1.00  0.00     0.002 A 
HETATM   20  C   UNL     1      43.431 -10.562  11.822  1.00  0.00     0.073 A 
HETATM   21  C   UNL     1      42.363 -10.170  12.627  1.00  0.00     0.038 A 
HETATM   22  C   UNL     1      41.954  -8.836  12.624  1.00  0.00     0.022 A 
HETATM   23  C   UNL     1      42.610  -7.912  11.813  1.00  0.00     0.011 A 
HETATM   24 BR   UNL     1      42.069  -6.102  11.820  1.00  0.00    -0.051 Br
HETATM   25  C   UNL     1      43.673  -8.309  11.000  1.00  0.00     0.030 A 
BRANCH  20  26
HETATM   26  O   UNL     1      43.868 -11.860  11.832  1.00  0.00    -0.360 OA
HETATM   27  H   UNL     1      44.643 -11.906  12.431  1.00  0.00     0.217 HD
ENDBRANCH  20  26
ENDBRANCH  18  19
ENDBRANCH   3  18
TORSDOF 6
ENDMDL
MODEL 6
REMARK VINA RESULT:      -7.8      1.443      2.072
REMARK  6 active torsions:
REMARK  status: ('A' for Active; 'I' for Inactive)
REMARK    1  A    between atoms: C_5  and  N_6 
REMARK    2  A    between atoms: N_6  and  C_7 
REMARK    3  A    between atoms: C_7  and  C_8 
REMARK    4  A    between atoms: N_10  and  C_12 
REMARK    5  A    between atoms: C_12  and  C_13 
REMARK    6  A    between atoms: C_14  and  O_15 
ROOT
HETATM    1  C   UNL     1      41.500 -13.019   4.542  1.00  0.00     0.031 C 
HETATM    2  C   UNL     1      41.518 -13.204   6.053  1.00  0.00     0.241 C 
HETATM    3  N   UNL     1      42.348 -12.039   6.539  1.00  0.00    -0.067 N 
HETATM    4  H   UNL     1      41.945 -11.702   7.433  1.00  0.00     0.280 HD
HETATM    5  C   UNL     1      42.259 -10.945   5.500  1.00  0.00     0.235 C 
HETATM    6  C   UNL     1      41.336 -11.508   4.423  1.00  0.00     0.035 C 
ENDROOT
BRANCH   1   7
HETATM    7  C   UNL     1      40.404 -13.814   3.823  1.00  0.00     0.127 C 
BRANCH   7   8
HETATM    8  N   UNL     1      40.451 -15.212   4.230  1.00  0.00    -0.376 N 
HETATM    9  H   UNL     1      40.271 -15.361   5.229  1.00  0.00     0.161 HD
BRANCH   8  10
HETATM   10  C   UNL     1      41.476 -16.075   3.830  1.00  0.00     0.101 A 
HETATM   11  N   UNL     1      42.284 -16.709   4.697  1.00  0.00    -0.347 N 
HETATM   12  C   UNL     1      43.275 -17.544   4.322  1.00  0.00     0.007 A 
HETATM   13  H   UNL     1      42.131 -16.573   5.689  1.00  0.00     0.167 HD
HETATM   14  C   UNL     1      44.078 -18.238   5.375  1.00  0.00     0.068 C 
HETATM   15  C   UNL     1      43.517 -17.752   2.965  1.00  0.00     0.025 A 
HETATM   16  C   UNL     1      42.730 -17.098   2.027  1.00  0.00     0.006 A 
HETATM   17  C   UNL     1      41.707 -16.262   2.460  1.00  0.00     0.048 A 
ENDBRANCH   8  10
ENDBRANCH   7   8
ENDBRANCH   1   7
BRANCH   3  18
HETATM   18  C   UNL     1      43.773 -12.379   6.920  1.00  0.00     0.276 C 
BRANCH  18  19
HETATM   19  C   UNL     1      44.478 -11.271   7.650  1.00  0.00     0.002 A 
HETATM   20  C   UNL     1      45.671 -10.723   7.161  1.00  0.00     0.073 A 
HETATM   21  C   UNL     1      46.341  -9.712   7.847  1.00  0.00     0.038 A 
HETATM   22  C   UNL     1      45.813  -9.230   9.046  1.00  0.00     0.022 A 
HETATM   23  C   UNL     1      44.630  -9.767   9.548  1.00  0.00     0.011 A 
HETATM   24 BR   UNL     1      43.905  -9.103  11.161  1.00  0.00    -0.051 Br
HETATM   25  C   UNL     1      43.966 -10.787   8.864  1.00  0.00     0.030 A 
BRANCH  20  26
HETATM   26  O   UNL     1      46.155 -11.190   5.968  1.00  0.00    -0.360 OA
HETATM   27  H   UNL     1      46.929 -10.640   5.727  1.00  0.00     0.217 HD
ENDBRANCH  20  26
ENDBRANCH  18  19
ENDBRANCH   3  18
TORSDOF 6
ENDMDL
MODEL 7
REMARK VINA RESULT:      -7.5      3.696      8.324
REMARK  6 active torsions:
REMARK  status: ('A' for Active; 'I' for Inactive)
REMARK    1  A    between atoms: C_5  and  N_6 
REMARK    2  A    between atoms: N_6  and  C_7 
REMARK    3  A    between atoms: C_7  and  C_8 
REMARK    4  A    between atoms: N_10  and  C_12 
REMARK    5  A    between atoms: C_12  and  C_13 
REMARK    6  A    between atoms: C_14  and  O_15 
ROOT
HETATM    1  C   UNL     1      42.913 -14.127   5.962  1.00  0.00     0.031 C 
HETATM    2  C   UNL     1      41.392 -14.114   5.896  1.00  0.00     0.241 C 
HETATM    3  N   UNL     1      41.008 -15.487   6.394  1.00  0.00    -0.067 N 
HETATM    4  H   UNL     1      40.142 -15.399   6.958  1.00  0.00     0.280 HD
HETATM    5  C   UNL     1      42.132 -15.990   7.271  1.00  0.00     0.235 C 
HETATM    6  C   UNL     1      43.154 -14.857   7.279  1.00  0.00     0.035 C 
ENDROOT
BRANCH   1   7
HETATM    7  C   UNL     1      43.559 -12.737   5.904  1.00  0.00     0.127 C 
BRANCH   7   8
HETATM    8  N   UNL     1      43.079 -11.917   7.010  1.00  0.00    -0.376 N 
HETATM    9  H   UNL     1      42.240 -11.371   6.789  1.00  0.00     0.161 HD
BRANCH   8  10
HETATM   10  C   UNL     1      43.936 -11.125   7.780  1.00  0.00     0.101 A 
HETATM   11  N   UNL     1      43.605 -10.648   8.993  1.00  0.00    -0.347 N 
HETATM   12  C   UNL     1      44.424  -9.885   9.745  1.00  0.00     0.007 A 
HETATM   13  H   UNL     1      42.700 -10.891   9.377  1.00  0.00     0.167 HD
HETATM   14  C   UNL     1      43.971  -9.455  11.104  1.00  0.00     0.068 C 
HETATM   15  C   UNL     1      45.675  -9.528   9.246  1.00  0.00     0.025 A 
HETATM   16  C   UNL     1      46.055  -9.970   7.987  1.00  0.00     0.006 A 
HETATM   17  C   UNL     1      45.186 -10.771   7.255  1.00  0.00     0.048 A 
ENDBRANCH   8  10
ENDBRANCH   7   8
ENDBRANCH   1   7
BRANCH   3  18
HETATM   18  C   UNL     1      40.609 -16.473   5.318  1.00  0.00     0.276 C 
BRANCH  18  19
HETATM   19  C   UNL     1      41.305 -16.242   4.006  1.00  0.00     0.002 A 
HETATM   20  C   UNL     1      42.583 -16.760   3.761  1.00  0.00     0.073 A 
HETATM   21  C   UNL     1      43.242 -16.528   2.554  1.00  0.00     0.038 A 
HETATM   22  C   UNL     1      42.616 -15.767   1.566  1.00  0.00     0.022 A 
HETATM   23  C   UNL     1      41.347 -15.241   1.796  1.00  0.00     0.011 A 
HETATM   24 BR   UNL     1      40.491 -14.226   0.453  1.00  0.00    -0.051 Br
HETATM   25  C   UNL     1      40.693 -15.467   3.009  1.00  0.00     0.030 A 
BRANCH  20  26
HETATM   26  O   UNL     1      43.166 -17.529   4.732  1.00  0.00    -0.360 OA
HETATM   27  H   UNL     1      43.216 -18.447   4.393  1.00  0.00     0.217 HD
ENDBRANCH  20  26
ENDBRANCH  18  19
ENDBRANCH   3  18
TORSDOF 6
ENDMDL
MODEL 8
REMARK VINA RESULT:      -7.5      3.766      8.227
REMARK  6 active torsions:
REMARK  status: ('A' for Active; 'I' for Inactive)
REMARK    1  A    between atoms: C_5  and  N_6 
REMARK    2  A    between atoms: N_6  and  C_7 
REMARK    3  A    between atoms: C_7  and  C_8 
REMARK    4  A    between atoms: N_10  and  C_12 
REMARK    5  A    between atoms: C_12  and  C_13 
REMARK    6  A    between atoms: C_14  and  O_15 
ROOT
HETATM    1  C   UNL     1      42.630 -14.390   6.183  1.00  0.00     0.031 C 
HETATM    2  C   UNL     1      41.385 -13.569   5.880  1.00  0.00     0.241 C 
HETATM    3  N   UNL     1      40.378 -14.608   5.443  1.00  0.00    -0.067 N 
HETATM    4  H   UNL     1      39.446 -14.329   5.802  1.00  0.00     0.280 HD
HETATM    5  C   UNL     1      40.783 -15.928   6.059  1.00  0.00     0.235 C 
HETATM    6  C   UNL     1      42.029 -15.608   6.877  1.00  0.00     0.035 C 
ENDROOT
BRANCH   1   7
HETATM    7  C   UNL     1      43.678 -13.657   7.030  1.00  0.00     0.127 C 
BRANCH   7   8
HETATM    8  N   UNL     1      43.231 -12.299   7.313  1.00  0.00    -0.376 N 
HETATM    9  H   UNL     1      42.754 -11.846   6.527  1.00  0.00     0.161 HD
BRANCH   8  10
HETATM   10  C   UNL     1      44.051 -11.356   7.940  1.00  0.00     0.101 A 
HETATM   11  N   UNL     1      43.734 -10.762   9.103  1.00  0.00    -0.347 N 
HETATM   12  C   UNL     1      44.519  -9.853   9.717  1.00  0.00     0.007 A 
HETATM   13  H   UNL     1      42.869 -11.025   9.560  1.00  0.00     0.167 HD
HETATM   14  C   UNL     1      44.090  -9.296  11.037  1.00  0.00     0.068 C 
HETATM   15  C   UNL     1      45.714  -9.465   9.115  1.00  0.00     0.025 A 
HETATM   16  C   UNL     1      46.076 -10.026   7.899  1.00  0.00     0.006 A 
HETATM   17  C   UNL     1      45.245 -10.974   7.312  1.00  0.00     0.048 A 
ENDBRANCH   8  10
ENDBRANCH   7   8
ENDBRANCH   1   7
BRANCH   3  18
HETATM   18  C   UNL     1      40.152 -14.695   3.950  1.00  0.00     0.276 C 
BRANCH  18  19
HETATM   19  C   UNL     1      41.349 -15.194   3.190  1.00  0.00     0.002 A 
HETATM   20  C   UNL     1      42.198 -14.311   2.511  1.00  0.00     0.073 A 
HETATM   21  C   UNL     1      43.296 -14.771   1.786  1.00  0.00     0.038 A 
HETATM   22  C   UNL     1      43.561 -16.140   1.737  1.00  0.00     0.022 A 
HETATM   23  C   UNL     1      42.725 -17.032   2.405  1.00  0.00     0.011 A 
HETATM   24 BR   UNL     1      43.093 -18.884   2.355  1.00  0.00    -0.051 Br
HETATM   25  C   UNL     1      41.620 -16.570   3.122  1.00  0.00     0.030 A 
BRANCH  20  26
HETATM   26  O   UNL     1      41.936 -12.969   2.597  1.00  0.00    -0.360 OA
HETATM   27  H   UNL     1      42.659 -12.559   3.116  1.00  0.00     0.217 HD
ENDBRANCH  20  26
ENDBRANCH  18  19
ENDBRANCH   3  18
TORSDOF 6
ENDMDL
MODEL 9
REMARK VINA RESULT:      -7.0      3.647      8.374
REMARK  6 active torsions:
REMARK  status: ('A' for Active; 'I' for Inactive)
REMARK    1  A    between atoms: C_5  and  N_6 
REMARK    2  A    between atoms: N_6  and  C_7 
REMARK    3  A    between atoms: C_7  and  C_8 
REMARK    4  A    between atoms: N_10  and  C_12 
REMARK    5  A    between atoms: C_12  and  C_13 
REMARK    6  A    between atoms: C_14  and  O_15 
ROOT
HETATM    1  C   UNL     1      42.664 -12.753   4.971  1.00  0.00     0.031 C 
HETATM    2  C   UNL     1      42.948 -13.900   4.013  1.00  0.00     0.241 C 
HETATM    3  N   UNL     1      41.573 -14.304   3.532  1.00  0.00    -0.067 N 
HETATM    4  H   UNL     1      41.642 -14.567   2.531  1.00  0.00     0.280 HD
HETATM    5  C   UNL     1      40.664 -13.105   3.678  1.00  0.00     0.235 C 
HETATM    6  C   UNL     1      41.563 -12.003   4.229  1.00  0.00     0.035 C 
ENDROOT
BRANCH   1   7
HETATM    7  C   UNL     1      43.885 -11.885   5.295  1.00  0.00     0.127 C 
BRANCH   7   8
HETATM    8  N   UNL     1      44.427 -12.251   6.598  1.00  0.00    -0.376 N 
HETATM    9  H   UNL     1      43.959 -13.053   7.033  1.00  0.00     0.161 HD
BRANCH   8  10
HETATM   10  C   UNL     1      44.698 -11.303   7.590  1.00  0.00     0.101 A 
HETATM   11  N   UNL     1      43.972 -11.187   8.715  1.00  0.00    -0.347 N 
HETATM   12  C   UNL     1      44.225 -10.278   9.678  1.00  0.00     0.007 A 
HETATM   13  H   UNL     1      43.204 -11.831   8.863  1.00  0.00     0.167 HD
HETATM   14  C   UNL     1      43.384 -10.276  10.914  1.00  0.00     0.068 C 
HETATM   15  C   UNL     1      45.271  -9.373   9.506  1.00  0.00     0.025 A 
HETATM   16  C   UNL     1      46.034  -9.430   8.348  1.00  0.00     0.006 A 
HETATM   17  C   UNL     1      45.749 -10.397   7.391  1.00  0.00     0.048 A 
ENDBRANCH   8  10
ENDBRANCH   7   8
ENDBRANCH   1   7
BRANCH   3  18
HETATM   18  C   UNL     1      41.011 -15.555   4.171  1.00  0.00     0.276 C 
BRANCH  18  19
HETATM   19  C   UNL     1      42.038 -16.633   4.384  1.00  0.00     0.002 A 
HETATM   20  C   UNL     1      42.653 -16.814   5.629  1.00  0.00     0.073 A 
HETATM   21  C   UNL     1      43.622 -17.796   5.825  1.00  0.00     0.038 A 
HETATM   22  C   UNL     1      43.987 -18.621   4.761  1.00  0.00     0.022 A 
HETATM   23  C   UNL     1      43.387 -18.452   3.515  1.00  0.00     0.011 A 
HETATM   24 BR   UNL     1      43.867 -19.580   2.078  1.00  0.00    -0.051 Br
HETATM   25  C   UNL     1      42.424 -17.461   3.319  1.00  0.00     0.030 A 
BRANCH  20  26
HETATM   26  O   UNL     1      42.258 -16.012   6.667  1.00  0.00    -0.360 OA
HETATM   27  H   UNL     1      41.546 -16.483   7.150  1.00  0.00     0.217 HD
ENDBRANCH  20  26
ENDBRANCH  18  19
ENDBRANCH   3  18
TORSDOF 6
ENDMDL
MODEL 10
REMARK VINA RESULT:      -7.0      3.367      8.457
REMARK  6 active torsions:
REMARK  status: ('A' for Active; 'I' for Inactive)
REMARK    1  A    between atoms: C_5  and  N_6 
REMARK    2  A    between atoms: N_6  and  C_7 
REMARK    3  A    between atoms: C_7  and  C_8 
REMARK    4  A    between atoms: N_10  and  C_12 
REMARK    5  A    between atoms: C_12  and  C_13 
REMARK    6  A    between atoms: C_14  and  O_15 
ROOT
HETATM    1  C   UNL     1      41.751 -11.412   5.218  1.00  0.00     0.031 C 
HETATM    2  C   UNL     1      42.313 -12.780   5.576  1.00  0.00     0.241 C 
HETATM    3  N   UNL     1      42.857 -13.291   4.262  1.00  0.00    -0.067 N 
HETATM    4  H   UNL     1      43.729 -13.819   4.453  1.00  0.00     0.280 HD
HETATM    5  C   UNL     1      43.171 -12.092   3.397  1.00  0.00     0.235 C 
HETATM    6  C   UNL     1      42.817 -10.886   4.262  1.00  0.00     0.035 C 
ENDROOT
BRANCH   1   7
HETATM    7  C   UNL     1      41.504 -10.497   6.423  1.00  0.00     0.127 C 
BRANCH   7   8
HETATM    8  N   UNL     1      42.713  -9.745   6.736  1.00  0.00    -0.376 N 
HETATM    9  H   UNL     1      43.391  -9.708   5.967  1.00  0.00     0.161 HD
BRANCH   8  10
HETATM   10  C   UNL     1      43.411  -9.915   7.936  1.00  0.00     0.101 A 
HETATM   11  N   UNL     1      42.816  -9.897   9.141  1.00  0.00    -0.347 N 
HETATM   12  C   UNL     1      43.478 -10.062  10.305  1.00  0.00     0.007 A 
HETATM   13  H   UNL     1      41.811  -9.777   9.183  1.00  0.00     0.167 HD
HETATM   14  C   UNL     1      42.705 -10.078  11.585  1.00  0.00     0.068 C 
HETATM   15  C   UNL     1      44.862 -10.227  10.286  1.00  0.00     0.025 A 
HETATM   16  C   UNL     1      45.529 -10.224   9.069  1.00  0.00     0.006 A 
HETATM   17  C   UNL     1      44.803 -10.070   7.894  1.00  0.00     0.048 A 
ENDBRANCH   8  10
ENDBRANCH   7   8
ENDBRANCH   1   7
BRANCH   3  18
HETATM   18  C   UNL     1      41.990 -14.315   3.562  1.00  0.00     0.276 C 
BRANCH  18  19
HETATM   19  C   UNL     1      42.612 -15.682   3.497  1.00  0.00     0.002 A 
HETATM   20  C   UNL     1      43.018 -16.237   2.276  1.00  0.00     0.073 A 
HETATM   21  C   UNL     1      43.573 -17.513   2.208  1.00  0.00     0.038 A 
HETATM   22  C   UNL     1      43.734 -18.256   3.378  1.00  0.00     0.022 A 
HETATM   23  C   UNL     1      43.333 -17.719   4.600  1.00  0.00     0.011 A 
HETATM   24 BR   UNL     1      43.566 -18.715   6.188  1.00  0.00    -0.051 Br
HETATM   25  C   UNL     1      42.767 -16.444   4.665  1.00  0.00     0.030 A 
BRANCH  20  26
HETATM   26  O   UNL     1      42.878 -15.479   1.144  1.00  0.00    -0.360 OA
HETATM   27  H   UNL     1      42.553 -14.595   1.417  1.00  0.00     0.217 HD
ENDBRANCH  20  26
ENDBRANCH  18  19
ENDBRANCH   3  18
TORSDOF 6
ENDMDL
