MODEL 1
REMARK VINA RESULT:      -8.7      0.000      0.000
REMARK  7 active torsions:
REMARK  status: ('A' for Active; 'I' for Inactive)
REMARK       I    between atoms: N_2  and  C_3 
REMARK    1  A    between atoms: N_2  and  C_24 
REMARK    2  A    between atoms: C_3  and  C_4 
REMARK    3  A    between atoms: C_7  and  N_8 
REMARK    4  A    between atoms: C_11  and  N_12 
REMARK       I    between atoms: N_12  and  C_13 
REMARK    5  A    between atoms: C_13  and  C_14 
REMARK    6  A    between atoms: C_24  and  C_25 
REMARK    7  A    between atoms: C_27  and  O_28 
ROOT
HETATM    1  C   UNL     1      41.868 -13.278   3.795  1.00  0.00     0.032 A 
HETATM    2  C   UNL     1      41.789 -13.628   5.149  1.00  0.00     0.019 A 
HETATM    3  C   UNL     1      42.553 -12.954   6.101  1.00  0.00     0.032 A 
HETATM    4  C   UNL     1      43.398 -11.904   5.714  1.00  0.00     0.058 A 
HETATM    5  C   UNL     1      43.525 -11.589   4.353  1.00  0.00     0.032 A 
HETATM    6  C   UNL     1      42.779 -12.296   3.394  1.00  0.00     0.019 A 
ENDROOT
BRANCH   4   7
HETATM    7  N   UNL     1      44.072 -11.162   6.727  1.00  0.00    -0.243 N 
HETATM    8  N   UNL     1      45.405 -11.319   6.918  1.00  0.00    -0.178 NA
HETATM    9  C   UNL     1      45.678 -10.614   8.017  1.00  0.00     0.170 A 
HETATM   10  C   UNL     1      44.536  -9.989   8.550  1.00  0.00     0.071 A 
HETATM   11  C   UNL     1      43.529 -10.302   7.665  1.00  0.00     0.149 A 
BRANCH  10  12
HETATM   12  N   UNL     1      44.363  -9.247   9.707  1.00  0.00    -0.324 N 
HETATM   13  C   UNL     1      43.991  -9.807  10.919  1.00  0.00     0.228 C 
HETATM   14  O   UNL     1      43.857 -11.009  11.130  1.00  0.00    -0.273 OA
HETATM   15  H   UNL     1      44.421  -8.242   9.618  1.00  0.00     0.169 HD
BRANCH  13  16
HETATM   16  C   UNL     1      43.669  -8.767  11.975  1.00  0.00     0.104 C 
HETATM   17  C   UNL     1      42.923  -7.569  11.413  1.00  0.00     0.181 C 
HETATM   18  O   UNL     1      42.164  -7.009  12.496  1.00  0.00    -0.390 OA
HETATM   19  C   UNL     1      42.160  -7.941  13.581  1.00  0.00     0.168 C 
HETATM   20  C   UNL     1      42.715  -9.243  13.047  1.00  0.00     0.042 C 
ENDBRANCH  13  16
ENDBRANCH  10  12
ENDBRANCH   4   7
BRANCH   1  21
HETATM   21  C   UNL     1      40.984 -14.033   2.872  1.00  0.00     0.253 C 
HETATM   22  N   UNL     1      41.514 -14.805   1.835  1.00  0.00    -0.348 N 
HETATM   23  C   UNL     1      40.602 -15.276   0.799  1.00  0.00     0.153 C 
HETATM   24  O   UNL     1      39.773 -13.859   3.010  1.00  0.00    -0.267 OA
BRANCH  22  25
HETATM   25  C   UNL     1      42.901 -15.262   1.721  1.00  0.00     0.164 C 
BRANCH  25  26
HETATM   26  C   UNL     1      43.221 -16.494   2.550  1.00  0.00    -0.038 A 
HETATM   27  C   UNL     1      43.574 -16.431   3.913  1.00  0.00     0.045 A 
HETATM   28  C   UNL     1      43.828 -17.589   4.651  1.00  0.00     0.068 A 
HETATM   29  C   UNL     1      43.768 -18.828   4.015  1.00  0.00     0.037 A 
HETATM   30  C   UNL     1      43.440 -18.914   2.663  1.00  0.00     0.003 A 
HETATM   31  C   UNL     1      43.164 -17.755   1.935  1.00  0.00     0.009 A 
BRANCH  28  32
HETATM   32  O   UNL     1      44.145 -17.634   5.981  1.00  0.00    -0.356 OA
HETATM   33  C   UNL     1      44.532 -16.406   6.588  1.00  0.00     0.210 C 
ENDBRANCH  28  32
ENDBRANCH  25  26
ENDBRANCH  22  25
ENDBRANCH   1  21
TORSDOF 7
ENDMDL
MODEL 2
REMARK VINA RESULT:      -8.6      0.966      1.588
REMARK  7 active torsions:
REMARK  status: ('A' for Active; 'I' for Inactive)
REMARK       I    between atoms: N_2  and  C_3 
REMARK    1  A    between atoms: N_2  and  C_24 
REMARK    2  A    between atoms: C_3  and  C_4 
REMARK    3  A    between atoms: C_7  and  N_8 
REMARK    4  A    between atoms: C_11  and  N_12 
REMARK       I    between atoms: N_12  and  C_13 
REMARK    5  A    between atoms: C_13  and  C_14 
REMARK    6  A    between atoms: C_24  and  C_25 
REMARK    7  A    between atoms: C_27  and  O_28 
ROOT
HETATM    1  C   UNL     1      41.808 -13.022   4.115  1.00  0.00     0.032 A 
HETATM    2  C   UNL     1      41.929 -13.537   5.411  1.00  0.00     0.019 A 
HETATM    3  C   UNL     1      42.679 -12.864   6.375  1.00  0.00     0.032 A 
HETATM    4  C   UNL     1      43.306 -11.650   6.060  1.00  0.00     0.058 A 
HETATM    5  C   UNL     1      43.236 -11.160   4.748  1.00  0.00     0.032 A 
HETATM    6  C   UNL     1      42.509 -11.862   3.772  1.00  0.00     0.019 A 
ENDROOT
BRANCH   4   7
HETATM    7  N   UNL     1      43.963 -10.931   7.101  1.00  0.00    -0.243 N 
HETATM    8  N   UNL     1      45.264 -11.181   7.390  1.00  0.00    -0.178 NA
HETATM    9  C   UNL     1      45.514 -10.468   8.488  1.00  0.00     0.170 A 
HETATM   10  C   UNL     1      44.389  -9.745   8.925  1.00  0.00     0.071 A 
HETATM   11  C   UNL     1      43.424 -10.007   7.978  1.00  0.00     0.149 A 
BRANCH  10  12
HETATM   12  N   UNL     1      44.193  -8.960  10.049  1.00  0.00    -0.324 N 
HETATM   13  C   UNL     1      43.776  -9.470  11.268  1.00  0.00     0.228 C 
HETATM   14  O   UNL     1      43.616 -10.661  11.517  1.00  0.00    -0.273 OA
HETATM   15  H   UNL     1      44.270  -7.959   9.926  1.00  0.00     0.169 HD
BRANCH  13  16
HETATM   16  C   UNL     1      43.440  -8.389  12.276  1.00  0.00     0.104 C 
HETATM   17  C   UNL     1      42.623  -7.257  11.675  1.00  0.00     0.181 C 
HETATM   18  O   UNL     1      41.873  -6.671  12.752  1.00  0.00    -0.390 OA
HETATM   19  C   UNL     1      41.945  -7.541  13.885  1.00  0.00     0.168 C 
HETATM   20  C   UNL     1      42.542  -8.845  13.404  1.00  0.00     0.042 C 
ENDBRANCH  13  16
ENDBRANCH  10  12
ENDBRANCH   4   7
BRANCH   1  21
HETATM   21  C   UNL     1      40.956 -13.799   3.179  1.00  0.00     0.253 C 
HETATM   22  N   UNL     1      41.519 -14.553   2.147  1.00  0.00    -0.348 N 
HETATM   23  C   UNL     1      40.633 -15.046   1.099  1.00  0.00     0.153 C 
HETATM   24  O   UNL     1      39.739 -13.658   3.303  1.00  0.00    -0.267 OA
BRANCH  22  25
HETATM   25  C   UNL     1      42.920 -14.970   2.049  1.00  0.00     0.164 C 
BRANCH  25  26
HETATM   26  C   UNL     1      43.241 -16.254   2.795  1.00  0.00    -0.038 A 
HETATM   27  C   UNL     1      43.224 -17.522   2.180  1.00  0.00     0.045 A 
HETATM   28  C   UNL     1      43.560 -18.677   2.891  1.00  0.00     0.068 A 
HETATM   29  C   UNL     1      43.881 -18.575   4.243  1.00  0.00     0.037 A 
HETATM   30  C   UNL     1      43.886 -17.333   4.877  1.00  0.00     0.003 A 
HETATM   31  C   UNL     1      43.573 -16.179   4.157  1.00  0.00     0.009 A 
BRANCH  28  32
HETATM   32  O   UNL     1      43.604 -19.945   2.378  1.00  0.00    -0.356 OA
HETATM   33  C   UNL     1      43.856 -20.999   3.301  1.00  0.00     0.210 C 
ENDBRANCH  28  32
ENDBRANCH  25  26
ENDBRANCH  22  25
ENDBRANCH   1  21
TORSDOF 7
ENDMDL
MODEL 3
REMARK VINA RESULT:      -8.4      1.714      2.338
REMARK  7 active torsions:
REMARK  status: ('A' for Active; 'I' for Inactive)
REMARK       I    between atoms: N_2  and  C_3 
REMARK    1  A    between atoms: N_2  and  C_24 
REMARK    2  A    between atoms: C_3  and  C_4 
REMARK    3  A    between atoms: C_7  and  N_8 
REMARK    4  A    between atoms: C_11  and  N_12 
REMARK       I    between atoms: N_12  and  C_13 
REMARK    5  A    between atoms: C_13  and  C_14 
REMARK    6  A    between atoms: C_24  and  C_25 
REMARK    7  A    between atoms: C_27  and  O_28 
ROOT
HETATM    1  C   UNL     1      41.675 -12.849   2.324  1.00  0.00     0.032 A 
HETATM    2  C   UNL     1      40.920 -12.110   3.243  1.00  0.00     0.019 A 
HETATM    3  C   UNL     1      41.507 -11.616   4.407  1.00  0.00     0.032 A 
HETATM    4  C   UNL     1      42.868 -11.838   4.662  1.00  0.00     0.058 A 
HETATM    5  C   UNL     1      43.613 -12.626   3.774  1.00  0.00     0.032 A 
HETATM    6  C   UNL     1      43.008 -13.152   2.620  1.00  0.00     0.019 A 
ENDROOT
BRANCH   4   7
HETATM    7  N   UNL     1      43.458 -11.216   5.800  1.00  0.00    -0.243 N 
HETATM    8  N   UNL     1      44.792 -11.322   6.022  1.00  0.00    -0.178 NA
HETATM    9  C   UNL     1      44.983 -10.774   7.223  1.00  0.00     0.170 A 
HETATM   10  C   UNL     1      43.787 -10.302   7.793  1.00  0.00     0.071 A 
HETATM   11  C   UNL     1      42.831 -10.539   6.830  1.00  0.00     0.149 A 
BRANCH  10  12
HETATM   12  N   UNL     1      43.528  -9.752   9.038  1.00  0.00    -0.324 N 
HETATM   13  C   UNL     1      43.792  -8.428   9.352  1.00  0.00     0.228 C 
HETATM   14  O   UNL     1      44.198  -7.582   8.561  1.00  0.00    -0.273 OA
HETATM   15  H   UNL     1      43.222 -10.386   9.763  1.00  0.00     0.169 HD
BRANCH  13  16
HETATM   16  C   UNL     1      43.613  -8.125  10.826  1.00  0.00     0.104 C 
HETATM   17  C   UNL     1      42.360  -7.315  11.114  1.00  0.00     0.181 C 
HETATM   18  O   UNL     1      41.974  -7.615  12.465  1.00  0.00    -0.390 OA
HETATM   19  C   UNL     1      42.714  -8.756  12.909  1.00  0.00     0.168 C 
HETATM   20  C   UNL     1      43.390  -9.346  11.690  1.00  0.00     0.042 C 
ENDBRANCH  13  16
ENDBRANCH  10  12
ENDBRANCH   4   7
BRANCH   1  21
HETATM   21  C   UNL     1      40.962 -13.296   1.100  1.00  0.00     0.253 C 
HETATM   22  N   UNL     1      40.236 -14.489   1.083  1.00  0.00    -0.348 N 
HETATM   23  C   UNL     1      39.812 -15.013  -0.210  1.00  0.00     0.153 C 
HETATM   24  O   UNL     1      41.133 -12.614   0.089  1.00  0.00    -0.267 OA
BRANCH  22  25
HETATM   25  C   UNL     1      39.783 -15.240   2.256  1.00  0.00     0.164 C 
BRANCH  25  26
HETATM   26  C   UNL     1      40.895 -15.951   3.009  1.00  0.00    -0.038 A 
HETATM   27  C   UNL     1      41.821 -16.808   2.380  1.00  0.00     0.045 A 
HETATM   28  C   UNL     1      42.851 -17.416   3.100  1.00  0.00     0.068 A 
HETATM   29  C   UNL     1      42.941 -17.201   4.474  1.00  0.00     0.037 A 
HETATM   30  C   UNL     1      42.025 -16.372   5.121  1.00  0.00     0.003 A 
HETATM   31  C   UNL     1      41.011 -15.747   4.393  1.00  0.00     0.009 A 
BRANCH  28  32
HETATM   32  O   UNL     1      43.814 -18.235   2.578  1.00  0.00    -0.356 OA
HETATM   33  C   UNL     1      43.419 -19.566   2.260  1.00  0.00     0.210 C 
ENDBRANCH  28  32
ENDBRANCH  25  26
ENDBRANCH  22  25
ENDBRANCH   1  21
TORSDOF 7
ENDMDL
MODEL 4
REMARK VINA RESULT:      -8.3      1.660      2.740
REMARK  7 active torsions:
REMARK  status: ('A' for Active; 'I' for Inactive)
REMARK       I    between atoms: N_2  and  C_3 
REMARK    1  A    between atoms: N_2  and  C_24 
REMARK    2  A    between atoms: C_3  and  C_4 
REMARK    3  A    between atoms: C_7  and  N_8 
REMARK    4  A    between atoms: C_11  and  N_12 
REMARK       I    between atoms: N_12  and  C_13 
REMARK    5  A    between atoms: C_13  and  C_14 
REMARK    6  A    between atoms: C_24  and  C_25 
REMARK    7  A    between atoms: C_27  and  O_28 
ROOT
HETATM    1  C   UNL     1      42.753 -11.515   4.510  1.00  0.00     0.032 A 
HETATM    2  C   UNL     1      44.090 -11.589   4.919  1.00  0.00     0.019 A 
HETATM    3  C   UNL     1      44.471 -11.142   6.183  1.00  0.00     0.032 A 
HETATM    4  C   UNL     1      43.513 -10.628   7.069  1.00  0.00     0.058 A 
HETATM    5  C   UNL     1      42.183 -10.498   6.643  1.00  0.00     0.032 A 
HETATM    6  C   UNL     1      41.812 -10.917   5.354  1.00  0.00     0.019 A 
ENDROOT
BRANCH   4   7
HETATM    7  N   UNL     1      43.919 -10.293   8.393  1.00  0.00    -0.243 N 
HETATM    8  N   UNL     1      45.166 -10.603   8.826  1.00  0.00    -0.178 NA
HETATM    9  C   UNL     1      45.162 -10.299  10.124  1.00  0.00     0.170 A 
HETATM   10  C   UNL     1      43.925  -9.786  10.552  1.00  0.00     0.071 A 
HETATM   11  C   UNL     1      43.163  -9.729   9.405  1.00  0.00     0.149 A 
BRANCH  10  12
HETATM   12  N   UNL     1      43.474  -9.430  11.812  1.00  0.00    -0.324 N 
HETATM   13  C   UNL     1      43.074  -8.144  12.141  1.00  0.00     0.228 C 
HETATM   14  O   UNL     1      42.992  -7.208  11.352  1.00  0.00    -0.273 OA
HETATM   15  H   UNL     1      43.539 -10.133  12.535  1.00  0.00     0.169 HD
BRANCH  13  16
HETATM   16  C   UNL     1      42.821  -7.966  13.625  1.00  0.00     0.104 C 
HETATM   17  C   UNL     1      42.113  -6.662  13.949  1.00  0.00     0.181 C 
HETATM   18  O   UNL     1      41.404  -6.872  15.181  1.00  0.00    -0.390 OA
HETATM   19  C   UNL     1      41.387  -8.274  15.466  1.00  0.00     0.168 C 
HETATM   20  C   UNL     1      41.874  -8.983  14.221  1.00  0.00     0.042 C 
ENDBRANCH  13  16
ENDBRANCH  10  12
ENDBRANCH   4   7
BRANCH   1  21
HETATM   21  C   UNL     1      42.450 -12.053   3.160  1.00  0.00     0.253 C 
HETATM   22  N   UNL     1      42.017 -13.370   2.988  1.00  0.00    -0.348 N 
HETATM   23  C   UNL     1      42.021 -13.920   1.637  1.00  0.00     0.153 C 
HETATM   24  O   UNL     1      42.699 -11.313   2.209  1.00  0.00    -0.267 OA
BRANCH  22  25
HETATM   25  C   UNL     1      41.477 -14.244   4.032  1.00  0.00     0.164 C 
BRANCH  25  26
HETATM   26  C   UNL     1      42.510 -15.144   4.688  1.00  0.00    -0.038 A 
HETATM   27  C   UNL     1      42.945 -16.356   4.115  1.00  0.00     0.045 A 
HETATM   28  C   UNL     1      43.924 -17.139   4.731  1.00  0.00     0.068 A 
HETATM   29  C   UNL     1      44.450 -16.732   5.956  1.00  0.00     0.037 A 
HETATM   30  C   UNL     1      44.021 -15.546   6.551  1.00  0.00     0.003 A 
HETATM   31  C   UNL     1      43.061 -14.755   5.919  1.00  0.00     0.009 A 
BRANCH  28  32
HETATM   32  O   UNL     1      44.434 -18.310   4.241  1.00  0.00    -0.356 OA
HETATM   33  C   UNL     1      43.808 -18.844   3.079  1.00  0.00     0.210 C 
ENDBRANCH  28  32
ENDBRANCH  25  26
ENDBRANCH  22  25
ENDBRANCH   1  21
TORSDOF 7
ENDMDL
MODEL 5
REMARK VINA RESULT:      -8.2      4.950      9.980
REMARK  7 active torsions:
REMARK  status: ('A' for Active; 'I' for Inactive)
REMARK       I    between atoms: N_2  and  C_3 
REMARK    1  A    between atoms: N_2  and  C_24 
REMARK    2  A    between atoms: C_3  and  C_4 
REMARK    3  A    between atoms: C_7  and  N_8 
REMARK    4  A    between atoms: C_11  and  N_12 
REMARK       I    between atoms: N_12  and  C_13 
REMARK    5  A    between atoms: C_13  and  C_14 
REMARK    6  A    between atoms: C_24  and  C_25 
REMARK    7  A    between atoms: C_27  and  O_28 
ROOT
HETATM    1  C   UNL     1      40.568 -13.981   3.793  1.00  0.00     0.032 A 
HETATM    2  C   UNL     1      40.902 -12.705   3.323  1.00  0.00     0.019 A 
HETATM    3  C   UNL     1      40.654 -12.351   1.997  1.00  0.00     0.032 A 
HETATM    4  C   UNL     1      40.050 -13.265   1.122  1.00  0.00     0.058 A 
HETATM    5  C   UNL     1      39.769 -14.563   1.573  1.00  0.00     0.032 A 
HETATM    6  C   UNL     1      40.054 -14.926   2.900  1.00  0.00     0.019 A 
ENDROOT
BRANCH   4   7
HETATM    7  N   UNL     1      39.705 -12.829  -0.189  1.00  0.00    -0.243 N 
HETATM    8  N   UNL     1      40.618 -12.188  -0.960  1.00  0.00    -0.178 NA
HETATM    9  C   UNL     1      39.938 -11.789  -2.035  1.00  0.00     0.170 A 
HETATM   10  C   UNL     1      38.583 -12.165  -1.983  1.00  0.00     0.071 A 
HETATM   11  C   UNL     1      38.474 -12.890  -0.817  1.00  0.00     0.149 A 
BRANCH  10  12
HETATM   12  N   UNL     1      37.528 -11.885  -2.836  1.00  0.00    -0.324 N 
HETATM   13  C   UNL     1      36.654 -10.827  -2.640  1.00  0.00     0.228 C 
HETATM   14  O   UNL     1      36.757  -9.981  -1.757  1.00  0.00    -0.273 OA
HETATM   15  H   UNL     1      37.349 -12.552  -3.574  1.00  0.00     0.169 HD
BRANCH  13  16
HETATM   16  C   UNL     1      35.472 -10.856  -3.588  1.00  0.00     0.104 C 
HETATM   17  C   UNL     1      34.992 -12.266  -3.888  1.00  0.00     0.181 C 
HETATM   18  O   UNL     1      33.601 -12.165  -4.236  1.00  0.00    -0.390 OA
HETATM   19  C   UNL     1      33.136 -10.859  -3.883  1.00  0.00     0.168 C 
HETATM   20  C   UNL     1      34.216 -10.219  -3.038  1.00  0.00     0.042 C 
ENDBRANCH  13  16
ENDBRANCH  10  12
ENDBRANCH   4   7
BRANCH   1  21
HETATM   21  C   UNL     1      40.840 -14.240   5.230  1.00  0.00     0.253 C 
HETATM   22  N   UNL     1      42.028 -14.849   5.641  1.00  0.00    -0.348 N 
HETATM   23  C   UNL     1      42.106 -15.338   7.013  1.00  0.00     0.153 C 
HETATM   24  O   UNL     1      39.926 -13.984   6.013  1.00  0.00    -0.267 OA
BRANCH  22  25
HETATM   25  C   UNL     1      43.251 -14.980   4.846  1.00  0.00     0.164 C 
BRANCH  25  26
HETATM   26  C   UNL     1      43.417 -16.333   4.175  1.00  0.00    -0.038 A 
HETATM   27  C   UNL     1      43.868 -17.478   4.861  1.00  0.00     0.045 A 
HETATM   28  C   UNL     1      43.974 -18.714   4.218  1.00  0.00     0.068 A 
HETATM   29  C   UNL     1      43.664 -18.804   2.863  1.00  0.00     0.037 A 
HETATM   30  C   UNL     1      43.234 -17.680   2.159  1.00  0.00     0.003 A 
HETATM   31  C   UNL     1      43.106 -16.453   2.812  1.00  0.00     0.009 A 
BRANCH  28  32
HETATM   32  O   UNL     1      44.369 -19.886   4.803  1.00  0.00    -0.356 OA
HETATM   33  C   UNL     1      43.973 -21.090   4.153  1.00  0.00     0.210 C 
ENDBRANCH  28  32
ENDBRANCH  25  26
ENDBRANCH  22  25
ENDBRANCH   1  21
TORSDOF 7
ENDMDL
MODEL 6
REMARK VINA RESULT:      -8.1      3.940      9.595
REMARK  7 active torsions:
REMARK  status: ('A' for Active; 'I' for Inactive)
REMARK       I    between atoms: N_2  and  C_3 
REMARK    1  A    between atoms: N_2  and  C_24 
REMARK    2  A    between atoms: C_3  and  C_4 
REMARK    3  A    between atoms: C_7  and  N_8 
REMARK    4  A    between atoms: C_11  and  N_12 
REMARK       I    between atoms: N_12  and  C_13 
REMARK    5  A    between atoms: C_13  and  C_14 
REMARK    6  A    between atoms: C_24  and  C_25 
REMARK    7  A    between atoms: C_27  and  O_28 
ROOT
HETATM    1  C   UNL     1      42.349 -16.339   3.291  1.00  0.00     0.032 A 
HETATM    2  C   UNL     1      43.015 -15.789   2.189  1.00  0.00     0.019 A 
HETATM    3  C   UNL     1      42.297 -15.198   1.149  1.00  0.00     0.032 A 
HETATM    4  C   UNL     1      40.898 -15.133   1.205  1.00  0.00     0.058 A 
HETATM    5  C   UNL     1      40.224 -15.734   2.278  1.00  0.00     0.032 A 
HETATM    6  C   UNL     1      40.951 -16.360   3.305  1.00  0.00     0.019 A 
ENDROOT
BRANCH   4   7
HETATM    7  N   UNL     1      40.207 -14.417   0.185  1.00  0.00    -0.243 N 
HETATM    8  N   UNL     1      39.492 -15.084  -0.755  1.00  0.00    -0.178 NA
HETATM    9  C   UNL     1      39.115 -14.148  -1.626  1.00  0.00     0.170 A 
HETATM   10  C   UNL     1      39.571 -12.866  -1.266  1.00  0.00     0.071 A 
HETATM   11  C   UNL     1      40.214 -13.056  -0.063  1.00  0.00     0.149 A 
BRANCH  10  12
HETATM   12  N   UNL     1      39.476 -11.650  -1.923  1.00  0.00    -0.324 N 
HETATM   13  C   UNL     1      40.374 -11.242  -2.897  1.00  0.00     0.228 C 
HETATM   14  O   UNL     1      41.288 -11.927  -3.346  1.00  0.00    -0.273 OA
HETATM   15  H   UNL     1      38.770 -11.007  -1.593  1.00  0.00     0.169 HD
BRANCH  13  16
HETATM   16  C   UNL     1      40.176  -9.798  -3.313  1.00  0.00     0.104 C 
HETATM   17  C   UNL     1      38.987  -9.145  -2.628  1.00  0.00     0.181 C 
HETATM   18  O   UNL     1      39.254  -7.734  -2.591  1.00  0.00    -0.390 OA
HETATM   19  C   UNL     1      40.628  -7.520  -2.928  1.00  0.00     0.168 C 
HETATM   20  C   UNL     1      41.303  -8.874  -2.911  1.00  0.00     0.042 C 
ENDBRANCH  13  16
ENDBRANCH  10  12
ENDBRANCH   4   7
BRANCH   1  21
HETATM   21  C   UNL     1      43.210 -16.909   4.358  1.00  0.00     0.253 C 
HETATM   22  N   UNL     1      43.397 -16.239   5.570  1.00  0.00    -0.348 N 
HETATM   23  C   UNL     1      44.469 -16.696   6.445  1.00  0.00     0.153 C 
HETATM   24  O   UNL     1      43.820 -17.940   4.075  1.00  0.00    -0.267 OA
BRANCH  22  25
HETATM   25  C   UNL     1      42.563 -15.155   6.094  1.00  0.00     0.164 C 
BRANCH  25  26
HETATM   26  C   UNL     1      43.211 -13.782   6.030  1.00  0.00    -0.038 A 
HETATM   27  C   UNL     1      43.880 -13.198   7.124  1.00  0.00     0.045 A 
HETATM   28  C   UNL     1      44.494 -11.949   7.016  1.00  0.00     0.068 A 
HETATM   29  C   UNL     1      44.410 -11.251   5.813  1.00  0.00     0.037 A 
HETATM   30  C   UNL     1      43.737 -11.801   4.722  1.00  0.00     0.003 A 
HETATM   31  C   UNL     1      43.145 -13.060   4.828  1.00  0.00     0.009 A 
BRANCH  28  32
HETATM   32  O   UNL     1      45.192 -11.314   8.007  1.00  0.00    -0.356 OA
HETATM   33  C   UNL     1      44.815  -9.972   8.295  1.00  0.00     0.210 C 
ENDBRANCH  28  32
ENDBRANCH  25  26
ENDBRANCH  22  25
ENDBRANCH   1  21
TORSDOF 7
ENDMDL
MODEL 7
REMARK VINA RESULT:      -7.8      5.055      9.714
REMARK  7 active torsions:
REMARK  status: ('A' for Active; 'I' for Inactive)
REMARK       I    between atoms: N_2  and  C_3 
REMARK    1  A    between atoms: N_2  and  C_24 
REMARK    2  A    between atoms: C_3  and  C_4 
REMARK    3  A    between atoms: C_7  and  N_8 
REMARK    4  A    between atoms: C_11  and  N_12 
REMARK       I    between atoms: N_12  and  C_13 
REMARK    5  A    between atoms: C_13  and  C_14 
REMARK    6  A    between atoms: C_24  and  C_25 
REMARK    7  A    between atoms: C_27  and  O_28 
ROOT
HETATM    1  C   UNL     1      40.780 -14.144   3.599  1.00  0.00     0.032 A 
HETATM    2  C   UNL     1      41.310 -12.934   3.137  1.00  0.00     0.019 A 
HETATM    3  C   UNL     1      41.233 -12.595   1.786  1.00  0.00     0.032 A 
HETATM    4  C   UNL     1      40.605 -13.458   0.876  1.00  0.00     0.058 A 
HETATM    5  C   UNL     1      40.124 -14.698   1.324  1.00  0.00     0.032 A 
HETATM    6  C   UNL     1      40.238 -15.049   2.680  1.00  0.00     0.019 A 
ENDROOT
BRANCH   4   7
HETATM    7  N   UNL     1      40.439 -13.026  -0.471  1.00  0.00    -0.243 N 
HETATM    8  N   UNL     1      40.052 -13.904  -1.430  1.00  0.00    -0.178 NA
HETATM    9  C   UNL     1      40.145 -13.224  -2.573  1.00  0.00     0.170 A 
HETATM   10  C   UNL     1      40.585 -11.903  -2.377  1.00  0.00     0.071 A 
HETATM   11  C   UNL     1      40.703 -11.780  -1.011  1.00  0.00     0.149 A 
BRANCH  10  12
HETATM   12  N   UNL     1      40.891 -10.903  -3.285  1.00  0.00    -0.324 N 
HETATM   13  C   UNL     1      40.042  -9.843  -3.562  1.00  0.00     0.228 C 
HETATM   14  O   UNL     1      38.980  -9.621  -2.989  1.00  0.00    -0.273 OA
HETATM   15  H   UNL     1      41.735 -11.022  -3.829  1.00  0.00     0.169 HD
BRANCH  13  16
HETATM   16  C   UNL     1      40.512  -9.001  -4.733  1.00  0.00     0.104 C 
HETATM   17  C   UNL     1      39.374  -8.280  -5.434  1.00  0.00     0.181 C 
HETATM   18  O   UNL     1      39.941  -7.113  -6.051  1.00  0.00    -0.390 OA
HETATM   19  C   UNL     1      41.260  -6.917  -5.532  1.00  0.00     0.168 C 
HETATM   20  C   UNL     1      41.412  -7.848  -4.349  1.00  0.00     0.042 C 
ENDBRANCH  13  16
ENDBRANCH  10  12
ENDBRANCH   4   7
BRANCH   1  21
HETATM   21  C   UNL     1      40.882 -14.389   5.060  1.00  0.00     0.253 C 
HETATM   22  N   UNL     1      41.993 -15.034   5.607  1.00  0.00    -0.348 N 
HETATM   23  C   UNL     1      41.902 -15.501   6.986  1.00  0.00     0.153 C 
HETATM   24  O   UNL     1      39.899 -14.084   5.735  1.00  0.00    -0.267 OA
BRANCH  22  25
HETATM   25  C   UNL     1      43.290 -15.225   4.953  1.00  0.00     0.164 C 
BRANCH  25  26
HETATM   26  C   UNL     1      43.487 -16.606   4.351  1.00  0.00    -0.038 A 
HETATM   27  C   UNL     1      43.958 -17.706   5.094  1.00  0.00     0.045 A 
HETATM   28  C   UNL     1      44.093 -18.970   4.514  1.00  0.00     0.068 A 
HETATM   29  C   UNL     1      43.792 -19.134   3.163  1.00  0.00     0.037 A 
HETATM   30  C   UNL     1      43.342 -18.055   2.403  1.00  0.00     0.003 A 
HETATM   31  C   UNL     1      43.186 -16.800   2.994  1.00  0.00     0.009 A 
BRANCH  28  32
HETATM   32  O   UNL     1      44.510 -20.103   5.157  1.00  0.00    -0.356 OA
HETATM   33  C   UNL     1      43.850 -21.316   4.808  1.00  0.00     0.210 C 
ENDBRANCH  28  32
ENDBRANCH  25  26
ENDBRANCH  22  25
ENDBRANCH   1  21
TORSDOF 7
ENDMDL
MODEL 8
REMARK VINA RESULT:      -7.7      4.541      8.476
REMARK  7 active torsions:
REMARK  status: ('A' for Active; 'I' for Inactive)
REMARK       I    between atoms: N_2  and  C_3 
REMARK    1  A    between atoms: N_2  and  C_24 
REMARK    2  A    between atoms: C_3  and  C_4 
REMARK    3  A    between atoms: C_7  and  N_8 
REMARK    4  A    between atoms: C_11  and  N_12 
REMARK       I    between atoms: N_12  and  C_13 
REMARK    5  A    between atoms: C_13  and  C_14 
REMARK    6  A    between atoms: C_24  and  C_25 
REMARK    7  A    between atoms: C_27  and  O_28 
ROOT
HETATM    1  C   UNL     1      42.449 -16.377   2.900  1.00  0.00     0.032 A 
HETATM    2  C   UNL     1      43.260 -15.283   2.573  1.00  0.00     0.019 A 
HETATM    3  C   UNL     1      42.730 -14.188   1.891  1.00  0.00     0.032 A 
HETATM    4  C   UNL     1      41.373 -14.162   1.541  1.00  0.00     0.058 A 
HETATM    5  C   UNL     1      40.571 -15.280   1.814  1.00  0.00     0.032 A 
HETATM    6  C   UNL     1      41.119 -16.397   2.469  1.00  0.00     0.019 A 
ENDROOT
BRANCH   4   7
HETATM    7  N   UNL     1      40.842 -12.978   0.953  1.00  0.00    -0.243 N 
HETATM    8  N   UNL     1      39.712 -13.032   0.205  1.00  0.00    -0.178 NA
HETATM    9  C   UNL     1      39.584 -11.809  -0.310  1.00  0.00     0.170 A 
HETATM   10  C   UNL     1      40.619 -10.945   0.095  1.00  0.00     0.071 A 
HETATM   11  C   UNL     1      41.378 -11.703   0.960  1.00  0.00     0.149 A 
BRANCH  10  12
HETATM   12  N   UNL     1      40.909  -9.641  -0.267  1.00  0.00    -0.324 N 
HETATM   13  C   UNL     1      41.287  -9.275  -1.550  1.00  0.00     0.228 C 
HETATM   14  O   UNL     1      41.328 -10.031  -2.516  1.00  0.00    -0.273 OA
HETATM   15  H   UNL     1      40.932  -8.955   0.475  1.00  0.00     0.169 HD
BRANCH  13  16
HETATM   16  C   UNL     1      41.745  -7.833  -1.641  1.00  0.00     0.104 C 
HETATM   17  C   UNL     1      41.362  -7.015  -0.419  1.00  0.00     0.181 C 
HETATM   18  O   UNL     1      42.317  -5.946  -0.320  1.00  0.00    -0.390 OA
HETATM   19  C   UNL     1      43.408  -6.225  -1.202  1.00  0.00     0.168 C 
HETATM   20  C   UNL     1      43.247  -7.656  -1.665  1.00  0.00     0.042 C 
ENDBRANCH  13  16
ENDBRANCH  10  12
ENDBRANCH   4   7
BRANCH   1  21
HETATM   21  C   UNL     1      43.104 -17.473   3.658  1.00  0.00     0.253 C 
HETATM   22  N   UNL     1      43.031 -17.530   5.052  1.00  0.00    -0.348 N 
HETATM   23  C   UNL     1      43.927 -18.448   5.746  1.00  0.00     0.153 C 
HETATM   24  O   UNL     1      43.790 -18.257   3.002  1.00  0.00    -0.267 OA
BRANCH  22  25
HETATM   25  C   UNL     1      42.077 -16.808   5.896  1.00  0.00     0.164 C 
BRANCH  25  26
HETATM   26  C   UNL     1      42.345 -15.316   6.005  1.00  0.00    -0.038 A 
HETATM   27  C   UNL     1      41.385 -14.339   5.677  1.00  0.00     0.045 A 
HETATM   28  C   UNL     1      41.656 -12.977   5.823  1.00  0.00     0.068 A 
HETATM   29  C   UNL     1      42.916 -12.578   6.265  1.00  0.00     0.037 A 
HETATM   30  C   UNL     1      43.889 -13.527   6.578  1.00  0.00     0.003 A 
HETATM   31  C   UNL     1      43.605 -14.888   6.453  1.00  0.00     0.009 A 
BRANCH  28  32
HETATM   32  O   UNL     1      40.783 -11.957   5.563  1.00  0.00    -0.356 OA
HETATM   33  C   UNL     1      39.857 -12.163   4.501  1.00  0.00     0.210 C 
ENDBRANCH  28  32
ENDBRANCH  25  26
ENDBRANCH  22  25
ENDBRANCH   1  21
TORSDOF 7
ENDMDL
MODEL 9
REMARK VINA RESULT:      -7.6      4.334      9.993
REMARK  7 active torsions:
REMARK  status: ('A' for Active; 'I' for Inactive)
REMARK       I    between atoms: N_2  and  C_3 
REMARK    1  A    between atoms: N_2  and  C_24 
REMARK    2  A    between atoms: C_3  and  C_4 
REMARK    3  A    between atoms: C_7  and  N_8 
REMARK    4  A    between atoms: C_11  and  N_12 
REMARK       I    between atoms: N_12  and  C_13 
REMARK    5  A    between atoms: C_13  and  C_14 
REMARK    6  A    between atoms: C_24  and  C_25 
REMARK    7  A    between atoms: C_27  and  O_28 
ROOT
HETATM    1  C   UNL     1      42.413 -16.083   2.802  1.00  0.00     0.032 A 
HETATM    2  C   UNL     1      41.121 -16.289   2.302  1.00  0.00     0.019 A 
HETATM    3  C   UNL     1      40.510 -15.327   1.499  1.00  0.00     0.032 A 
HETATM    4  C   UNL     1      41.191 -14.146   1.168  1.00  0.00     0.058 A 
HETATM    5  C   UNL     1      42.460 -13.909   1.715  1.00  0.00     0.032 A 
HETATM    6  C   UNL     1      43.057 -14.867   2.553  1.00  0.00     0.019 A 
ENDROOT
BRANCH   4   7
HETATM    7  N   UNL     1      40.582 -13.242   0.250  1.00  0.00    -0.243 N 
HETATM    8  N   UNL     1      41.308 -12.241  -0.308  1.00  0.00    -0.178 NA
HETATM    9  C   UNL     1      40.419 -11.507  -0.977  1.00  0.00     0.170 A 
HETATM   10  C   UNL     1      39.112 -12.017  -0.870  1.00  0.00     0.071 A 
HETATM   11  C   UNL     1      39.255 -13.171  -0.131  1.00  0.00     0.149 A 
BRANCH  10  12
HETATM   12  N   UNL     1      37.903 -11.525  -1.332  1.00  0.00    -0.324 N 
HETATM   13  C   UNL     1      37.211 -12.086  -2.394  1.00  0.00     0.228 C 
HETATM   14  O   UNL     1      37.534 -13.113  -2.983  1.00  0.00    -0.273 OA
HETATM   15  H   UNL     1      37.577 -10.659  -0.925  1.00  0.00     0.169 HD
BRANCH  13  16
HETATM   16  C   UNL     1      36.027 -11.247  -2.835  1.00  0.00     0.104 C 
HETATM   17  C   UNL     1      36.441  -9.999  -3.596  1.00  0.00     0.181 C 
HETATM   18  O   UNL     1      35.340  -9.653  -4.453  1.00  0.00    -0.390 OA
HETATM   19  C   UNL     1      34.425 -10.752  -4.487  1.00  0.00     0.168 C 
HETATM   20  C   UNL     1      35.121 -11.927  -3.836  1.00  0.00     0.042 C 
ENDBRANCH  13  16
ENDBRANCH  10  12
ENDBRANCH   4   7
BRANCH   1  21
HETATM   21  C   UNL     1      42.984 -17.186   3.615  1.00  0.00     0.253 C 
HETATM   22  N   UNL     1      42.808 -17.229   4.999  1.00  0.00    -0.348 N 
HETATM   23  C   UNL     1      43.628 -18.161   5.764  1.00  0.00     0.153 C 
HETATM   24  O   UNL     1      43.696 -17.992   3.016  1.00  0.00    -0.267 OA
BRANCH  22  25
HETATM   25  C   UNL     1      41.813 -16.477   5.767  1.00  0.00     0.164 C 
BRANCH  25  26
HETATM   26  C   UNL     1      42.120 -14.995   5.902  1.00  0.00    -0.038 A 
HETATM   27  C   UNL     1      43.379 -14.507   6.307  1.00  0.00     0.045 A 
HETATM   28  C   UNL     1      43.634 -13.136   6.386  1.00  0.00     0.068 A 
HETATM   29  C   UNL     1      42.611 -12.235   6.096  1.00  0.00     0.037 A 
HETATM   30  C   UNL     1      41.352 -12.695   5.712  1.00  0.00     0.003 A 
HETATM   31  C   UNL     1      41.109 -14.066   5.611  1.00  0.00     0.009 A 
BRANCH  28  32
HETATM   32  O   UNL     1      44.827 -12.566   6.736  1.00  0.00    -0.356 OA
HETATM   33  C   UNL     1      44.763 -11.355   7.482  1.00  0.00     0.210 C 
ENDBRANCH  28  32
ENDBRANCH  25  26
ENDBRANCH  22  25
ENDBRANCH   1  21
TORSDOF 7
ENDMDL
MODEL 10
REMARK VINA RESULT:      -7.6      4.655      7.993
REMARK  7 active torsions:
REMARK  status: ('A' for Active; 'I' for Inactive)
REMARK       I    between atoms: N_2  and  C_3 
REMARK    1  A    between atoms: N_2  and  C_24 
REMARK    2  A    between atoms: C_3  and  C_4 
REMARK    3  A    between atoms: C_7  and  N_8 
REMARK    4  A    between atoms: C_11  and  N_12 
REMARK       I    between atoms: N_12  and  C_13 
REMARK    5  A    between atoms: C_13  and  C_14 
REMARK    6  A    between atoms: C_24  and  C_25 
REMARK    7  A    between atoms: C_27  and  O_28 
ROOT
HETATM    1  C   UNL     1      42.510 -13.291   5.011  1.00  0.00     0.032 A 
HETATM    2  C   UNL     1      43.282 -13.330   3.844  1.00  0.00     0.019 A 
HETATM    3  C   UNL     1      42.833 -12.715   2.676  1.00  0.00     0.032 A 
HETATM    4  C   UNL     1      41.607 -12.034   2.663  1.00  0.00     0.058 A 
HETATM    5  C   UNL     1      40.804 -12.042   3.813  1.00  0.00     0.032 A 
HETATM    6  C   UNL     1      41.246 -12.695   4.976  1.00  0.00     0.019 A 
ENDROOT
BRANCH   4   7
HETATM    7  N   UNL     1      41.238 -11.317   1.488  1.00  0.00    -0.243 N 
HETATM    8  N   UNL     1      40.847 -11.985   0.374  1.00  0.00    -0.178 NA
HETATM    9  C   UNL     1      40.727 -11.044  -0.563  1.00  0.00     0.170 A 
HETATM   10  C   UNL     1      41.031  -9.760  -0.077  1.00  0.00     0.071 A 
HETATM   11  C   UNL     1      41.291  -9.954   1.262  1.00  0.00     0.149 A 
BRANCH  10  12
HETATM   12  N   UNL     1      41.113  -8.538  -0.723  1.00  0.00    -0.324 N 
HETATM   13  C   UNL     1      42.297  -8.023  -1.228  1.00  0.00     0.228 C 
HETATM   14  O   UNL     1      43.374  -8.611  -1.238  1.00  0.00    -0.273 OA
HETATM   15  H   UNL     1      40.277  -7.969  -0.732  1.00  0.00     0.169 HD
BRANCH  13  16
HETATM   16  C   UNL     1      42.161  -6.590  -1.703  1.00  0.00     0.104 C 
HETATM   17  C   UNL     1      41.532  -5.681  -0.661  1.00  0.00     0.181 C 
HETATM   18  O   UNL     1      42.005  -4.351  -0.933  1.00  0.00    -0.390 OA
HETATM   19  C   UNL     1      43.091  -4.433  -1.861  1.00  0.00     0.168 C 
HETATM   20  C   UNL     1      43.478  -5.892  -1.960  1.00  0.00     0.042 C 
ENDBRANCH  13  16
ENDBRANCH  10  12
ENDBRANCH   4   7
BRANCH   1  21
HETATM   21  C   UNL     1      43.099 -13.945   6.207  1.00  0.00     0.253 C 
HETATM   22  N   UNL     1      42.508 -15.075   6.777  1.00  0.00    -0.348 N 
HETATM   23  C   UNL     1      42.958 -15.488   8.102  1.00  0.00     0.153 C 
HETATM   24  O   UNL     1      44.066 -13.380   6.718  1.00  0.00    -0.267 OA
BRANCH  22  25
HETATM   25  C   UNL     1      41.521 -15.948   6.138  1.00  0.00     0.164 C 
BRANCH  25  26
HETATM   26  C   UNL     1      42.009 -16.611   4.861  1.00  0.00    -0.038 A 
HETATM   27  C   UNL     1      43.077 -17.530   4.834  1.00  0.00     0.045 A 
HETATM   28  C   UNL     1      43.475 -18.147   3.646  1.00  0.00     0.068 A 
HETATM   29  C   UNL     1      42.826 -17.815   2.458  1.00  0.00     0.037 A 
HETATM   30  C   UNL     1      41.779 -16.894   2.456  1.00  0.00     0.003 A 
HETATM   31  C   UNL     1      41.370 -16.299   3.651  1.00  0.00     0.009 A 
BRANCH  28  32
HETATM   32  O   UNL     1      44.474 -19.072   3.523  1.00  0.00    -0.356 OA
HETATM   33  C   UNL     1      44.132 -20.425   3.805  1.00  0.00     0.210 C 
ENDBRANCH  28  32
ENDBRANCH  25  26
ENDBRANCH  22  25
ENDBRANCH   1  21
TORSDOF 7
ENDMDL
