MODEL 1
REMARK VINA RESULT:      -8.3      0.000      0.000
REMARK  7 active torsions:
REMARK  status: ('A' for Active; 'I' for Inactive)
REMARK    1  A    between atoms: C_2  and  N_3 
REMARK    2  A    between atoms: C_4  and  C_5 
REMARK       I    between atoms: C_5  and  N_6 
REMARK    3  A    between atoms: N_6  and  C_7 
REMARK    4  A    between atoms: C_7  and  C_8 
REMARK    5  A    between atoms: C_19  and  N_20 
REMARK       I    between atoms: N_20  and  C_21 
REMARK    6  A    between atoms: C_21  and  C_22 
REMARK    7  A    between atoms: C_25  and  O_26 
ROOT
HETATM    1  N   UNL     1      42.513  -9.470   6.999  1.00  0.00    -0.342 N 
HETATM    2  C   UNL     1      43.439  -9.375   8.031  1.00  0.00     0.104 A 
HETATM    3  C   UNL     1      44.050 -10.621   8.103  1.00  0.00     0.049 A 
HETATM    4  C   UNL     1      43.509 -11.467   7.102  1.00  0.00    -0.005 A 
HETATM    5  C   UNL     1      42.543 -10.731   6.423  1.00  0.00     0.045 A 
HETATM    6  C   UNL     1      43.770 -12.798   6.709  1.00  0.00     0.043 A 
HETATM    7  C   UNL     1      43.064 -13.366   5.642  1.00  0.00     0.035 A 
HETATM    8  C   UNL     1      42.089 -12.608   4.988  1.00  0.00     0.032 A 
HETATM    9  C   UNL     1      41.814 -11.285   5.359  1.00  0.00     0.033 A 
ENDROOT
BRANCH   7  10
HETATM   10  N   UNL     1      43.275 -14.682   5.175  1.00  0.00    -0.323 N 
HETATM   11  C   UNL     1      42.711 -15.843   5.674  1.00  0.00     0.256 C 
HETATM   12  O   UNL     1      41.964 -15.949   6.641  1.00  0.00    -0.267 OA
HETATM   13  H   UNL     1      43.986 -14.788   4.464  1.00  0.00     0.169 HD
BRANCH  11  14
HETATM   14  C   UNL     1      43.116 -17.085   4.964  1.00  0.00     0.032 A 
HETATM   15  C   UNL     1      42.911 -17.160   3.583  1.00  0.00     0.020 A 
HETATM   16  C   UNL     1      43.296 -18.303   2.882  1.00  0.00     0.038 A 
HETATM   17  C   UNL     1      43.914 -19.367   3.544  1.00  0.00     0.068 A 
HETATM   18  C   UNL     1      44.117 -19.294   4.925  1.00  0.00     0.038 A 
HETATM   19  C   UNL     1      43.723 -18.154   5.636  1.00  0.00     0.020 A 
BRANCH  17  20
HETATM   20  O   UNL     1      44.258 -20.421   2.743  1.00  0.00    -0.356 OA
HETATM   21  C   UNL     1      43.542 -20.541   1.520  1.00  0.00     0.210 C 
ENDBRANCH  17  20
ENDBRANCH  11  14
ENDBRANCH   7  10
BRANCH   2  22
HETATM   22  C   UNL     1      43.701  -8.179   8.818  1.00  0.00     0.268 C 
HETATM   23  N   UNL     1      42.878  -7.999   9.905  1.00  0.00    -0.353 N 
HETATM   24  H   UNL     1      42.039  -8.557   9.988  1.00  0.00     0.162 HD
HETATM   25  O   UNL     1      44.589  -7.371   8.552  1.00  0.00    -0.266 OA
BRANCH  23  26
HETATM   26  C   UNL     1      42.938  -6.802  10.727  1.00  0.00     0.160 C 
BRANCH  26  27
HETATM   27  C   UNL     1      42.419  -7.037  12.158  1.00  0.00     0.073 C 
HETATM   28  C   UNL     1      42.217  -5.681  12.848  1.00  0.00     0.047 C 
HETATM   29  O   UNL     1      41.133  -7.697  12.108  1.00  0.00    -0.379 OA
HETATM   30  C   UNL     1      41.090  -8.708  13.127  1.00  0.00     0.169 C 
HETATM   31  C   UNL     1      42.349  -8.578  13.958  1.00  0.00     0.029 C 
HETATM   32  C   UNL     1      43.320  -7.958  12.983  1.00  0.00     0.041 C 
ENDBRANCH  26  27
ENDBRANCH  23  26
ENDBRANCH   2  22
BRANCH   1  33
HETATM   33  C   UNL     1      41.618  -8.406   6.560  1.00  0.00     0.125 C 
HETATM   34  C   UNL     1      40.278  -8.448   7.275  1.00  0.00     0.027 C 
ENDBRANCH   1  33
TORSDOF 7
ENDMDL
MODEL 2
REMARK VINA RESULT:      -8.2      1.341      2.213
REMARK  7 active torsions:
REMARK  status: ('A' for Active; 'I' for Inactive)
REMARK    1  A    between atoms: C_2  and  N_3 
REMARK    2  A    between atoms: C_4  and  C_5 
REMARK       I    between atoms: C_5  and  N_6 
REMARK    3  A    between atoms: N_6  and  C_7 
REMARK    4  A    between atoms: C_7  and  C_8 
REMARK    5  A    between atoms: C_19  and  N_20 
REMARK       I    between atoms: N_20  and  C_21 
REMARK    6  A    between atoms: C_21  and  C_22 
REMARK    7  A    between atoms: C_25  and  O_26 
ROOT
HETATM    1  N   UNL     1      43.729  -9.281   8.303  1.00  0.00    -0.342 N 
HETATM    2  C   UNL     1      42.423  -8.810   8.255  1.00  0.00     0.104 A 
HETATM    3  C   UNL     1      41.731  -9.701   7.443  1.00  0.00     0.049 A 
HETATM    4  C   UNL     1      42.613 -10.724   7.012  1.00  0.00    -0.005 A 
HETATM    5  C   UNL     1      43.863 -10.442   7.557  1.00  0.00     0.045 A 
HETATM    6  C   UNL     1      42.450 -11.876   6.213  1.00  0.00     0.043 A 
HETATM    7  C   UNL     1      43.536 -12.726   5.976  1.00  0.00     0.035 A 
HETATM    8  C   UNL     1      44.782 -12.410   6.524  1.00  0.00     0.032 A 
HETATM    9  C   UNL     1      44.968 -11.274   7.321  1.00  0.00     0.033 A 
ENDROOT
BRANCH   7  10
HETATM   10  N   UNL     1      43.453 -13.906   5.204  1.00  0.00    -0.323 N 
HETATM   11  C   UNL     1      43.486 -15.209   5.669  1.00  0.00     0.256 C 
HETATM   12  O   UNL     1      43.641 -15.579   6.828  1.00  0.00    -0.267 OA
HETATM   13  H   UNL     1      43.467 -13.778   4.201  1.00  0.00     0.169 HD
BRANCH  11  14
HETATM   14  C   UNL     1      43.366 -16.249   4.613  1.00  0.00     0.032 A 
HETATM   15  C   UNL     1      44.050 -17.456   4.786  1.00  0.00     0.020 A 
HETATM   16  C   UNL     1      43.945 -18.461   3.823  1.00  0.00     0.038 A 
HETATM   17  C   UNL     1      43.136 -18.284   2.698  1.00  0.00     0.068 A 
HETATM   18  C   UNL     1      42.453 -17.077   2.524  1.00  0.00     0.038 A 
HETATM   19  C   UNL     1      42.563 -16.061   3.480  1.00  0.00     0.020 A 
BRANCH  17  20
HETATM   20  O   UNL     1      43.104 -19.348   1.840  1.00  0.00    -0.356 OA
HETATM   21  C   UNL     1      43.657 -20.564   2.326  1.00  0.00     0.210 C 
ENDBRANCH  17  20
ENDBRANCH  11  14
ENDBRANCH   7  10
BRANCH   2  22
HETATM   22  C   UNL     1      41.924  -7.639   8.961  1.00  0.00     0.268 C 
HETATM   23  N   UNL     1      41.588  -7.846  10.280  1.00  0.00    -0.353 N 
HETATM   24  H   UNL     1      41.505  -8.793  10.625  1.00  0.00     0.162 HD
HETATM   25  O   UNL     1      41.802  -6.531   8.442  1.00  0.00    -0.266 OA
BRANCH  23  26
HETATM   26  C   UNL     1      40.974  -6.809  11.090  1.00  0.00     0.160 C 
BRANCH  26  27
HETATM   27  C   UNL     1      41.301  -6.955  12.588  1.00  0.00     0.073 C 
HETATM   28  C   UNL     1      41.201  -5.578  13.261  1.00  0.00     0.047 C 
HETATM   29  O   UNL     1      40.327  -7.819  13.218  1.00  0.00    -0.379 OA
HETATM   30  C   UNL     1      41.005  -8.695  14.132  1.00  0.00     0.169 C 
HETATM   31  C   UNL     1      42.454  -8.261  14.195  1.00  0.00     0.029 C 
HETATM   32  C   UNL     1      42.659  -7.610  12.850  1.00  0.00     0.041 C 
ENDBRANCH  26  27
ENDBRANCH  23  26
ENDBRANCH   2  22
BRANCH   1  33
HETATM   33  C   UNL     1      44.830  -8.659   9.029  1.00  0.00     0.125 C 
HETATM   34  C   UNL     1      45.085  -9.324  10.371  1.00  0.00     0.027 C 
ENDBRANCH   1  33
TORSDOF 7
ENDMDL
MODEL 3
REMARK VINA RESULT:      -7.7      4.184     12.263
REMARK  7 active torsions:
REMARK  status: ('A' for Active; 'I' for Inactive)
REMARK    1  A    between atoms: C_2  and  N_3 
REMARK    2  A    between atoms: C_4  and  C_5 
REMARK       I    between atoms: C_5  and  N_6 
REMARK    3  A    between atoms: N_6  and  C_7 
REMARK    4  A    between atoms: C_7  and  C_8 
REMARK    5  A    between atoms: C_19  and  N_20 
REMARK       I    between atoms: N_20  and  C_21 
REMARK    6  A    between atoms: C_21  and  C_22 
REMARK    7  A    between atoms: C_25  and  O_26 
ROOT
HETATM    1  N   UNL     1      42.220  -8.301  10.530  1.00  0.00    -0.342 N 
HETATM    2  C   UNL     1      41.130  -9.023  10.060  1.00  0.00     0.104 A 
HETATM    3  C   UNL     1      40.441  -9.443  11.191  1.00  0.00     0.049 A 
HETATM    4  C   UNL     1      41.102  -8.959  12.348  1.00  0.00    -0.005 A 
HETATM    5  C   UNL     1      42.219  -8.249  11.915  1.00  0.00     0.045 A 
HETATM    6  C   UNL     1      40.836  -9.056  13.732  1.00  0.00     0.043 A 
HETATM    7  C   UNL     1      41.688  -8.439  14.655  1.00  0.00     0.035 A 
HETATM    8  C   UNL     1      42.810  -7.745  14.192  1.00  0.00     0.032 A 
HETATM    9  C   UNL     1      43.092  -7.634  12.824  1.00  0.00     0.033 A 
ENDROOT
BRANCH   7  10
HETATM   10  N   UNL     1      41.485  -8.473  16.052  1.00  0.00    -0.323 N 
HETATM   11  C   UNL     1      40.739  -7.583  16.807  1.00  0.00     0.256 C 
HETATM   12  O   UNL     1      40.160  -6.578  16.410  1.00  0.00    -0.267 OA
HETATM   13  H   UNL     1      42.020  -9.165  16.558  1.00  0.00     0.169 HD
BRANCH  11  14
HETATM   14  C   UNL     1      40.700  -7.884  18.262  1.00  0.00     0.032 A 
HETATM   15  C   UNL     1      41.896  -7.839  18.985  1.00  0.00     0.020 A 
HETATM   16  C   UNL     1      41.892  -8.098  20.356  1.00  0.00     0.038 A 
HETATM   17  C   UNL     1      40.696  -8.375  21.022  1.00  0.00     0.068 A 
HETATM   18  C   UNL     1      39.500  -8.422  20.300  1.00  0.00     0.038 A 
HETATM   19  C   UNL     1      39.499  -8.174  18.923  1.00  0.00     0.020 A 
BRANCH  17  20
HETATM   20  O   UNL     1      40.824  -8.594  22.366  1.00  0.00    -0.356 OA
HETATM   21  C   UNL     1      39.621  -8.856  23.078  1.00  0.00     0.210 C 
ENDBRANCH  17  20
ENDBRANCH  11  14
ENDBRANCH   7  10
BRANCH   2  22
HETATM   22  C   UNL     1      40.802  -9.234   8.657  1.00  0.00     0.268 C 
HETATM   23  N   UNL     1      41.557 -10.188   8.014  1.00  0.00    -0.353 N 
HETATM   24  H   UNL     1      42.399 -10.532   8.456  1.00  0.00     0.162 HD
HETATM   25  O   UNL     1      39.919  -8.618   8.065  1.00  0.00    -0.266 OA
BRANCH  23  26
HETATM   26  C   UNL     1      41.430 -10.439   6.589  1.00  0.00     0.160 C 
BRANCH  26  27
HETATM   27  C   UNL     1      42.616 -11.239   6.018  1.00  0.00     0.073 C 
HETATM   28  C   UNL     1      42.818 -10.856   4.545  1.00  0.00     0.047 C 
HETATM   29  O   UNL     1      43.826 -10.890   6.729  1.00  0.00    -0.379 OA
HETATM   30  C   UNL     1      44.584 -12.086   6.970  1.00  0.00     0.169 C 
HETATM   31  C   UNL     1      43.895 -13.221   6.244  1.00  0.00     0.029 C 
HETATM   32  C   UNL     1      42.462 -12.751   6.188  1.00  0.00     0.041 C 
ENDBRANCH  26  27
ENDBRANCH  23  26
ENDBRANCH   2  22
BRANCH   1  33
HETATM   33  C   UNL     1      43.243  -7.672   9.703  1.00  0.00     0.125 C 
HETATM   34  C   UNL     1      44.422  -8.593   9.443  1.00  0.00     0.027 C 
ENDBRANCH   1  33
TORSDOF 7
ENDMDL
MODEL 4
REMARK VINA RESULT:      -7.5      3.826      4.909
REMARK  7 active torsions:
REMARK  status: ('A' for Active; 'I' for Inactive)
REMARK    1  A    between atoms: C_2  and  N_3 
REMARK    2  A    between atoms: C_4  and  C_5 
REMARK       I    between atoms: C_5  and  N_6 
REMARK    3  A    between atoms: N_6  and  C_7 
REMARK    4  A    between atoms: C_7  and  C_8 
REMARK    5  A    between atoms: C_19  and  N_20 
REMARK       I    between atoms: N_20  and  C_21 
REMARK    6  A    between atoms: C_21  and  C_22 
REMARK    7  A    between atoms: C_25  and  O_26 
ROOT
HETATM    1  N   UNL     1      44.000 -10.411   7.717  1.00  0.00    -0.342 N 
HETATM    2  C   UNL     1      42.888  -9.848   8.330  1.00  0.00     0.104 A 
HETATM    3  C   UNL     1      41.860  -9.935   7.398  1.00  0.00     0.049 A 
HETATM    4  C   UNL     1      42.345 -10.567   6.225  1.00  0.00    -0.005 A 
HETATM    5  C   UNL     1      43.690 -10.854   6.440  1.00  0.00     0.045 A 
HETATM    6  C   UNL     1      41.746 -10.932   4.999  1.00  0.00     0.043 A 
HETATM    7  C   UNL     1      42.501 -11.579   4.014  1.00  0.00     0.035 A 
HETATM    8  C   UNL     1      43.853 -11.841   4.252  1.00  0.00     0.032 A 
HETATM    9  C   UNL     1      44.468 -11.491   5.461  1.00  0.00     0.033 A 
ENDROOT
BRANCH   7  10
HETATM   10  N   UNL     1      41.976 -11.992   2.770  1.00  0.00    -0.323 N 
HETATM   11  C   UNL     1      41.217 -13.122   2.521  1.00  0.00     0.256 C 
HETATM   12  O   UNL     1      40.903 -13.996   3.322  1.00  0.00    -0.267 OA
HETATM   13  H   UNL     1      42.268 -11.452   1.967  1.00  0.00     0.169 HD
BRANCH  11  14
HETATM   14  C   UNL     1      40.795 -13.287   1.104  1.00  0.00     0.032 A 
HETATM   15  C   UNL     1      41.072 -12.255   0.203  1.00  0.00     0.020 A 
HETATM   16  C   UNL     1      40.706 -12.384  -1.138  1.00  0.00     0.038 A 
HETATM   17  C   UNL     1      40.090 -13.552  -1.596  1.00  0.00     0.068 A 
HETATM   18  C   UNL     1      39.812 -14.583  -0.695  1.00  0.00     0.038 A 
HETATM   19  C   UNL     1      40.166 -14.455   0.654  1.00  0.00     0.020 A 
BRANCH  17  20
HETATM   20  O   UNL     1      39.798 -13.562  -2.932  1.00  0.00    -0.356 OA
HETATM   21  C   UNL     1      38.579 -14.193  -3.304  1.00  0.00     0.210 C 
ENDBRANCH  17  20
ENDBRANCH  11  14
ENDBRANCH   7  10
BRANCH   2  22
HETATM   22  C   UNL     1      42.850  -9.325   9.688  1.00  0.00     0.268 C 
HETATM   23  N   UNL     1      42.115 -10.067  10.584  1.00  0.00    -0.353 N 
HETATM   24  H   UNL     1      41.495 -10.786  10.238  1.00  0.00     0.162 HD
HETATM   25  O   UNL     1      43.425  -8.296  10.036  1.00  0.00    -0.266 OA
BRANCH  23  26
HETATM   26  C   UNL     1      41.889  -9.623  11.948  1.00  0.00     0.160 C 
BRANCH  26  27
HETATM   27  C   UNL     1      40.430  -9.197  12.200  1.00  0.00     0.073 C 
HETATM   28  C   UNL     1      39.604 -10.434  12.579  1.00  0.00     0.047 C 
HETATM   29  O   UNL     1      40.376  -8.279  13.315  1.00  0.00    -0.379 OA
HETATM   30  C   UNL     1      39.453  -7.224  13.004  1.00  0.00     0.169 C 
HETATM   31  C   UNL     1      38.778  -7.575  11.695  1.00  0.00     0.029 C 
HETATM   32  C   UNL     1      39.808  -8.447  11.021  1.00  0.00     0.041 C 
ENDBRANCH  26  27
ENDBRANCH  23  26
ENDBRANCH   2  22
BRANCH   1  33
HETATM   33  C   UNL     1      45.327 -10.531   8.309  1.00  0.00     0.125 C 
HETATM   34  C   UNL     1      46.202  -9.324   8.015  1.00  0.00     0.027 C 
ENDBRANCH   1  33
TORSDOF 7
ENDMDL
MODEL 5
REMARK VINA RESULT:      -7.3      2.886     11.348
REMARK  7 active torsions:
REMARK  status: ('A' for Active; 'I' for Inactive)
REMARK    1  A    between atoms: C_2  and  N_3 
REMARK    2  A    between atoms: C_4  and  C_5 
REMARK       I    between atoms: C_5  and  N_6 
REMARK    3  A    between atoms: N_6  and  C_7 
REMARK    4  A    between atoms: C_7  and  C_8 
REMARK    5  A    between atoms: C_19  and  N_20 
REMARK       I    between atoms: N_20  and  C_21 
REMARK    6  A    between atoms: C_21  and  C_22 
REMARK    7  A    between atoms: C_25  and  O_26 
ROOT
HETATM    1  N   UNL     1      41.158 -11.661   4.319  1.00  0.00    -0.342 N 
HETATM    2  C   UNL     1      40.293 -12.748   4.293  1.00  0.00     0.104 A 
HETATM    3  C   UNL     1      39.469 -12.600   5.402  1.00  0.00     0.049 A 
HETATM    4  C   UNL     1      39.822 -11.412   6.091  1.00  0.00    -0.005 A 
HETATM    5  C   UNL     1      40.886 -10.839   5.401  1.00  0.00     0.045 A 
HETATM    6  C   UNL     1      39.314 -10.768   7.241  1.00  0.00     0.043 A 
HETATM    7  C   UNL     1      39.877  -9.564   7.678  1.00  0.00     0.035 A 
HETATM    8  C   UNL     1      40.954  -9.019   6.973  1.00  0.00     0.032 A 
HETATM    9  C   UNL     1      41.473  -9.638   5.829  1.00  0.00     0.033 A 
ENDROOT
BRANCH   7  10
HETATM   10  N   UNL     1      39.419  -8.848   8.805  1.00  0.00    -0.323 N 
HETATM   11  C   UNL     1      40.050  -8.736  10.033  1.00  0.00     0.256 C 
HETATM   12  O   UNL     1      41.093  -9.277  10.382  1.00  0.00    -0.267 OA
HETATM   13  H   UNL     1      38.490  -8.458   8.732  1.00  0.00     0.169 HD
BRANCH  11  14
HETATM   14  C   UNL     1      39.327  -7.901  11.029  1.00  0.00     0.032 A 
HETATM   15  C   UNL     1      38.692  -6.737  10.585  1.00  0.00     0.020 A 
HETATM   16  C   UNL     1      37.990  -5.939  11.489  1.00  0.00     0.038 A 
HETATM   17  C   UNL     1      37.889  -6.309  12.833  1.00  0.00     0.068 A 
HETATM   18  C   UNL     1      38.525  -7.472  13.277  1.00  0.00     0.038 A 
HETATM   19  C   UNL     1      39.240  -8.270  12.377  1.00  0.00     0.020 A 
BRANCH  17  20
HETATM   20  O   UNL     1      37.160  -5.453  13.612  1.00  0.00    -0.356 OA
HETATM   21  C   UNL     1      37.496  -4.075  13.515  1.00  0.00     0.210 C 
ENDBRANCH  17  20
ENDBRANCH  11  14
ENDBRANCH   7  10
BRANCH   2  22
HETATM   22  C   UNL     1      40.272 -13.782   3.268  1.00  0.00     0.268 C 
HETATM   23  N   UNL     1      40.969 -14.928   3.575  1.00  0.00    -0.353 N 
HETATM   24  H   UNL     1      41.605 -14.924   4.361  1.00  0.00     0.162 HD
HETATM   25  O   UNL     1      39.682 -13.666   2.196  1.00  0.00    -0.266 OA
BRANCH  23  26
HETATM   26  C   UNL     1      41.137 -16.007   2.617  1.00  0.00     0.160 C 
BRANCH  26  27
HETATM   27  C   UNL     1      42.565 -16.585   2.617  1.00  0.00     0.073 C 
HETATM   28  C   UNL     1      43.434 -15.775   1.645  1.00  0.00     0.047 C 
HETATM   29  O   UNL     1      43.145 -16.452   3.935  1.00  0.00    -0.379 OA
HETATM   30  C   UNL     1      43.861 -17.656   4.251  1.00  0.00     0.169 C 
HETATM   31  C   UNL     1      43.862 -18.529   3.014  1.00  0.00     0.029 C 
HETATM   32  C   UNL     1      42.612 -18.081   2.298  1.00  0.00     0.041 C 
ENDBRANCH  26  27
ENDBRANCH  23  26
ENDBRANCH   2  22
BRANCH   1  33
HETATM   33  C   UNL     1      42.218 -11.396   3.354  1.00  0.00     0.125 C 
HETATM   34  C   UNL     1      43.544 -12.010   3.769  1.00  0.00     0.027 C 
ENDBRANCH   1  33
TORSDOF 7
ENDMDL
MODEL 6
REMARK VINA RESULT:      -7.3      2.484     10.861
REMARK  7 active torsions:
REMARK  status: ('A' for Active; 'I' for Inactive)
REMARK    1  A    between atoms: C_2  and  N_3 
REMARK    2  A    between atoms: C_4  and  C_5 
REMARK       I    between atoms: C_5  and  N_6 
REMARK    3  A    between atoms: N_6  and  C_7 
REMARK    4  A    between atoms: C_7  and  C_8 
REMARK    5  A    between atoms: C_19  and  N_20 
REMARK       I    between atoms: N_20  and  C_21 
REMARK    6  A    between atoms: C_21  and  C_22 
REMARK    7  A    between atoms: C_25  and  O_26 
ROOT
HETATM    1  N   UNL     1      41.732 -10.216   5.479  1.00  0.00    -0.342 N 
HETATM    2  C   UNL     1      42.920 -10.922   5.333  1.00  0.00     0.104 A 
HETATM    3  C   UNL     1      43.567 -10.826   6.559  1.00  0.00     0.049 A 
HETATM    4  C   UNL     1      42.764 -10.076   7.455  1.00  0.00    -0.005 A 
HETATM    5  C   UNL     1      41.619  -9.697   6.759  1.00  0.00     0.045 A 
HETATM    6  C   UNL     1      42.910  -9.698   8.808  1.00  0.00     0.043 A 
HETATM    7  C   UNL     1      41.909  -8.952   9.440  1.00  0.00     0.035 A 
HETATM    8  C   UNL     1      40.777  -8.573   8.712  1.00  0.00     0.032 A 
HETATM    9  C   UNL     1      40.609  -8.938   7.370  1.00  0.00     0.033 A 
ENDROOT
BRANCH   7  10
HETATM   10  N   UNL     1      41.969  -8.548  10.792  1.00  0.00    -0.323 N 
HETATM   11  C   UNL     1      42.198  -9.355  11.892  1.00  0.00     0.256 C 
HETATM   12  O   UNL     1      42.343 -10.573  11.902  1.00  0.00    -0.267 OA
HETATM   13  H   UNL     1      41.724  -7.585  10.975  1.00  0.00     0.169 HD
BRANCH  11  14
HETATM   14  C   UNL     1      42.216  -8.639  13.195  1.00  0.00     0.032 A 
HETATM   15  C   UNL     1      43.161  -7.626  13.385  1.00  0.00     0.020 A 
HETATM   16  C   UNL     1      43.194  -6.921  14.589  1.00  0.00     0.038 A 
HETATM   17  C   UNL     1      42.270  -7.198  15.600  1.00  0.00     0.068 A 
HETATM   18  C   UNL     1      41.327  -8.212  15.411  1.00  0.00     0.038 A 
HETATM   19  C   UNL     1      41.295  -8.931  14.210  1.00  0.00     0.020 A 
BRANCH  17  20
HETATM   20  O   UNL     1      42.396  -6.427  16.722  1.00  0.00    -0.356 OA
HETATM   21  C   UNL     1      41.242  -5.697  17.117  1.00  0.00     0.210 C 
ENDBRANCH  17  20
ENDBRANCH  11  14
ENDBRANCH   7  10
BRANCH   2  22
HETATM   22  C   UNL     1      43.334 -11.633   4.132  1.00  0.00     0.268 C 
HETATM   23  N   UNL     1      42.551 -12.711   3.787  1.00  0.00    -0.353 N 
HETATM   24  H   UNL     1      41.886 -13.073   4.457  1.00  0.00     0.162 HD
HETATM   25  O   UNL     1      44.310 -11.315   3.456  1.00  0.00    -0.266 OA
BRANCH  23  26
HETATM   26  C   UNL     1      42.893 -13.588   2.681  1.00  0.00     0.160 C 
BRANCH  26  27
HETATM   27  C   UNL     1      42.435 -15.041   2.912  1.00  0.00     0.073 C 
HETATM   28  C   UNL     1      40.914 -15.061   3.121  1.00  0.00     0.047 C 
HETATM   29  O   UNL     1      42.724 -15.835   1.738  1.00  0.00    -0.379 OA
HETATM   30  C   UNL     1      43.232 -17.112   2.155  1.00  0.00     0.169 C 
HETATM   31  C   UNL     1      43.115 -17.184   3.663  1.00  0.00     0.029 C 
HETATM   32  C   UNL     1      43.169 -15.730   4.064  1.00  0.00     0.041 C 
ENDBRANCH  26  27
ENDBRANCH  23  26
ENDBRANCH   2  22
BRANCH   1  33
HETATM   33  C   UNL     1      40.723 -10.028   4.443  1.00  0.00     0.125 C 
HETATM   34  C   UNL     1      40.949  -8.757   3.642  1.00  0.00     0.027 C 
ENDBRANCH   1  33
TORSDOF 7
ENDMDL
MODEL 7
REMARK VINA RESULT:      -7.3     19.358     22.026
REMARK  7 active torsions:
REMARK  status: ('A' for Active; 'I' for Inactive)
REMARK    1  A    between atoms: C_2  and  N_3 
REMARK    2  A    between atoms: C_4  and  C_5 
REMARK       I    between atoms: C_5  and  N_6 
REMARK    3  A    between atoms: N_6  and  C_7 
REMARK    4  A    between atoms: C_7  and  C_8 
REMARK    5  A    between atoms: C_19  and  N_20 
REMARK       I    between atoms: N_20  and  C_21 
REMARK    6  A    between atoms: C_21  and  C_22 
REMARK    7  A    between atoms: C_25  and  O_26 
ROOT
HETATM    1  N   UNL     1      48.280 -30.656   1.647  1.00  0.00    -0.342 N 
HETATM    2  C   UNL     1      49.045 -30.224   0.570  1.00  0.00     0.104 A 
HETATM    3  C   UNL     1      50.338 -30.082   1.060  1.00  0.00     0.049 A 
HETATM    4  C   UNL     1      50.362 -30.446   2.430  1.00  0.00    -0.005 A 
HETATM    5  C   UNL     1      49.062 -30.798   2.783  1.00  0.00     0.045 A 
HETATM    6  C   UNL     1      51.386 -30.517   3.400  1.00  0.00     0.043 A 
HETATM    7  C   UNL     1      51.094 -30.941   4.701  1.00  0.00     0.035 A 
HETATM    8  C   UNL     1      49.777 -31.275   5.030  1.00  0.00     0.032 A 
HETATM    9  C   UNL     1      48.744 -31.214   4.085  1.00  0.00     0.033 A 
ENDROOT
BRANCH   7  10
HETATM   10  N   UNL     1      52.060 -31.057   5.723  1.00  0.00    -0.323 N 
HETATM   11  C   UNL     1      52.755 -32.198   6.087  1.00  0.00     0.256 C 
HETATM   12  O   UNL     1      52.624 -33.325   5.623  1.00  0.00    -0.267 OA
HETATM   13  H   UNL     1      52.184 -30.241   6.307  1.00  0.00     0.169 HD
BRANCH  11  14
HETATM   14  C   UNL     1      53.723 -32.007   7.199  1.00  0.00     0.032 A 
HETATM   15  C   UNL     1      55.087 -32.159   6.928  1.00  0.00     0.020 A 
HETATM   16  C   UNL     1      56.024 -31.970   7.944  1.00  0.00     0.038 A 
HETATM   17  C   UNL     1      55.615 -31.599   9.228  1.00  0.00     0.068 A 
HETATM   18  C   UNL     1      54.252 -31.449   9.499  1.00  0.00     0.038 A 
HETATM   19  C   UNL     1      53.306 -31.649   8.488  1.00  0.00     0.020 A 
BRANCH  17  20
HETATM   20  O   UNL     1      56.630 -31.428  10.128  1.00  0.00    -0.356 OA
HETATM   21  C   UNL     1      57.923 -31.841   9.704  1.00  0.00     0.210 C 
ENDBRANCH  17  20
ENDBRANCH  11  14
ENDBRANCH   7  10
BRANCH   2  22
HETATM   22  C   UNL     1      48.551 -30.016  -0.783  1.00  0.00     0.268 C 
HETATM   23  N   UNL     1      47.937 -28.805  -1.005  1.00  0.00    -0.353 N 
HETATM   24  H   UNL     1      47.681 -28.228  -0.215  1.00  0.00     0.162 HD
HETATM   25  O   UNL     1      48.660 -30.847  -1.683  1.00  0.00    -0.266 OA
BRANCH  23  26
HETATM   26  C   UNL     1      47.295 -28.487  -2.269  1.00  0.00     0.160 C 
BRANCH  26  27
HETATM   27  C   UNL     1      45.768 -28.680  -2.224  1.00  0.00     0.073 C 
HETATM   28  C   UNL     1      45.142 -28.035  -3.469  1.00  0.00     0.047 C 
HETATM   29  O   UNL     1      45.453 -30.091  -2.259  1.00  0.00    -0.379 OA
HETATM   30  C   UNL     1      44.389 -30.354  -1.331  1.00  0.00     0.169 C 
HETATM   31  C   UNL     1      43.906 -29.022  -0.797  1.00  0.00     0.029 C 
HETATM   32  C   UNL     1      45.130 -28.151  -0.938  1.00  0.00     0.041 C 
ENDBRANCH  26  27
ENDBRANCH  23  26
ENDBRANCH   2  22
BRANCH   1  33
HETATM   33  C   UNL     1      46.848 -30.929   1.616  1.00  0.00     0.125 C 
HETATM   34  C   UNL     1      46.031 -29.795   2.211  1.00  0.00     0.027 C 
ENDBRANCH   1  33
TORSDOF 7
ENDMDL
MODEL 8
REMARK VINA RESULT:      -7.2      1.847      2.692
REMARK  7 active torsions:
REMARK  status: ('A' for Active; 'I' for Inactive)
REMARK    1  A    between atoms: C_2  and  N_3 
REMARK    2  A    between atoms: C_4  and  C_5 
REMARK       I    between atoms: C_5  and  N_6 
REMARK    3  A    between atoms: N_6  and  C_7 
REMARK    4  A    between atoms: C_7  and  C_8 
REMARK    5  A    between atoms: C_19  and  N_20 
REMARK       I    between atoms: N_20  and  C_21 
REMARK    6  A    between atoms: C_21  and  C_22 
REMARK    7  A    between atoms: C_25  and  O_26 
ROOT
HETATM    1  N   UNL     1      42.822  -8.962   7.767  1.00  0.00    -0.342 N 
HETATM    2  C   UNL     1      41.512  -8.627   7.446  1.00  0.00     0.104 A 
HETATM    3  C   UNL     1      41.016  -9.702   6.718  1.00  0.00     0.049 A 
HETATM    4  C   UNL     1      42.020 -10.698   6.613  1.00  0.00    -0.005 A 
HETATM    5  C   UNL     1      43.147 -10.215   7.272  1.00  0.00     0.045 A 
HETATM    6  C   UNL     1      42.059 -11.980   6.022  1.00  0.00     0.043 A 
HETATM    7  C   UNL     1      43.221 -12.756   6.102  1.00  0.00     0.035 A 
HETATM    8  C   UNL     1      44.342 -12.238   6.758  1.00  0.00     0.032 A 
HETATM    9  C   UNL     1      44.326 -10.971   7.354  1.00  0.00     0.033 A 
ENDROOT
BRANCH   7  10
HETATM   10  N   UNL     1      43.338 -14.051   5.554  1.00  0.00    -0.323 N 
HETATM   11  C   UNL     1      42.947 -14.459   4.290  1.00  0.00     0.256 C 
HETATM   12  O   UNL     1      42.384 -13.785   3.435  1.00  0.00    -0.267 OA
HETATM   13  H   UNL     1      43.654 -14.771   6.189  1.00  0.00     0.169 HD
BRANCH  11  14
HETATM   14  C   UNL     1      43.210 -15.891   3.990  1.00  0.00     0.032 A 
HETATM   15  C   UNL     1      43.060 -16.334   2.672  1.00  0.00     0.020 A 
HETATM   16  C   UNL     1      43.317 -17.668   2.352  1.00  0.00     0.038 A 
HETATM   17  C   UNL     1      43.751 -18.562   3.333  1.00  0.00     0.068 A 
HETATM   18  C   UNL     1      43.899 -18.121   4.651  1.00  0.00     0.038 A 
HETATM   19  C   UNL     1      43.633 -16.787   4.981  1.00  0.00     0.020 A 
BRANCH  17  20
HETATM   20  O   UNL     1      43.984 -19.835   2.889  1.00  0.00    -0.356 OA
HETATM   21  C   UNL     1      43.048 -20.355   1.953  1.00  0.00     0.210 C 
ENDBRANCH  17  20
ENDBRANCH  11  14
ENDBRANCH   7  10
BRANCH   2  22
HETATM   22  C   UNL     1      40.834  -7.403   7.848  1.00  0.00     0.268 C 
HETATM   23  N   UNL     1      40.201  -7.456   9.068  1.00  0.00    -0.353 N 
HETATM   24  H   UNL     1      40.060  -8.352   9.514  1.00  0.00     0.162 HD
HETATM   25  O   UNL     1      40.813  -6.381   7.165  1.00  0.00    -0.266 OA
BRANCH  23  26
HETATM   26  C   UNL     1      39.389  -6.357   9.563  1.00  0.00     0.160 C 
BRANCH  26  27
HETATM   27  C   UNL     1      40.043  -5.621  10.747  1.00  0.00     0.073 C 
HETATM   28  C   UNL     1      38.945  -4.990  11.615  1.00  0.00     0.047 C 
HETATM   29  O   UNL     1      40.760  -6.568  11.573  1.00  0.00    -0.379 OA
HETATM   30  C   UNL     1      42.011  -5.983  11.970  1.00  0.00     0.169 C 
HETATM   31  C   UNL     1      42.016  -4.544  11.500  1.00  0.00     0.029 C 
HETATM   32  C   UNL     1      41.082  -4.585  10.316  1.00  0.00     0.041 C 
ENDBRANCH  26  27
ENDBRANCH  23  26
ENDBRANCH   2  22
BRANCH   1  33
HETATM   33  C   UNL     1      43.752  -8.128   8.519  1.00  0.00     0.125 C 
HETATM   34  C   UNL     1      43.777  -8.480   9.997  1.00  0.00     0.027 C 
ENDBRANCH   1  33
TORSDOF 7
ENDMDL
MODEL 9
REMARK VINA RESULT:      -7.2      7.460     10.491
REMARK  7 active torsions:
REMARK  status: ('A' for Active; 'I' for Inactive)
REMARK    1  A    between atoms: C_2  and  N_3 
REMARK    2  A    between atoms: C_4  and  C_5 
REMARK       I    between atoms: C_5  and  N_6 
REMARK    3  A    between atoms: N_6  and  C_7 
REMARK    4  A    between atoms: C_7  and  C_8 
REMARK    5  A    between atoms: C_19  and  N_20 
REMARK       I    between atoms: N_20  and  C_21 
REMARK    6  A    between atoms: C_21  and  C_22 
REMARK    7  A    between atoms: C_25  and  O_26 
ROOT
HETATM    1  N   UNL     1      38.450 -11.332  -0.250  1.00  0.00    -0.342 N 
HETATM    2  C   UNL     1      38.530 -11.672  -1.595  1.00  0.00     0.104 A 
HETATM    3  C   UNL     1      39.318 -12.817  -1.647  1.00  0.00     0.049 A 
HETATM    4  C   UNL     1      39.700 -13.182  -0.331  1.00  0.00    -0.005 A 
HETATM    5  C   UNL     1      39.151 -12.237   0.532  1.00  0.00     0.045 A 
HETATM    6  C   UNL     1      40.459 -14.248   0.200  1.00  0.00     0.043 A 
HETATM    7  C   UNL     1      40.652 -14.352   1.582  1.00  0.00     0.035 A 
HETATM    8  C   UNL     1      40.101 -13.381   2.423  1.00  0.00     0.032 A 
HETATM    9  C   UNL     1      39.343 -12.316   1.919  1.00  0.00     0.033 A 
ENDROOT
BRANCH   7  10
HETATM   10  N   UNL     1      41.381 -15.394   2.195  1.00  0.00    -0.323 N 
HETATM   11  C   UNL     1      42.758 -15.524   2.252  1.00  0.00     0.256 C 
HETATM   12  O   UNL     1      43.595 -14.788   1.740  1.00  0.00    -0.267 OA
HETATM   13  H   UNL     1      40.834 -16.168   2.544  1.00  0.00     0.169 HD
BRANCH  11  14
HETATM   14  C   UNL     1      43.239 -16.728   2.980  1.00  0.00     0.032 A 
HETATM   15  C   UNL     1      43.345 -17.933   2.278  1.00  0.00     0.020 A 
HETATM   16  C   UNL     1      43.809 -19.078   2.926  1.00  0.00     0.038 A 
HETATM   17  C   UNL     1      44.199 -19.026   4.267  1.00  0.00     0.068 A 
HETATM   18  C   UNL     1      44.092 -17.823   4.969  1.00  0.00     0.038 A 
HETATM   19  C   UNL     1      43.616 -16.673   4.329  1.00  0.00     0.020 A 
BRANCH  17  20
HETATM   20  O   UNL     1      44.652 -20.210   4.780  1.00  0.00    -0.356 OA
HETATM   21  C   UNL     1      43.763 -20.898   5.652  1.00  0.00     0.210 C 
ENDBRANCH  17  20
ENDBRANCH  11  14
ENDBRANCH   7  10
BRANCH   2  22
HETATM   22  C   UNL     1      37.873 -10.963  -2.683  1.00  0.00     0.268 C 
HETATM   23  N   UNL     1      38.698 -10.183  -3.460  1.00  0.00    -0.353 N 
HETATM   24  H   UNL     1      39.634  -9.979  -3.136  1.00  0.00     0.162 HD
HETATM   25  O   UNL     1      36.668 -11.037  -2.913  1.00  0.00    -0.266 OA
BRANCH  23  26
HETATM   26  C   UNL     1      38.182  -9.328  -4.515  1.00  0.00     0.160 C 
BRANCH  26  27
HETATM   27  C   UNL     1      38.834  -7.933  -4.521  1.00  0.00     0.073 C 
HETATM   28  C   UNL     1      37.900  -6.938  -3.817  1.00  0.00     0.047 C 
HETATM   29  O   UNL     1      40.073  -7.970  -3.776  1.00  0.00    -0.379 OA
HETATM   30  C   UNL     1      41.062  -7.205  -4.481  1.00  0.00     0.169 C 
HETATM   31  C   UNL     1      40.375  -6.526  -5.646  1.00  0.00     0.029 C 
HETATM   32  C   UNL     1      39.214  -7.450  -5.922  1.00  0.00     0.041 C 
ENDBRANCH  26  27
ENDBRANCH  23  26
ENDBRANCH   2  22
BRANCH   1  33
HETATM   33  C   UNL     1      37.733 -10.185   0.295  1.00  0.00     0.125 C 
HETATM   34  C   UNL     1      36.334 -10.547   0.762  1.00  0.00     0.027 C 
ENDBRANCH   1  33
TORSDOF 7
ENDMDL
MODEL 10
REMARK VINA RESULT:      -7.2      1.556      2.354
REMARK  7 active torsions:
REMARK  status: ('A' for Active; 'I' for Inactive)
REMARK    1  A    between atoms: C_2  and  N_3 
REMARK    2  A    between atoms: C_4  and  C_5 
REMARK       I    between atoms: C_5  and  N_6 
REMARK    3  A    between atoms: N_6  and  C_7 
REMARK    4  A    between atoms: C_7  and  C_8 
REMARK    5  A    between atoms: C_19  and  N_20 
REMARK       I    between atoms: N_20  and  C_21 
REMARK    6  A    between atoms: C_21  and  C_22 
REMARK    7  A    between atoms: C_25  and  O_26 
ROOT
HETATM    1  N   UNL     1      42.299  -8.924   6.910  1.00  0.00    -0.342 N 
HETATM    2  C   UNL     1      43.134  -8.914   8.020  1.00  0.00     0.104 A 
HETATM    3  C   UNL     1      43.709 -10.178   8.070  1.00  0.00     0.049 A 
HETATM    4  C   UNL     1      43.236 -10.950   6.979  1.00  0.00    -0.005 A 
HETATM    5  C   UNL     1      42.348 -10.150   6.265  1.00  0.00     0.045 A 
HETATM    6  C   UNL     1      43.499 -12.263   6.531  1.00  0.00     0.043 A 
HETATM    7  C   UNL     1      42.874 -12.750   5.377  1.00  0.00     0.035 A 
HETATM    8  C   UNL     1      41.977 -11.929   4.689  1.00  0.00     0.032 A 
HETATM    9  C   UNL     1      41.701 -10.622   5.113  1.00  0.00     0.033 A 
ENDROOT
BRANCH   7  10
HETATM   10  N   UNL     1      43.095 -14.042   4.852  1.00  0.00    -0.323 N 
HETATM   11  C   UNL     1      42.169 -15.066   4.746  1.00  0.00     0.256 C 
HETATM   12  O   UNL     1      41.005 -15.057   5.130  1.00  0.00    -0.267 OA
HETATM   13  H   UNL     1      44.052 -14.266   4.620  1.00  0.00     0.169 HD
BRANCH  11  14
HETATM   14  C   UNL     1      42.695 -16.317   4.136  1.00  0.00     0.032 A 
HETATM   15  C   UNL     1      43.676 -17.034   4.829  1.00  0.00     0.020 A 
HETATM   16  C   UNL     1      44.178 -18.221   4.295  1.00  0.00     0.038 A 
HETATM   17  C   UNL     1      43.687 -18.719   3.085  1.00  0.00     0.068 A 
HETATM   18  C   UNL     1      42.708 -18.002   2.392  1.00  0.00     0.038 A 
HETATM   19  C   UNL     1      42.208 -16.804   2.916  1.00  0.00     0.020 A 
BRANCH  17  20
HETATM   20  O   UNL     1      44.248 -19.898   2.679  1.00  0.00    -0.356 OA
HETATM   21  C   UNL     1      43.571 -20.591   1.638  1.00  0.00     0.210 C 
ENDBRANCH  17  20
ENDBRANCH  11  14
ENDBRANCH   7  10
BRANCH   2  22
HETATM   22  C   UNL     1      43.356  -7.772   8.896  1.00  0.00     0.268 C 
HETATM   23  N   UNL     1      42.461  -7.644   9.933  1.00  0.00    -0.353 N 
HETATM   24  H   UNL     1      41.611  -8.192   9.923  1.00  0.00     0.162 HD
HETATM   25  O   UNL     1      44.270  -6.964   8.742  1.00  0.00    -0.266 OA
BRANCH  23  26
HETATM   26  C   UNL     1      42.478  -6.501  10.829  1.00  0.00     0.160 C 
BRANCH  26  27
HETATM   27  C   UNL     1      41.309  -5.531  10.576  1.00  0.00     0.073 C 
HETATM   28  C   UNL     1      39.987  -6.311  10.632  1.00  0.00     0.047 C 
HETATM   29  O   UNL     1      41.269  -4.532  11.622  1.00  0.00    -0.379 OA
HETATM   30  C   UNL     1      40.989  -3.253  11.032  1.00  0.00     0.169 C 
HETATM   31  C   UNL     1      40.686  -3.479   9.566  1.00  0.00     0.029 C 
HETATM   32  C   UNL     1      41.444  -4.749   9.268  1.00  0.00     0.041 C 
ENDBRANCH  26  27
ENDBRANCH  23  26
ENDBRANCH   2  22
BRANCH   1  33
HETATM   33  C   UNL     1      41.469  -7.812   6.462  1.00  0.00     0.125 C 
HETATM   34  C   UNL     1      40.106  -7.801   7.133  1.00  0.00     0.027 C 
ENDBRANCH   1  33
TORSDOF 7
ENDMDL
