MODEL 1
REMARK VINA RESULT:      -8.0      0.000      0.000
REMARK  5 active torsions:
REMARK  status: ('A' for Active; 'I' for Inactive)
REMARK    1  A    between atoms: C_9  and  C_10 
REMARK    2  A    between atoms: C_10  and  N_11 
REMARK    3  A    between atoms: N_11  and  C_14 
REMARK    4  A    between atoms: C_14  and  C_15 
REMARK    5  A    between atoms: C_16  and  C_17 
ROOT
HETATM    1  C   UNL     1      43.169 -15.285   3.575  1.00  0.00    -0.036 A 
HETATM    2  C   UNL     1      43.129 -16.327   4.508  1.00  0.00     0.013 A 
HETATM    3  C   UNL     1      43.195 -17.656   4.080  1.00  0.00     0.023 A 
HETATM    4  C   UNL     1      43.294 -17.952   2.717  1.00  0.00     0.044 A 
HETATM    5  C   UNL     1      43.366 -19.316   2.280  1.00  0.00     0.099 C 
HETATM    6  N   UNL     1      43.428 -20.421   1.933  1.00  0.00    -0.191 NA
HETATM    7  C   UNL     1      43.328 -16.912   1.783  1.00  0.00     0.023 A 
HETATM    8  C   UNL     1      43.266 -15.582   2.211  1.00  0.00     0.013 A 
ENDROOT
BRANCH   1   9
HETATM    9  C   UNL     1      43.123 -13.897   4.036  1.00  0.00     0.009 C 
HETATM   10  C   UNL     1      43.321 -12.878   3.184  1.00  0.00     0.001 C 
BRANCH  10  11
HETATM   11  C   UNL     1      43.294 -11.441   3.577  1.00  0.00     0.259 C 
BRANCH  11  12
HETATM   12  N   UNL     1      41.992 -10.828   3.202  1.00  0.00    -0.071 N 
HETATM   13  H   UNL     1      42.090  -9.807   3.323  1.00  0.00     0.277 HD
HETATM   14  H   UNL     1      41.292 -11.124   3.896  1.00  0.00     0.277 HD
BRANCH  12  15
HETATM   15  C   UNL     1      41.515 -11.169   1.823  1.00  0.00     0.242 C 
BRANCH  15  16
HETATM   16  C   UNL     1      40.046 -11.654   1.776  1.00  0.00     0.055 C 
HETATM   17  C   UNL     1      39.934 -13.148   1.554  1.00  0.00    -0.025 A 
HETATM   18  C   UNL     1      40.060 -13.700   0.274  1.00  0.00     0.010 A 
HETATM   19  C   UNL     1      39.741 -14.004   2.651  1.00  0.00     0.041 A 
HETATM   20  C   UNL     1      40.001 -15.084   0.102  1.00  0.00     0.001 A 
HETATM   21  C   UNL     1      39.822 -15.924   1.202  1.00  0.00     0.002 A 
HETATM   22  C   UNL     1      39.696 -15.386   2.481  1.00  0.00     0.030 A 
HETATM   23  N   UNL     1      39.673 -13.465   3.940  1.00  0.00    -0.327 N 
HETATM   24  C   UNL     1      39.637 -12.120   4.183  1.00  0.00     0.222 C 
HETATM   25  H   UNL     1      39.739 -14.076   4.749  1.00  0.00     0.169 HD
HETATM   26  O   UNL     1      40.017 -11.645   5.248  1.00  0.00    -0.273 OA
HETATM   27  C   UNL     1      39.248 -11.254   3.014  1.00  0.00     0.114 C 
ENDBRANCH  15  16
ENDBRANCH  12  15
ENDBRANCH  11  12
ENDBRANCH  10  11
ENDBRANCH   1   9
TORSDOF 5
ENDMDL
MODEL 2
REMARK VINA RESULT:      -7.8      2.468      4.053
REMARK  5 active torsions:
REMARK  status: ('A' for Active; 'I' for Inactive)
REMARK    1  A    between atoms: C_9  and  C_10 
REMARK    2  A    between atoms: C_10  and  N_11 
REMARK    3  A    between atoms: N_11  and  C_14 
REMARK    4  A    between atoms: C_14  and  C_15 
REMARK    5  A    between atoms: C_16  and  C_17 
ROOT
HETATM    1  C   UNL     1      43.168 -16.823   2.455  1.00  0.00    -0.036 A 
HETATM    2  C   UNL     1      43.481 -16.657   3.808  1.00  0.00     0.013 A 
HETATM    3  C   UNL     1      43.828 -17.763   4.590  1.00  0.00     0.023 A 
HETATM    4  C   UNL     1      43.857 -19.042   4.026  1.00  0.00     0.044 A 
HETATM    5  C   UNL     1      44.218 -20.174   4.828  1.00  0.00     0.099 C 
HETATM    6  N   UNL     1      44.514 -21.086   5.481  1.00  0.00    -0.191 NA
HETATM    7  C   UNL     1      43.538 -19.210   2.675  1.00  0.00     0.023 A 
HETATM    8  C   UNL     1      43.195 -18.104   1.891  1.00  0.00     0.013 A 
ENDROOT
BRANCH   1   9
HETATM    9  C   UNL     1      42.828 -15.656   1.641  1.00  0.00     0.009 C 
HETATM   10  C   UNL     1      42.140 -14.627   2.161  1.00  0.00     0.001 C 
BRANCH  10  11
HETATM   11  C   UNL     1      41.754 -13.407   1.397  1.00  0.00     0.259 C 
BRANCH  11  12
HETATM   12  N   UNL     1      41.943 -12.192   2.234  1.00  0.00    -0.071 N 
HETATM   13  H   UNL     1      41.016 -11.934   2.610  1.00  0.00     0.277 HD
HETATM   14  H   UNL     1      42.215 -11.419   1.611  1.00  0.00     0.277 HD
BRANCH  12  15
HETATM   15  C   UNL     1      42.953 -12.340   3.330  1.00  0.00     0.242 C 
BRANCH  15  16
HETATM   16  C   UNL     1      42.394 -12.023   4.739  1.00  0.00     0.055 C 
HETATM   17  C   UNL     1      42.250 -13.260   5.600  1.00  0.00    -0.025 A 
HETATM   18  C   UNL     1      41.150 -14.115   5.458  1.00  0.00     0.010 A 
HETATM   19  C   UNL     1      43.251 -13.583   6.531  1.00  0.00     0.041 A 
HETATM   20  C   UNL     1      41.065 -15.275   6.230  1.00  0.00     0.001 A 
HETATM   21  C   UNL     1      42.073 -15.591   7.141  1.00  0.00     0.002 A 
HETATM   22  C   UNL     1      43.172 -14.747   7.291  1.00  0.00     0.030 A 
HETATM   23  N   UNL     1      44.381 -12.765   6.636  1.00  0.00    -0.327 N 
HETATM   24  C   UNL     1      44.500 -11.572   5.980  1.00  0.00     0.222 C 
HETATM   25  H   UNL     1      45.196 -13.090   7.149  1.00  0.00     0.169 HD
HETATM   26  O   UNL     1      45.593 -11.088   5.710  1.00  0.00    -0.273 OA
HETATM   27  C   UNL     1      43.213 -10.969   5.480  1.00  0.00     0.114 C 
ENDBRANCH  15  16
ENDBRANCH  12  15
ENDBRANCH  11  12
ENDBRANCH  10  11
ENDBRANCH   1   9
TORSDOF 5
ENDMDL
MODEL 3
REMARK VINA RESULT:      -7.7      1.249      1.834
REMARK  5 active torsions:
REMARK  status: ('A' for Active; 'I' for Inactive)
REMARK    1  A    between atoms: C_9  and  C_10 
REMARK    2  A    between atoms: C_10  and  N_11 
REMARK    3  A    between atoms: N_11  and  C_14 
REMARK    4  A    between atoms: C_14  and  C_15 
REMARK    5  A    between atoms: C_16  and  C_17 
ROOT
HETATM    1  C   UNL     1      43.549 -16.425   4.870  1.00  0.00    -0.036 A 
HETATM    2  C   UNL     1      43.156 -16.296   3.533  1.00  0.00     0.013 A 
HETATM    3  C   UNL     1      43.179 -17.404   2.682  1.00  0.00     0.023 A 
HETATM    4  C   UNL     1      43.602 -18.649   3.161  1.00  0.00     0.044 A 
HETATM    5  C   UNL     1      43.621 -19.786   2.288  1.00  0.00     0.099 C 
HETATM    6  N   UNL     1      43.632 -20.704   1.579  1.00  0.00    -0.191 NA
HETATM    7  C   UNL     1      44.001 -18.778   4.495  1.00  0.00     0.023 A 
HETATM    8  C   UNL     1      43.974 -17.670   5.347  1.00  0.00     0.013 A 
ENDROOT
BRANCH   1   9
HETATM    9  C   UNL     1      43.498 -15.263   5.757  1.00  0.00     0.009 C 
HETATM   10  C   UNL     1      43.344 -14.023   5.263  1.00  0.00     0.001 C 
BRANCH  10  11
HETATM   11  C   UNL     1      43.287 -12.791   6.099  1.00  0.00     0.259 C 
BRANCH  11  12
HETATM   12  N   UNL     1      42.530 -11.722   5.392  1.00  0.00    -0.071 N 
HETATM   13  H   UNL     1      42.923 -10.818   5.700  1.00  0.00     0.277 HD
HETATM   14  H   UNL     1      41.562 -11.738   5.742  1.00  0.00     0.277 HD
BRANCH  12  15
HETATM   15  C   UNL     1      42.533 -11.838   3.899  1.00  0.00     0.242 C 
BRANCH  15  16
HETATM   16  C   UNL     1      41.117 -11.826   3.272  1.00  0.00     0.055 C 
HETATM   17  C   UNL     1      40.815 -13.091   2.495  1.00  0.00    -0.025 A 
HETATM   18  C   UNL     1      41.290 -13.267   1.190  1.00  0.00     0.010 A 
HETATM   19  C   UNL     1      40.080 -14.124   3.100  1.00  0.00     0.041 A 
HETATM   20  C   UNL     1      41.038 -14.461   0.512  1.00  0.00     0.001 A 
HETATM   21  C   UNL     1      40.318 -15.484   1.130  1.00  0.00     0.002 A 
HETATM   22  C   UNL     1      39.841 -15.320   2.429  1.00  0.00     0.030 A 
HETATM   23  N   UNL     1      39.653 -13.978   4.425  1.00  0.00    -0.327 N 
HETATM   24  C   UNL     1      39.785 -12.812   5.126  1.00  0.00     0.222 C 
HETATM   25  H   UNL     1      39.305 -14.784   4.936  1.00  0.00     0.169 HD
HETATM   26  O   UNL     1      39.835 -12.796   6.350  1.00  0.00    -0.273 OA
HETATM   27  C   UNL     1      40.015 -11.574   4.298  1.00  0.00     0.114 C 
ENDBRANCH  15  16
ENDBRANCH  12  15
ENDBRANCH  11  12
ENDBRANCH  10  11
ENDBRANCH   1   9
TORSDOF 5
ENDMDL
MODEL 4
REMARK VINA RESULT:      -7.5      3.005      6.106
REMARK  5 active torsions:
REMARK  status: ('A' for Active; 'I' for Inactive)
REMARK    1  A    between atoms: C_9  and  C_10 
REMARK    2  A    between atoms: C_10  and  N_11 
REMARK    3  A    between atoms: N_11  and  C_14 
REMARK    4  A    between atoms: C_14  and  C_15 
REMARK    5  A    between atoms: C_16  and  C_17 
ROOT
HETATM    1  C   UNL     1      42.624 -12.052   5.175  1.00  0.00    -0.036 A 
HETATM    2  C   UNL     1      43.586 -12.883   5.761  1.00  0.00     0.013 A 
HETATM    3  C   UNL     1      44.237 -12.487   6.933  1.00  0.00     0.023 A 
HETATM    4  C   UNL     1      43.935 -11.255   7.523  1.00  0.00     0.044 A 
HETATM    5  C   UNL     1      44.600 -10.853   8.728  1.00  0.00     0.099 C 
HETATM    6  N   UNL     1      45.138 -10.533   9.704  1.00  0.00    -0.191 NA
HETATM    7  C   UNL     1      42.979 -10.421   6.935  1.00  0.00     0.023 A 
HETATM    8  C   UNL     1      42.325 -10.819   5.764  1.00  0.00     0.013 A 
ENDROOT
BRANCH   1   9
HETATM    9  C   UNL     1      41.933 -12.488   3.961  1.00  0.00     0.009 C 
HETATM   10  C   UNL     1      42.617 -12.783   2.844  1.00  0.00     0.001 C 
BRANCH  10  11
HETATM   11  C   UNL     1      41.987 -13.229   1.570  1.00  0.00     0.259 C 
BRANCH  11  12
HETATM   12  N   UNL     1      42.388 -14.627   1.257  1.00  0.00    -0.071 N 
HETATM   13  H   UNL     1      42.773 -14.625   0.298  1.00  0.00     0.277 HD
HETATM   14  H   UNL     1      41.532 -15.198   1.212  1.00  0.00     0.277 HD
BRANCH  12  15
HETATM   15  C   UNL     1      43.352 -15.233   2.230  1.00  0.00     0.242 C 
BRANCH  15  16
HETATM   16  C   UNL     1      42.832 -16.532   2.892  1.00  0.00     0.055 C 
HETATM   17  C   UNL     1      42.839 -16.456   4.405  1.00  0.00    -0.025 A 
HETATM   18  C   UNL     1      44.016 -16.665   5.134  1.00  0.00     0.010 A 
HETATM   19  C   UNL     1      41.658 -16.132   5.093  1.00  0.00     0.041 A 
HETATM   20  C   UNL     1      44.006 -16.543   6.524  1.00  0.00     0.001 A 
HETATM   21  C   UNL     1      42.829 -16.207   7.193  1.00  0.00     0.002 A 
HETATM   22  C   UNL     1      41.651 -15.995   6.479  1.00  0.00     0.030 A 
HETATM   23  N   UNL     1      40.492 -15.863   4.367  1.00  0.00    -0.327 N 
HETATM   24  C   UNL     1      40.398 -16.043   3.016  1.00  0.00     0.222 C 
HETATM   25  H   UNL     1      39.696 -15.433   4.830  1.00  0.00     0.169 HD
HETATM   26  O   UNL     1      39.590 -15.422   2.335  1.00  0.00    -0.273 OA
HETATM   27  C   UNL     1      41.444 -16.935   2.401  1.00  0.00     0.114 C 
ENDBRANCH  15  16
ENDBRANCH  12  15
ENDBRANCH  11  12
ENDBRANCH  10  11
ENDBRANCH   1   9
TORSDOF 5
ENDMDL
MODEL 5
REMARK VINA RESULT:      -7.4      2.920      5.495
REMARK  5 active torsions:
REMARK  status: ('A' for Active; 'I' for Inactive)
REMARK    1  A    between atoms: C_9  and  C_10 
REMARK    2  A    between atoms: C_10  and  N_11 
REMARK    3  A    between atoms: N_11  and  C_14 
REMARK    4  A    between atoms: C_14  and  C_15 
REMARK    5  A    between atoms: C_16  and  C_17 
ROOT
HETATM    1  C   UNL     1      40.826 -13.036   0.534  1.00  0.00    -0.036 A 
HETATM    2  C   UNL     1      40.249 -14.310   0.503  1.00  0.00     0.013 A 
HETATM    3  C   UNL     1      39.607 -14.763  -0.653  1.00  0.00     0.023 A 
HETATM    4  C   UNL     1      39.532 -13.943  -1.783  1.00  0.00     0.044 A 
HETATM    5  C   UNL     1      38.878 -14.411  -2.970  1.00  0.00     0.099 C 
HETATM    6  N   UNL     1      38.351 -14.796  -3.928  1.00  0.00    -0.191 NA
HETATM    7  C   UNL     1      40.104 -12.667  -1.751  1.00  0.00     0.023 A 
HETATM    8  C   UNL     1      40.749 -12.214  -0.596  1.00  0.00     0.013 A 
ENDROOT
BRANCH   1   9
HETATM    9  C   UNL     1      41.515 -12.581   1.743  1.00  0.00     0.009 C 
HETATM   10  C   UNL     1      42.491 -13.316   2.300  1.00  0.00     0.001 C 
BRANCH  10  11
HETATM   11  C   UNL     1      43.236 -12.924   3.529  1.00  0.00     0.259 C 
BRANCH  11  12
HETATM   12  N   UNL     1      43.013 -13.924   4.608  1.00  0.00    -0.071 N 
HETATM   13  H   UNL     1      43.596 -13.638   5.412  1.00  0.00     0.277 HD
HETATM   14  H   UNL     1      43.401 -14.823   4.290  1.00  0.00     0.277 HD
BRANCH  12  15
HETATM   15  C   UNL     1      41.581 -14.101   5.009  1.00  0.00     0.242 C 
BRANCH  15  16
HETATM   16  C   UNL     1      41.163 -15.582   5.183  1.00  0.00     0.055 C 
HETATM   17  C   UNL     1      42.040 -16.530   4.392  1.00  0.00    -0.025 A 
HETATM   18  C   UNL     1      41.836 -16.730   3.022  1.00  0.00     0.010 A 
HETATM   19  C   UNL     1      43.102 -17.194   5.029  1.00  0.00     0.041 A 
HETATM   20  C   UNL     1      42.687 -17.573   2.306  1.00  0.00     0.001 A 
HETATM   21  C   UNL     1      43.747 -18.215   2.947  1.00  0.00     0.002 A 
HETATM   22  C   UNL     1      43.961 -18.023   4.311  1.00  0.00     0.030 A 
HETATM   23  N   UNL     1      43.349 -16.953   6.385  1.00  0.00    -0.327 N 
HETATM   24  C   UNL     1      42.514 -16.211   7.173  1.00  0.00     0.222 C 
HETATM   25  H   UNL     1      44.222 -17.260   6.803  1.00  0.00     0.169 HD
HETATM   26  O   UNL     1      42.914 -15.640   8.181  1.00  0.00    -0.273 OA
HETATM   27  C   UNL     1      41.116 -16.018   6.645  1.00  0.00     0.114 C 
ENDBRANCH  15  16
ENDBRANCH  12  15
ENDBRANCH  11  12
ENDBRANCH  10  11
ENDBRANCH   1   9
TORSDOF 5
ENDMDL
MODEL 6
REMARK VINA RESULT:      -7.2      2.149      5.057
REMARK  5 active torsions:
REMARK  status: ('A' for Active; 'I' for Inactive)
REMARK    1  A    between atoms: C_9  and  C_10 
REMARK    2  A    between atoms: C_10  and  N_11 
REMARK    3  A    between atoms: N_11  and  C_14 
REMARK    4  A    between atoms: C_14  and  C_15 
REMARK    5  A    between atoms: C_16  and  C_17 
ROOT
HETATM    1  C   UNL     1      39.797 -13.761   2.089  1.00  0.00    -0.036 A 
HETATM    2  C   UNL     1      39.899 -12.544   1.405  1.00  0.00     0.013 A 
HETATM    3  C   UNL     1      40.023 -12.529   0.013  1.00  0.00     0.023 A 
HETATM    4  C   UNL     1      40.052 -13.730  -0.704  1.00  0.00     0.044 A 
HETATM    5  C   UNL     1      40.175 -13.712  -2.132  1.00  0.00     0.099 C 
HETATM    6  N   UNL     1      40.270 -13.693  -3.288  1.00  0.00    -0.191 NA
HETATM    7  C   UNL     1      39.956 -14.946  -0.020  1.00  0.00     0.023 A 
HETATM    8  C   UNL     1      39.828 -14.962   1.372  1.00  0.00     0.013 A 
ENDROOT
BRANCH   1   9
HETATM    9  C   UNL     1      39.644 -13.763   3.544  1.00  0.00     0.009 C 
HETATM   10  C   UNL     1      39.749 -12.627   4.252  1.00  0.00     0.001 C 
BRANCH  10  11
HETATM   11  C   UNL     1      39.611 -12.548   5.734  1.00  0.00     0.259 C 
BRANCH  11  12
HETATM   12  N   UNL     1      40.846 -13.046   6.396  1.00  0.00    -0.071 N 
HETATM   13  H   UNL     1      40.698 -12.969   7.415  1.00  0.00     0.277 HD
HETATM   14  H   UNL     1      41.609 -12.390   6.175  1.00  0.00     0.277 HD
BRANCH  12  15
HETATM   15  C   UNL     1      41.246 -14.437   6.008  1.00  0.00     0.242 C 
BRANCH  15  16
HETATM   16  C   UNL     1      42.748 -14.578   5.662  1.00  0.00     0.055 C 
HETATM   17  C   UNL     1      42.975 -15.103   4.259  1.00  0.00    -0.025 A 
HETATM   18  C   UNL     1      42.876 -16.470   3.973  1.00  0.00     0.010 A 
HETATM   19  C   UNL     1      43.251 -14.205   3.214  1.00  0.00     0.041 A 
HETATM   20  C   UNL     1      43.042 -16.922   2.664  1.00  0.00     0.001 A 
HETATM   21  C   UNL     1      43.302 -16.018   1.634  1.00  0.00     0.002 A 
HETATM   22  C   UNL     1      43.403 -14.655   1.905  1.00  0.00     0.030 A 
HETATM   23  N   UNL     1      43.293 -12.832   3.481  1.00  0.00    -0.327 N 
HETATM   24  C   UNL     1      43.225 -12.317   4.746  1.00  0.00     0.222 C 
HETATM   25  H   UNL     1      43.287 -12.167   2.713  1.00  0.00     0.169 HD
HETATM   26  O   UNL     1      42.823 -11.179   4.959  1.00  0.00    -0.273 OA
HETATM   27  C   UNL     1      43.529 -13.282   5.862  1.00  0.00     0.114 C 
ENDBRANCH  15  16
ENDBRANCH  12  15
ENDBRANCH  11  12
ENDBRANCH  10  11
ENDBRANCH   1   9
TORSDOF 5
ENDMDL
MODEL 7
REMARK VINA RESULT:      -7.1      2.481      3.940
REMARK  5 active torsions:
REMARK  status: ('A' for Active; 'I' for Inactive)
REMARK    1  A    between atoms: C_9  and  C_10 
REMARK    2  A    between atoms: C_10  and  N_11 
REMARK    3  A    between atoms: N_11  and  C_14 
REMARK    4  A    between atoms: C_14  and  C_15 
REMARK    5  A    between atoms: C_16  and  C_17 
ROOT
HETATM    1  C   UNL     1      41.775 -14.504   2.125  1.00  0.00    -0.036 A 
HETATM    2  C   UNL     1      40.898 -15.534   2.482  1.00  0.00     0.013 A 
HETATM    3  C   UNL     1      41.351 -16.855   2.543  1.00  0.00     0.023 A 
HETATM    4  C   UNL     1      42.683 -17.155   2.241  1.00  0.00     0.044 A 
HETATM    5  C   UNL     1      43.148 -18.510   2.309  1.00  0.00     0.099 C 
HETATM    6  N   UNL     1      43.520 -19.607   2.369  1.00  0.00    -0.191 NA
HETATM    7  C   UNL     1      43.560 -16.128   1.878  1.00  0.00     0.023 A 
HETATM    8  C   UNL     1      43.107 -14.806   1.820  1.00  0.00     0.013 A 
ENDROOT
BRANCH   1   9
HETATM    9  C   UNL     1      41.294 -13.123   2.087  1.00  0.00     0.009 C 
HETATM   10  C   UNL     1      42.143 -12.091   2.220  1.00  0.00     0.001 C 
BRANCH  10  11
HETATM   11  C   UNL     1      41.731 -10.660   2.196  1.00  0.00     0.259 C 
BRANCH  11  12
HETATM   12  N   UNL     1      41.959 -10.034   3.527  1.00  0.00    -0.071 N 
HETATM   13  H   UNL     1      41.049 -10.015   4.014  1.00  0.00     0.277 HD
HETATM   14  H   UNL     1      42.212  -9.048   3.372  1.00  0.00     0.277 HD
BRANCH  12  15
HETATM   15  C   UNL     1      43.009 -10.703   4.360  1.00  0.00     0.242 C 
BRANCH  15  16
HETATM   16  C   UNL     1      42.558 -10.996   5.812  1.00  0.00     0.055 C 
HETATM   17  C   UNL     1      42.061 -12.415   5.991  1.00  0.00    -0.025 A 
HETATM   18  C   UNL     1      40.763 -12.779   5.613  1.00  0.00     0.010 A 
HETATM   19  C   UNL     1      42.923 -13.397   6.507  1.00  0.00     0.041 A 
HETATM   20  C   UNL     1      40.345 -14.104   5.744  1.00  0.00     0.001 A 
HETATM   21  C   UNL     1      41.215 -15.072   6.246  1.00  0.00     0.002 A 
HETATM   22  C   UNL     1      42.510 -14.721   6.625  1.00  0.00     0.030 A 
HETATM   23  N   UNL     1      44.240 -13.053   6.832  1.00  0.00    -0.327 N 
HETATM   24  C   UNL     1      44.699 -11.765   6.813  1.00  0.00     0.222 C 
HETATM   25  H   UNL     1      44.924 -13.782   7.009  1.00  0.00     0.169 HD
HETATM   26  O   UNL     1      45.887 -11.505   6.657  1.00  0.00    -0.273 OA
HETATM   27  C   UNL     1      43.642 -10.693   6.843  1.00  0.00     0.114 C 
ENDBRANCH  15  16
ENDBRANCH  12  15
ENDBRANCH  11  12
ENDBRANCH  10  11
ENDBRANCH   1   9
TORSDOF 5
ENDMDL
MODEL 8
REMARK VINA RESULT:      -7.1      3.252      6.448
REMARK  5 active torsions:
REMARK  status: ('A' for Active; 'I' for Inactive)
REMARK    1  A    between atoms: C_9  and  C_10 
REMARK    2  A    between atoms: C_10  and  N_11 
REMARK    3  A    between atoms: N_11  and  C_14 
REMARK    4  A    between atoms: C_14  and  C_15 
REMARK    5  A    between atoms: C_16  and  C_17 
ROOT
HETATM    1  C   UNL     1      43.871 -11.220   5.293  1.00  0.00    -0.036 A 
HETATM    2  C   UNL     1      42.929 -10.655   6.160  1.00  0.00     0.013 A 
HETATM    3  C   UNL     1      43.250 -10.439   7.503  1.00  0.00     0.023 A 
HETATM    4  C   UNL     1      44.513 -10.792   7.990  1.00  0.00     0.044 A 
HETATM    5  C   UNL     1      44.843 -10.565   9.367  1.00  0.00     0.099 C 
HETATM    6  N   UNL     1      45.106 -10.377  10.480  1.00  0.00    -0.191 NA
HETATM    7  C   UNL     1      45.453 -11.363   7.126  1.00  0.00     0.023 A 
HETATM    8  C   UNL     1      45.133 -11.576   5.781  1.00  0.00     0.013 A 
ENDROOT
BRANCH   1   9
HETATM    9  C   UNL     1      43.530 -11.420   3.884  1.00  0.00     0.009 C 
HETATM   10  C   UNL     1      42.625 -12.341   3.516  1.00  0.00     0.001 C 
BRANCH  10  11
HETATM   11  C   UNL     1      42.229 -12.606   2.104  1.00  0.00     0.259 C 
BRANCH  11  12
HETATM   12  N   UNL     1      42.190 -14.071   1.845  1.00  0.00    -0.071 N 
HETATM   13  H   UNL     1      42.436 -14.210   0.851  1.00  0.00     0.277 HD
HETATM   14  H   UNL     1      41.213 -14.381   1.936  1.00  0.00     0.277 HD
BRANCH  12  15
HETATM   15  C   UNL     1      43.068 -14.887   2.743  1.00  0.00     0.242 C 
BRANCH  15  16
HETATM   16  C   UNL     1      42.299 -15.950   3.565  1.00  0.00     0.055 C 
HETATM   17  C   UNL     1      42.887 -17.338   3.416  1.00  0.00    -0.025 A 
HETATM   18  C   UNL     1      42.598 -18.129   2.297  1.00  0.00     0.010 A 
HETATM   19  C   UNL     1      43.769 -17.831   4.392  1.00  0.00     0.041 A 
HETATM   20  C   UNL     1      43.190 -19.385   2.160  1.00  0.00     0.001 A 
HETATM   21  C   UNL     1      44.075 -19.857   3.130  1.00  0.00     0.002 A 
HETATM   22  C   UNL     1      44.371 -19.078   4.248  1.00  0.00     0.030 A 
HETATM   23  N   UNL     1      44.109 -17.023   5.482  1.00  0.00    -0.327 N 
HETATM   24  C   UNL     1      43.509 -15.820   5.732  1.00  0.00     0.222 C 
HETATM   25  H   UNL     1      44.890 -17.279   6.078  1.00  0.00     0.169 HD
HETATM   26  O   UNL     1      44.070 -14.940   6.375  1.00  0.00    -0.273 OA
HETATM   27  C   UNL     1      42.189 -15.591   5.045  1.00  0.00     0.114 C 
ENDBRANCH  15  16
ENDBRANCH  12  15
ENDBRANCH  11  12
ENDBRANCH  10  11
ENDBRANCH   1   9
TORSDOF 5
ENDMDL
MODEL 9
REMARK VINA RESULT:      -6.9     15.470     16.893
REMARK  5 active torsions:
REMARK  status: ('A' for Active; 'I' for Inactive)
REMARK    1  A    between atoms: C_9  and  C_10 
REMARK    2  A    between atoms: C_10  and  N_11 
REMARK    3  A    between atoms: N_11  and  C_14 
REMARK    4  A    between atoms: C_14  and  C_15 
REMARK    5  A    between atoms: C_16  and  C_17 
ROOT
HETATM    1  C   UNL     1      47.062 -29.517   3.161  1.00  0.00    -0.036 A 
HETATM    2  C   UNL     1      47.204 -30.763   3.782  1.00  0.00     0.013 A 
HETATM    3  C   UNL     1      48.436 -31.144   4.321  1.00  0.00     0.023 A 
HETATM    4  C   UNL     1      49.535 -30.284   4.238  1.00  0.00     0.044 A 
HETATM    5  C   UNL     1      50.797 -30.674   4.797  1.00  0.00     0.099 C 
HETATM    6  N   UNL     1      51.815 -30.993   5.253  1.00  0.00    -0.191 NA
HETATM    7  C   UNL     1      49.397 -29.041   3.612  1.00  0.00     0.023 A 
HETATM    8  C   UNL     1      48.164 -28.659   3.075  1.00  0.00     0.013 A 
ENDROOT
BRANCH   1   9
HETATM    9  C   UNL     1      45.762 -29.121   2.620  1.00  0.00     0.009 C 
HETATM   10  C   UNL     1      44.986 -30.002   1.968  1.00  0.00     0.001 C 
BRANCH  10  11
HETATM   11  C   UNL     1      43.654 -29.674   1.386  1.00  0.00     0.259 C 
BRANCH  11  12
HETATM   12  N   UNL     1      43.797 -28.659   0.308  1.00  0.00    -0.071 N 
HETATM   13  H   UNL     1      44.613 -28.074   0.547  1.00  0.00     0.277 HD
HETATM   14  H   UNL     1      42.981 -28.032   0.356  1.00  0.00     0.277 HD
BRANCH  12  15
HETATM   15  C   UNL     1      43.919 -29.227  -1.072  1.00  0.00     0.242 C 
BRANCH  15  16
HETATM   16  C   UNL     1      44.896 -28.444  -1.983  1.00  0.00     0.055 C 
HETATM   17  C   UNL     1      46.346 -28.776  -1.701  1.00  0.00    -0.025 A 
HETATM   18  C   UNL     1      47.026 -28.190  -0.626  1.00  0.00     0.010 A 
HETATM   19  C   UNL     1      47.016 -29.715  -2.503  1.00  0.00     0.041 A 
HETATM   20  C   UNL     1      48.348 -28.548  -0.359  1.00  0.00     0.001 A 
HETATM   21  C   UNL     1      48.997 -29.492  -1.155  1.00  0.00     0.002 A 
HETATM   22  C   UNL     1      48.331 -30.083  -2.227  1.00  0.00     0.030 A 
HETATM   23  N   UNL     1      46.326 -30.347  -3.542  1.00  0.00    -0.327 N 
HETATM   24  C   UNL     1      45.061 -29.992  -3.920  1.00  0.00     0.222 C 
HETATM   25  H   UNL     1      46.727 -31.165  -3.993  1.00  0.00     0.169 HD
HETATM   26  O   UNL     1      44.310 -30.780  -4.484  1.00  0.00    -0.273 OA
HETATM   27  C   UNL     1      44.602 -28.631  -3.469  1.00  0.00     0.114 C 
ENDBRANCH  15  16
ENDBRANCH  12  15
ENDBRANCH  11  12
ENDBRANCH  10  11
ENDBRANCH   1   9
TORSDOF 5
ENDMDL
MODEL 10
REMARK VINA RESULT:      -6.9     15.465     17.196
REMARK  5 active torsions:
REMARK  status: ('A' for Active; 'I' for Inactive)
REMARK    1  A    between atoms: C_9  and  C_10 
REMARK    2  A    between atoms: C_10  and  N_11 
REMARK    3  A    between atoms: N_11  and  C_14 
REMARK    4  A    between atoms: C_14  and  C_15 
REMARK    5  A    between atoms: C_16  and  C_17 
ROOT
HETATM    1  C   UNL     1      43.702 -30.131  -0.067  1.00  0.00    -0.036 A 
HETATM    2  C   UNL     1      43.598 -31.448   0.396  1.00  0.00     0.013 A 
HETATM    3  C   UNL     1      42.773 -31.747   1.484  1.00  0.00     0.023 A 
HETATM    4  C   UNL     1      42.052 -30.731   2.120  1.00  0.00     0.044 A 
HETATM    5  C   UNL     1      41.203 -31.041   3.234  1.00  0.00     0.099 C 
HETATM    6  N   UNL     1      40.515 -31.297   4.131  1.00  0.00    -0.191 NA
HETATM    7  C   UNL     1      42.160 -29.415   1.662  1.00  0.00     0.023 A 
HETATM    8  C   UNL     1      42.983 -29.115   0.572  1.00  0.00     0.013 A 
ENDROOT
BRANCH   1   9
HETATM    9  C   UNL     1      44.550 -29.834  -1.221  1.00  0.00     0.009 C 
HETATM   10  C   UNL     1      44.803 -28.567  -1.586  1.00  0.00     0.001 C 
BRANCH  10  11
HETATM   11  C   UNL     1      45.651 -28.184  -2.749  1.00  0.00     0.259 C 
BRANCH  11  12
HETATM   12  N   UNL     1      47.044 -27.910  -2.304  1.00  0.00    -0.071 N 
HETATM   13  H   UNL     1      46.983 -27.325  -1.455  1.00  0.00     0.277 HD
HETATM   14  H   UNL     1      47.493 -27.319  -3.018  1.00  0.00     0.277 HD
BRANCH  12  15
HETATM   15  C   UNL     1      47.875 -29.133  -2.064  1.00  0.00     0.242 C 
BRANCH  15  16
HETATM   16  C   UNL     1      48.695 -29.080  -0.751  1.00  0.00     0.055 C 
HETATM   17  C   UNL     1      47.840 -29.308   0.478  1.00  0.00    -0.025 A 
HETATM   18  C   UNL     1      47.072 -28.274   1.026  1.00  0.00     0.010 A 
HETATM   19  C   UNL     1      47.781 -30.585   1.060  1.00  0.00     0.041 A 
HETATM   20  C   UNL     1      46.256 -28.522   2.130  1.00  0.00     0.001 A 
HETATM   21  C   UNL     1      46.196 -29.798   2.691  1.00  0.00     0.002 A 
HETATM   22  C   UNL     1      46.956 -30.836   2.154  1.00  0.00     0.030 A 
HETATM   23  N   UNL     1      48.501 -31.637   0.483  1.00  0.00    -0.327 N 
HETATM   24  C   UNL     1      49.385 -31.459  -0.544  1.00  0.00     0.222 C 
HETATM   25  H   UNL     1      48.310 -32.595   0.764  1.00  0.00     0.169 HD
HETATM   26  O   UNL     1      49.665 -32.365  -1.320  1.00  0.00    -0.273 OA
HETATM   27  C   UNL     1      49.874 -30.050  -0.748  1.00  0.00     0.114 C 
ENDBRANCH  15  16
ENDBRANCH  12  15
ENDBRANCH  11  12
ENDBRANCH  10  11
ENDBRANCH   1   9
TORSDOF 5
ENDMDL
