MODEL 1
REMARK VINA RESULT:      -8.8      0.000      0.000
REMARK  3 active torsions:
REMARK  status: ('A' for Active; 'I' for Inactive)
REMARK    1  A    between atoms: O_2  and  C_3 
REMARK    2  A    between atoms: C_4  and  N_5 
REMARK       I    between atoms: N_5  and  C_6 
REMARK       I    between atoms: C_6  and  N_7 
REMARK    3  A    between atoms: C_8  and  C_9 
ROOT
HETATM    1  N   UNL     1      42.339 -15.933   3.974  1.00  0.00    -0.306 N 
HETATM    2  C   UNL     1      41.903 -15.050   3.005  1.00  0.00     0.323 C 
HETATM    3  N   UNL     1      41.021 -14.045   3.475  1.00  0.00    -0.324 N 
HETATM    4  C   UNL     1      40.980 -12.763   2.726  1.00  0.00     0.139 C 
HETATM    5  C   UNL     1      39.925 -11.753   3.244  1.00  0.00     0.032 C 
HETATM    6  C   UNL     1      39.855 -11.665   4.754  1.00  0.00     0.004 C 
HETATM    7  C   UNL     1      39.583 -13.052   5.299  1.00  0.00     0.020 C 
HETATM    8  C   UNL     1      40.716 -13.986   4.912  1.00  0.00     0.128 C 
HETATM    9  O   UNL     1      42.271 -15.141   1.838  1.00  0.00    -0.247 OA
HETATM   10  H   UNL     1      42.503 -15.556   4.896  1.00  0.00     0.171 HD
ENDROOT
BRANCH   4  11
HETATM   11  C   UNL     1      40.707 -12.921   1.255  1.00  0.00     0.033 A 
HETATM   12  N   UNL     1      39.898 -13.906   0.738  1.00  0.00    -0.357 N 
HETATM   13  H   UNL     1      39.492 -14.654   1.282  1.00  0.00     0.166 HD
HETATM   14  C   UNL     1      39.751 -13.751  -0.622  1.00  0.00     0.042 A 
HETATM   15  C   UNL     1      40.526 -12.653  -0.994  1.00  0.00    -0.007 A 
HETATM   16  C   UNL     1      39.010 -14.498  -1.545  1.00  0.00     0.030 A 
HETATM   17  C   UNL     1      41.129 -12.148   0.187  1.00  0.00     0.041 A 
HETATM   18  C   UNL     1      40.563 -12.277  -2.351  1.00  0.00     0.014 A 
HETATM   19  C   UNL     1      39.824 -13.009  -3.286  1.00  0.00     0.001 A 
HETATM   20  C   UNL     1      39.059 -14.102  -2.885  1.00  0.00     0.002 A 
ENDBRANCH   4  11
BRANCH   1  21
HETATM   21  C   UNL     1      43.013 -17.153   3.746  1.00  0.00     0.072 A 
HETATM   22  C   UNL     1      43.908 -17.598   4.735  1.00  0.00     0.095 A 
HETATM   23  C   UNL     1      44.539 -18.840   4.638  1.00  0.00     0.042 A 
HETATM   24  C   UNL     1      44.300 -19.634   3.518  1.00  0.00     0.045 A 
HETATM   25  C   UNL     1      43.436 -19.182   2.525  1.00  0.00     0.118 A 
HETATM   26  C   UNL     1      42.790 -17.951   2.625  1.00  0.00     0.074 A 
HETATM   27  F   UNL     1      43.206 -19.960   1.459  1.00  0.00    -0.206 F 
BRANCH  22  28
HETATM   28  O   UNL     1      44.150 -16.809   5.836  1.00  0.00    -0.354 OA
HETATM   29  C   UNL     1      43.587 -17.426   6.998  1.00  0.00     0.210 C 
ENDBRANCH  22  28
ENDBRANCH   1  21
TORSDOF 3
ENDMDL
MODEL 2
REMARK VINA RESULT:      -8.5      2.407      7.219
REMARK  3 active torsions:
REMARK  status: ('A' for Active; 'I' for Inactive)
REMARK    1  A    between atoms: O_2  and  C_3 
REMARK    2  A    between atoms: C_4  and  N_5 
REMARK       I    between atoms: N_5  and  C_6 
REMARK       I    between atoms: C_6  and  N_7 
REMARK    3  A    between atoms: C_8  and  C_9 
ROOT
HETATM    1  N   UNL     1      41.559 -13.122   2.522  1.00  0.00    -0.306 N 
HETATM    2  C   UNL     1      41.949 -14.068   3.449  1.00  0.00     0.323 C 
HETATM    3  N   UNL     1      42.825 -13.586   4.454  1.00  0.00    -0.324 N 
HETATM    4  C   UNL     1      42.819 -14.287   5.764  1.00  0.00     0.139 C 
HETATM    5  C   UNL     1      43.870 -13.762   6.774  1.00  0.00     0.032 C 
HETATM    6  C   UNL     1      43.983 -12.251   6.807  1.00  0.00     0.004 C 
HETATM    7  C   UNL     1      44.298 -11.769   5.407  1.00  0.00     0.020 C 
HETATM    8  C   UNL     1      43.172 -12.158   4.465  1.00  0.00     0.128 C 
HETATM    9  O   UNL     1      41.548 -15.227   3.395  1.00  0.00    -0.247 OA
HETATM   10  H   UNL     1      41.416 -12.182   2.861  1.00  0.00     0.171 HD
ENDROOT
BRANCH   4  11
HETATM   11  C   UNL     1      43.051 -15.770   5.667  1.00  0.00     0.033 A 
HETATM   12  N   UNL     1      43.750 -16.360   4.640  1.00  0.00    -0.357 N 
HETATM   13  H   UNL     1      44.089 -15.869   3.824  1.00  0.00     0.166 HD
HETATM   14  C   UNL     1      43.889 -17.712   4.860  1.00  0.00     0.042 A 
HETATM   15  C   UNL     1      43.221 -18.004   6.048  1.00  0.00    -0.007 A 
HETATM   16  C   UNL     1      44.538 -18.692   4.100  1.00  0.00     0.030 A 
HETATM   17  C   UNL     1      42.690 -16.782   6.539  1.00  0.00     0.041 A 
HETATM   18  C   UNL     1      43.198 -19.335   6.505  1.00  0.00     0.014 A 
HETATM   19  C   UNL     1      43.846 -20.327   5.761  1.00  0.00     0.001 A 
HETATM   20  C   UNL     1      44.506 -20.006   4.576  1.00  0.00     0.002 A 
ENDBRANCH   4  11
BRANCH   1  21
HETATM   21  C   UNL     1      40.902 -13.376   1.298  1.00  0.00     0.072 A 
HETATM   22  C   UNL     1      40.903 -12.354   0.333  1.00  0.00     0.095 A 
HETATM   23  C   UNL     1      40.365 -12.557  -0.940  1.00  0.00     0.042 A 
HETATM   24  C   UNL     1      39.785 -13.787  -1.241  1.00  0.00     0.045 A 
HETATM   25  C   UNL     1      39.758 -14.790  -0.276  1.00  0.00     0.118 A 
HETATM   26  C   UNL     1      40.309 -14.600   0.989  1.00  0.00     0.074 A 
HETATM   27  F   UNL     1      39.208 -15.973  -0.583  1.00  0.00    -0.206 F 
BRANCH  22  28
HETATM   28  O   UNL     1      41.468 -11.137   0.635  1.00  0.00    -0.354 OA
HETATM   29  C   UNL     1      40.557 -10.088   0.285  1.00  0.00     0.210 C 
ENDBRANCH  22  28
ENDBRANCH   1  21
TORSDOF 3
ENDMDL
MODEL 3
REMARK VINA RESULT:      -8.5      4.371      7.403
REMARK  3 active torsions:
REMARK  status: ('A' for Active; 'I' for Inactive)
REMARK    1  A    between atoms: O_2  and  C_3 
REMARK    2  A    between atoms: C_4  and  N_5 
REMARK       I    between atoms: N_5  and  C_6 
REMARK       I    between atoms: C_6  and  N_7 
REMARK    3  A    between atoms: C_8  and  C_9 
ROOT
HETATM    1  N   UNL     1      42.848 -11.207   5.988  1.00  0.00    -0.306 N 
HETATM    2  C   UNL     1      42.811 -12.455   5.398  1.00  0.00     0.323 C 
HETATM    3  N   UNL     1      41.580 -12.777   4.773  1.00  0.00    -0.324 N 
HETATM    4  C   UNL     1      41.614 -13.750   3.651  1.00  0.00     0.139 C 
HETATM    5  C   UNL     1      40.220 -14.122   3.084  1.00  0.00     0.032 C 
HETATM    6  C   UNL     1      39.287 -12.938   2.935  1.00  0.00     0.004 C 
HETATM    7  C   UNL     1      39.155 -12.264   4.285  1.00  0.00     0.020 C 
HETATM    8  C   UNL     1      40.514 -11.766   4.744  1.00  0.00     0.128 C 
HETATM    9  O   UNL     1      43.782 -13.205   5.415  1.00  0.00    -0.247 OA
HETATM   10  H   UNL     1      42.348 -10.465   5.521  1.00  0.00     0.171 HD
ENDROOT
BRANCH   4  11
HETATM   11  C   UNL     1      42.278 -15.056   3.991  1.00  0.00     0.033 A 
HETATM   12  N   UNL     1      42.219 -15.631   5.239  1.00  0.00    -0.357 N 
HETATM   13  H   UNL     1      41.807 -15.192   6.051  1.00  0.00     0.166 HD
HETATM   14  C   UNL     1      42.831 -16.865   5.236  1.00  0.00     0.042 A 
HETATM   15  C   UNL     1      43.334 -17.068   3.952  1.00  0.00    -0.007 A 
HETATM   16  C   UNL     1      42.987 -17.802   6.264  1.00  0.00     0.030 A 
HETATM   17  C   UNL     1      42.992 -15.925   3.183  1.00  0.00     0.041 A 
HETATM   18  C   UNL     1      44.024 -18.264   3.674  1.00  0.00     0.014 A 
HETATM   19  C   UNL     1      44.185 -19.213   4.688  1.00  0.00     0.001 A 
HETATM   20  C   UNL     1      43.672 -18.983   5.963  1.00  0.00     0.002 A 
ENDBRANCH   4  11
BRANCH   1  21
HETATM   21  C   UNL     1      43.841 -10.734   6.875  1.00  0.00     0.072 A 
HETATM   22  C   UNL     1      43.415 -10.022   8.010  1.00  0.00     0.095 A 
HETATM   23  C   UNL     1      44.321  -9.608   8.988  1.00  0.00     0.042 A 
HETATM   24  C   UNL     1      45.677  -9.876   8.813  1.00  0.00     0.045 A 
HETATM   25  C   UNL     1      46.102 -10.556   7.675  1.00  0.00     0.118 A 
HETATM   26  C   UNL     1      45.201 -10.988   6.704  1.00  0.00     0.074 A 
HETATM   27  F   UNL     1      47.408 -10.819   7.524  1.00  0.00    -0.206 F 
BRANCH  22  28
HETATM   28  O   UNL     1      42.078  -9.750   8.177  1.00  0.00    -0.354 OA
HETATM   29  C   UNL     1      41.894  -8.975   9.367  1.00  0.00     0.210 C 
ENDBRANCH  22  28
ENDBRANCH   1  21
TORSDOF 3
ENDMDL
MODEL 4
REMARK VINA RESULT:      -8.4      4.291      8.115
REMARK  3 active torsions:
REMARK  status: ('A' for Active; 'I' for Inactive)
REMARK    1  A    between atoms: O_2  and  C_3 
REMARK    2  A    between atoms: C_4  and  N_5 
REMARK       I    between atoms: N_5  and  C_6 
REMARK       I    between atoms: C_6  and  N_7 
REMARK    3  A    between atoms: C_8  and  C_9 
ROOT
HETATM    1  N   UNL     1      41.579 -13.155   2.823  1.00  0.00    -0.306 N 
HETATM    2  C   UNL     1      42.334 -12.873   3.943  1.00  0.00     0.323 C 
HETATM    3  N   UNL     1      42.060 -13.696   5.064  1.00  0.00    -0.324 N 
HETATM    4  C   UNL     1      43.151 -13.897   6.052  1.00  0.00     0.139 C 
HETATM    5  C   UNL     1      42.745 -14.730   7.294  1.00  0.00     0.032 C 
HETATM    6  C   UNL     1      41.888 -15.936   6.966  1.00  0.00     0.004 C 
HETATM    7  C   UNL     1      40.663 -15.457   6.216  1.00  0.00     0.020 C 
HETATM    8  C   UNL     1      41.084 -14.786   4.921  1.00  0.00     0.128 C 
HETATM    9  O   UNL     1      43.179 -11.983   3.944  1.00  0.00    -0.247 OA
HETATM   10  H   UNL     1      41.358 -14.125   2.652  1.00  0.00     0.171 HD
ENDROOT
BRANCH   4  11
HETATM   11  C   UNL     1      43.735 -12.619   6.590  1.00  0.00     0.033 A 
HETATM   12  N   UNL     1      42.974 -11.614   7.139  1.00  0.00    -0.357 N 
HETATM   13  H   UNL     1      41.964 -11.604   7.148  1.00  0.00     0.166 HD
HETATM   14  C   UNL     1      43.777 -10.612   7.635  1.00  0.00     0.042 A 
HETATM   15  C   UNL     1      45.096 -10.970   7.358  1.00  0.00    -0.007 A 
HETATM   16  C   UNL     1      43.442  -9.421   8.290  1.00  0.00     0.030 A 
HETATM   17  C   UNL     1      45.057 -12.223   6.693  1.00  0.00     0.041 A 
HETATM   18  C   UNL     1      46.133 -10.103   7.754  1.00  0.00     0.014 A 
HETATM   19  C   UNL     1      45.815  -8.912   8.415  1.00  0.00     0.001 A 
HETATM   20  C   UNL     1      44.488  -8.579   8.679  1.00  0.00     0.002 A 
ENDBRANCH   4  11
BRANCH   1  21
HETATM   21  C   UNL     1      41.470 -12.350   1.667  1.00  0.00     0.072 A 
HETATM   22  C   UNL     1      41.072 -12.975   0.472  1.00  0.00     0.095 A 
HETATM   23  C   UNL     1      40.843 -12.238  -0.691  1.00  0.00     0.042 A 
HETATM   24  C   UNL     1      41.049 -10.860  -0.671  1.00  0.00     0.045 A 
HETATM   25  C   UNL     1      41.470 -10.244   0.504  1.00  0.00     0.118 A 
HETATM   26  C   UNL     1      41.683 -10.972   1.672  1.00  0.00     0.074 A 
HETATM   27  F   UNL     1      41.653  -8.917   0.513  1.00  0.00    -0.206 F 
BRANCH  22  28
HETATM   28  O   UNL     1      40.879 -14.337   0.451  1.00  0.00    -0.354 OA
HETATM   29  C   UNL     1      39.833 -14.656  -0.473  1.00  0.00     0.210 C 
ENDBRANCH  22  28
ENDBRANCH   1  21
TORSDOF 3
ENDMDL
MODEL 5
REMARK VINA RESULT:      -8.3     14.793     16.887
REMARK  3 active torsions:
REMARK  status: ('A' for Active; 'I' for Inactive)
REMARK    1  A    between atoms: O_2  and  C_3 
REMARK    2  A    between atoms: C_4  and  N_5 
REMARK       I    between atoms: N_5  and  C_6 
REMARK       I    between atoms: C_6  and  N_7 
REMARK    3  A    between atoms: C_8  and  C_9 
ROOT
HETATM    1  N   UNL     1      42.978 -30.323   0.713  1.00  0.00    -0.306 N 
HETATM    2  C   UNL     1      44.286 -29.892   0.822  1.00  0.00     0.323 C 
HETATM    3  N   UNL     1      44.864 -29.443  -0.392  1.00  0.00    -0.324 N 
HETATM    4  C   UNL     1      45.962 -28.447  -0.302  1.00  0.00     0.139 C 
HETATM    5  C   UNL     1      46.605 -28.079  -1.663  1.00  0.00     0.032 C 
HETATM    6  C   UNL     1      45.599 -27.890  -2.781  1.00  0.00     0.004 C 
HETATM    7  C   UNL     1      44.778 -29.157  -2.900  1.00  0.00     0.020 C 
HETATM    8  C   UNL     1      44.031 -29.408  -1.602  1.00  0.00     0.128 C 
HETATM    9  O   UNL     1      44.877 -29.896   1.897  1.00  0.00    -0.247 OA
HETATM   10  H   UNL     1      42.385 -29.826   0.064  1.00  0.00     0.171 HD
ENDROOT
BRANCH   4  11
HETATM   11  C   UNL     1      47.101 -28.868   0.587  1.00  0.00     0.033 A 
HETATM   12  N   UNL     1      47.267 -28.404   1.871  1.00  0.00    -0.357 N 
HETATM   13  H   UNL     1      46.702 -27.682   2.294  1.00  0.00     0.166 HD
HETATM   14  C   UNL     1      48.332 -29.030   2.479  1.00  0.00     0.042 A 
HETATM   15  C   UNL     1      48.890 -29.894   1.539  1.00  0.00    -0.007 A 
HETATM   16  C   UNL     1      48.847 -28.889   3.773  1.00  0.00     0.030 A 
HETATM   17  C   UNL     1      48.118 -29.777   0.354  1.00  0.00     0.041 A 
HETATM   18  C   UNL     1      50.014 -30.661   1.904  1.00  0.00     0.014 A 
HETATM   19  C   UNL     1      50.539 -30.537   3.194  1.00  0.00     0.001 A 
HETATM   20  C   UNL     1      49.961 -29.664   4.114  1.00  0.00     0.002 A 
ENDBRANCH   4  11
BRANCH   1  21
HETATM   21  C   UNL     1      42.252 -31.037   1.692  1.00  0.00     0.072 A 
HETATM   22  C   UNL     1      42.319 -32.441   1.658  1.00  0.00     0.095 A 
HETATM   23  C   UNL     1      41.715 -33.221   2.646  1.00  0.00     0.042 A 
HETATM   24  C   UNL     1      41.003 -32.591   3.664  1.00  0.00     0.045 A 
HETATM   25  C   UNL     1      40.912 -31.202   3.683  1.00  0.00     0.118 A 
HETATM   26  C   UNL     1      41.528 -30.418   2.709  1.00  0.00     0.074 A 
HETATM   27  F   UNL     1      40.234 -30.607   4.674  1.00  0.00    -0.206 F 
BRANCH  22  28
HETATM   28  O   UNL     1      43.015 -33.062   0.647  1.00  0.00    -0.354 OA
HETATM   29  C   UNL     1      42.108 -33.821  -0.160  1.00  0.00     0.210 C 
ENDBRANCH  22  28
ENDBRANCH   1  21
TORSDOF 3
ENDMDL
MODEL 6
REMARK VINA RESULT:      -8.2      2.126      6.809
REMARK  3 active torsions:
REMARK  status: ('A' for Active; 'I' for Inactive)
REMARK    1  A    between atoms: O_2  and  C_3 
REMARK    2  A    between atoms: C_4  and  N_5 
REMARK       I    between atoms: N_5  and  C_6 
REMARK       I    between atoms: C_6  and  N_7 
REMARK    3  A    between atoms: C_8  and  C_9 
ROOT
HETATM    1  N   UNL     1      40.058 -12.763   1.078  1.00  0.00    -0.306 N 
HETATM    2  C   UNL     1      40.491 -13.717   1.977  1.00  0.00     0.323 C 
HETATM    3  N   UNL     1      40.482 -13.300   3.332  1.00  0.00    -0.324 N 
HETATM    4  C   UNL     1      40.337 -14.350   4.373  1.00  0.00     0.139 C 
HETATM    5  C   UNL     1      40.432 -13.825   5.828  1.00  0.00     0.032 C 
HETATM    6  C   UNL     1      39.687 -12.527   6.058  1.00  0.00     0.004 C 
HETATM    7  C   UNL     1      40.215 -11.497   5.081  1.00  0.00     0.020 C 
HETATM    8  C   UNL     1      39.963 -11.964   3.658  1.00  0.00     0.128 C 
HETATM    9  O   UNL     1      40.841 -14.835   1.612  1.00  0.00    -0.247 OA
HETATM   10  H   UNL     1      39.309 -12.156   1.379  1.00  0.00     0.171 HD
ENDROOT
BRANCH   4  11
HETATM   11  C   UNL     1      41.348 -15.459   4.271  1.00  0.00     0.033 A 
HETATM   12  N   UNL     1      41.292 -16.446   3.315  1.00  0.00    -0.357 N 
HETATM   13  H   UNL     1      40.531 -16.566   2.662  1.00  0.00     0.166 HD
HETATM   14  C   UNL     1      42.395 -17.266   3.398  1.00  0.00     0.042 A 
HETATM   15  C   UNL     1      43.162 -16.812   4.470  1.00  0.00    -0.007 A 
HETATM   16  C   UNL     1      42.763 -18.372   2.623  1.00  0.00     0.030 A 
HETATM   17  C   UNL     1      42.492 -15.686   5.016  1.00  0.00     0.041 A 
HETATM   18  C   UNL     1      44.357 -17.488   4.785  1.00  0.00     0.014 A 
HETATM   19  C   UNL     1      44.742 -18.592   4.018  1.00  0.00     0.001 A 
HETATM   20  C   UNL     1      43.955 -19.024   2.952  1.00  0.00     0.002 A 
ENDBRANCH   4  11
BRANCH   1  21
HETATM   21  C   UNL     1      40.193 -12.820  -0.327  1.00  0.00     0.072 A 
HETATM   22  C   UNL     1      40.961 -11.820  -0.950  1.00  0.00     0.095 A 
HETATM   23  C   UNL     1      41.230 -11.858  -2.319  1.00  0.00     0.042 A 
HETATM   24  C   UNL     1      40.693 -12.890  -3.086  1.00  0.00     0.045 A 
HETATM   25  C   UNL     1      39.909 -13.865  -2.475  1.00  0.00     0.118 A 
HETATM   26  C   UNL     1      39.653 -13.842  -1.106  1.00  0.00     0.074 A 
HETATM   27  F   UNL     1      39.409 -14.860  -3.221  1.00  0.00    -0.206 F 
BRANCH  22  28
HETATM   28  O   UNL     1      41.482 -10.796  -0.193  1.00  0.00    -0.354 OA
HETATM   29  C   UNL     1      41.832  -9.702  -1.048  1.00  0.00     0.210 C 
ENDBRANCH  22  28
ENDBRANCH   1  21
TORSDOF 3
ENDMDL
MODEL 7
REMARK VINA RESULT:      -8.2      4.224      8.170
REMARK  3 active torsions:
REMARK  status: ('A' for Active; 'I' for Inactive)
REMARK    1  A    between atoms: O_2  and  C_3 
REMARK    2  A    between atoms: C_4  and  N_5 
REMARK       I    between atoms: N_5  and  C_6 
REMARK       I    between atoms: C_6  and  N_7 
REMARK    3  A    between atoms: C_8  and  C_9 
ROOT
HETATM    1  N   UNL     1      40.852 -13.077   3.227  1.00  0.00    -0.306 N 
HETATM    2  C   UNL     1      41.784 -12.833   4.216  1.00  0.00     0.323 C 
HETATM    3  N   UNL     1      41.736 -13.735   5.309  1.00  0.00    -0.324 N 
HETATM    4  C   UNL     1      42.990 -13.951   6.076  1.00  0.00     0.139 C 
HETATM    5  C   UNL     1      42.833 -14.875   7.310  1.00  0.00     0.032 C 
HETATM    6  C   UNL     1      41.969 -16.093   7.054  1.00  0.00     0.004 C 
HETATM    7  C   UNL     1      40.617 -15.621   6.563  1.00  0.00     0.020 C 
HETATM    8  C   UNL     1      40.784 -14.853   5.263  1.00  0.00     0.128 C 
HETATM    9  O   UNL     1      42.589 -11.911   4.130  1.00  0.00    -0.247 OA
HETATM   10  H   UNL     1      40.634 -14.043   3.031  1.00  0.00     0.171 HD
ENDROOT
BRANCH   4  11
HETATM   11  C   UNL     1      43.620 -12.685   6.590  1.00  0.00     0.033 A 
HETATM   12  N   UNL     1      42.902 -11.667   7.172  1.00  0.00    -0.357 N 
HETATM   13  H   UNL     1      41.894 -11.637   7.224  1.00  0.00     0.166 HD
HETATM   14  C   UNL     1      43.745 -10.681   7.635  1.00  0.00     0.042 A 
HETATM   15  C   UNL     1      45.043 -11.064   7.302  1.00  0.00    -0.007 A 
HETATM   16  C   UNL     1      43.460  -9.486   8.305  1.00  0.00     0.030 A 
HETATM   17  C   UNL     1      44.953 -12.315   6.638  1.00  0.00     0.041 A 
HETATM   18  C   UNL     1      46.113 -10.218   7.655  1.00  0.00     0.014 A 
HETATM   19  C   UNL     1      45.846  -9.022   8.330  1.00  0.00     0.001 A 
HETATM   20  C   UNL     1      44.538  -8.665   8.649  1.00  0.00     0.002 A 
ENDBRANCH   4  11
BRANCH   1  21
HETATM   21  C   UNL     1      40.518 -12.208   2.165  1.00  0.00     0.072 A 
HETATM   22  C   UNL     1      39.584 -11.189   2.425  1.00  0.00     0.095 A 
HETATM   23  C   UNL     1      39.274 -10.226   1.463  1.00  0.00     0.042 A 
HETATM   24  C   UNL     1      39.877 -10.302   0.210  1.00  0.00     0.045 A 
HETATM   25  C   UNL     1      40.780 -11.327  -0.058  1.00  0.00     0.118 A 
HETATM   26  C   UNL     1      41.108 -12.280   0.904  1.00  0.00     0.074 A 
HETATM   27  F   UNL     1      41.363 -11.382  -1.264  1.00  0.00    -0.206 F 
BRANCH  22  28
HETATM   28  O   UNL     1      38.982 -11.121   3.660  1.00  0.00    -0.354 OA
HETATM   29  C   UNL     1      38.513  -9.788   3.888  1.00  0.00     0.210 C 
ENDBRANCH  22  28
ENDBRANCH   1  21
TORSDOF 3
ENDMDL
MODEL 8
REMARK VINA RESULT:      -8.0     15.092     18.344
REMARK  3 active torsions:
REMARK  status: ('A' for Active; 'I' for Inactive)
REMARK    1  A    between atoms: O_2  and  C_3 
REMARK    2  A    between atoms: C_4  and  N_5 
REMARK       I    between atoms: N_5  and  C_6 
REMARK       I    between atoms: C_6  and  N_7 
REMARK    3  A    between atoms: C_8  and  C_9 
ROOT
HETATM    1  N   UNL     1      46.535 -29.298  -0.110  1.00  0.00    -0.306 N 
HETATM    2  C   UNL     1      47.658 -30.070   0.112  1.00  0.00     0.323 C 
HETATM    3  N   UNL     1      48.358 -29.767   1.307  1.00  0.00    -0.324 N 
HETATM    4  C   UNL     1      49.157 -30.854   1.929  1.00  0.00     0.139 C 
HETATM    5  C   UNL     1      49.967 -30.419   3.177  1.00  0.00     0.032 C 
HETATM    6  C   UNL     1      49.199 -29.511   4.115  1.00  0.00     0.004 C 
HETATM    7  C   UNL     1      48.732 -28.303   3.331  1.00  0.00     0.020 C 
HETATM    8  C   UNL     1      47.808 -28.746   2.210  1.00  0.00     0.128 C 
HETATM    9  O   UNL     1      47.999 -30.951  -0.671  1.00  0.00    -0.247 OA
HETATM   10  H   UNL     1      45.993 -29.036   0.700  1.00  0.00     0.171 HD
ENDROOT
BRANCH   4  11
HETATM   11  C   UNL     1      50.152 -31.493   0.999  1.00  0.00     0.033 A 
HETATM   12  N   UNL     1      50.732 -30.830  -0.058  1.00  0.00    -0.357 N 
HETATM   13  H   UNL     1      50.480 -29.898  -0.354  1.00  0.00     0.166 HD
HETATM   14  C   UNL     1      51.671 -31.627  -0.674  1.00  0.00     0.042 A 
HETATM   15  C   UNL     1      51.663 -32.855  -0.015  1.00  0.00    -0.007 A 
HETATM   16  C   UNL     1      52.511 -31.361  -1.762  1.00  0.00     0.030 A 
HETATM   17  C   UNL     1      50.699 -32.764   1.024  1.00  0.00     0.041 A 
HETATM   18  C   UNL     1      52.534 -33.869  -0.456  1.00  0.00     0.014 A 
HETATM   19  C   UNL     1      53.384 -33.619  -1.538  1.00  0.00     0.001 A 
HETATM   20  C   UNL     1      53.371 -32.382  -2.179  1.00  0.00     0.002 A 
ENDBRANCH   4  11
BRANCH   1  21
HETATM   21  C   UNL     1      45.805 -29.218  -1.317  1.00  0.00     0.072 A 
HETATM   22  C   UNL     1      44.793 -30.171  -1.531  1.00  0.00     0.095 A 
HETATM   23  C   UNL     1      43.958 -30.103  -2.647  1.00  0.00     0.042 A 
HETATM   24  C   UNL     1      44.157 -29.090  -3.582  1.00  0.00     0.045 A 
HETATM   25  C   UNL     1      45.177 -28.163  -3.385  1.00  0.00     0.118 A 
HETATM   26  C   UNL     1      46.002 -28.214  -2.264  1.00  0.00     0.074 A 
HETATM   27  F   UNL     1      45.351 -27.186  -4.286  1.00  0.00    -0.206 F 
BRANCH  22  28
HETATM   28  O   UNL     1      44.603 -31.176  -0.611  1.00  0.00    -0.354 OA
HETATM   29  C   UNL     1      44.010 -32.307  -1.258  1.00  0.00     0.210 C 
ENDBRANCH  22  28
ENDBRANCH   1  21
TORSDOF 3
ENDMDL
MODEL 9
REMARK VINA RESULT:      -7.9      2.613      6.983
REMARK  3 active torsions:
REMARK  status: ('A' for Active; 'I' for Inactive)
REMARK    1  A    between atoms: O_2  and  C_3 
REMARK    2  A    between atoms: C_4  and  N_5 
REMARK       I    between atoms: N_5  and  C_6 
REMARK       I    between atoms: C_6  and  N_7 
REMARK    3  A    between atoms: C_8  and  C_9 
ROOT
HETATM    1  N   UNL     1      39.397 -12.033   1.064  1.00  0.00    -0.306 N 
HETATM    2  C   UNL     1      39.767 -12.581   2.276  1.00  0.00     0.323 C 
HETATM    3  N   UNL     1      39.554 -11.739   3.396  1.00  0.00    -0.324 N 
HETATM    4  C   UNL     1      39.339 -12.389   4.714  1.00  0.00     0.139 C 
HETATM    5  C   UNL     1      39.209 -11.402   5.901  1.00  0.00     0.032 C 
HETATM    6  C   UNL     1      38.359 -10.186   5.592  1.00  0.00     0.004 C 
HETATM    7  C   UNL     1      38.945  -9.493   4.380  1.00  0.00     0.020 C 
HETATM    8  C   UNL     1      38.913 -10.432   3.188  1.00  0.00     0.128 C 
HETATM    9  O   UNL     1      40.232 -13.714   2.356  1.00  0.00    -0.247 OA
HETATM   10  H   UNL     1      38.578 -11.443   1.060  1.00  0.00     0.171 HD
ENDROOT
BRANCH   4  11
HETATM   11  C   UNL     1      40.424 -13.357   5.104  1.00  0.00     0.033 A 
HETATM   12  N   UNL     1      40.288 -14.722   5.007  1.00  0.00    -0.357 N 
HETATM   13  H   UNL     1      39.431 -15.194   4.755  1.00  0.00     0.166 HD
HETATM   14  C   UNL     1      41.467 -15.352   5.338  1.00  0.00     0.042 A 
HETATM   15  C   UNL     1      42.375 -14.358   5.698  1.00  0.00    -0.007 A 
HETATM   16  C   UNL     1      41.793 -16.713   5.359  1.00  0.00     0.030 A 
HETATM   17  C   UNL     1      41.708 -13.112   5.558  1.00  0.00     0.041 A 
HETATM   18  C   UNL     1      43.673 -14.734   6.095  1.00  0.00     0.014 A 
HETATM   19  C   UNL     1      44.017 -16.089   6.116  1.00  0.00     0.001 A 
HETATM   20  C   UNL     1      43.089 -17.062   5.752  1.00  0.00     0.002 A 
ENDBRANCH   4  11
BRANCH   1  21
HETATM   21  C   UNL     1      39.719 -12.543  -0.214  1.00  0.00     0.072 A 
HETATM   22  C   UNL     1      40.729 -11.888  -0.941  1.00  0.00     0.095 A 
HETATM   23  C   UNL     1      41.179 -12.384  -2.165  1.00  0.00     0.042 A 
HETATM   24  C   UNL     1      40.588 -13.531  -2.690  1.00  0.00     0.045 A 
HETATM   25  C   UNL     1      39.568 -14.164  -1.984  1.00  0.00     0.118 A 
HETATM   26  C   UNL     1      39.127 -13.684  -0.753  1.00  0.00     0.074 A 
HETATM   27  F   UNL     1      39.016 -15.273  -2.494  1.00  0.00    -0.206 F 
BRANCH  22  28
HETATM   28  O   UNL     1      41.305 -10.750  -0.426  1.00  0.00    -0.354 OA
HETATM   29  C   UNL     1      41.589  -9.835  -1.491  1.00  0.00     0.210 C 
ENDBRANCH  22  28
ENDBRANCH   1  21
TORSDOF 3
ENDMDL
MODEL 10
REMARK VINA RESULT:      -7.8      4.046      8.506
REMARK  3 active torsions:
REMARK  status: ('A' for Active; 'I' for Inactive)
REMARK    1  A    between atoms: O_2  and  C_3 
REMARK    2  A    between atoms: C_4  and  N_5 
REMARK       I    between atoms: N_5  and  C_6 
REMARK       I    between atoms: C_6  and  N_7 
REMARK    3  A    between atoms: C_8  and  C_9 
ROOT
HETATM    1  N   UNL     1      39.787 -10.414  -0.796  1.00  0.00    -0.306 N 
HETATM    2  C   UNL     1      40.123 -11.691  -0.392  1.00  0.00     0.323 C 
HETATM    3  N   UNL     1      39.414 -12.725  -1.052  1.00  0.00    -0.324 N 
HETATM    4  C   UNL     1      40.073 -14.053  -1.155  1.00  0.00     0.139 C 
HETATM    5  C   UNL     1      39.197 -15.154  -1.803  1.00  0.00     0.032 C 
HETATM    6  C   UNL     1      38.421 -14.681  -3.015  1.00  0.00     0.004 C 
HETATM    7  C   UNL     1      37.574 -13.495  -2.603  1.00  0.00     0.020 C 
HETATM    8  C   UNL     1      38.470 -12.368  -2.121  1.00  0.00     0.128 C 
HETATM    9  O   UNL     1      40.979 -11.891   0.464  1.00  0.00    -0.247 OA
HETATM   10  H   UNL     1      39.567 -10.286  -1.773  1.00  0.00     0.171 HD
ENDROOT
BRANCH   4  11
HETATM   11  C   UNL     1      40.527 -14.616   0.165  1.00  0.00     0.033 A 
HETATM   12  N   UNL     1      41.834 -14.581   0.591  1.00  0.00    -0.357 N 
HETATM   13  H   UNL     1      42.610 -14.261   0.028  1.00  0.00     0.166 HD
HETATM   14  C   UNL     1      41.941 -15.077   1.871  1.00  0.00     0.042 A 
HETATM   15  C   UNL     1      40.666 -15.480   2.262  1.00  0.00    -0.007 A 
HETATM   16  C   UNL     1      43.061 -15.210   2.701  1.00  0.00     0.030 A 
HETATM   17  C   UNL     1      39.789 -15.197   1.181  1.00  0.00     0.041 A 
HETATM   18  C   UNL     1      40.492 -16.040   3.542  1.00  0.00     0.014 A 
HETATM   19  C   UNL     1      41.599 -16.176   4.386  1.00  0.00     0.001 A 
HETATM   20  C   UNL     1      42.863 -15.765   3.969  1.00  0.00     0.002 A 
ENDBRANCH   4  11
BRANCH   1  21
HETATM   21  C   UNL     1      40.150  -9.212  -0.148  1.00  0.00     0.072 A 
HETATM   22  C   UNL     1      41.201  -8.463  -0.704  1.00  0.00     0.095 A 
HETATM   23  C   UNL     1      41.557  -7.216  -0.186  1.00  0.00     0.042 A 
HETATM   24  C   UNL     1      40.876  -6.725   0.925  1.00  0.00     0.045 A 
HETATM   25  C   UNL     1      39.853  -7.480   1.494  1.00  0.00     0.118 A 
HETATM   26  C   UNL     1      39.482  -8.716   0.971  1.00  0.00     0.074 A 
HETATM   27  F   UNL     1      39.197  -6.991   2.556  1.00  0.00    -0.206 F 
BRANCH  22  28
HETATM   28  O   UNL     1      41.879  -8.953  -1.796  1.00  0.00    -0.354 OA
HETATM   29  C   UNL     1      42.179  -7.878  -2.693  1.00  0.00     0.210 C 
ENDBRANCH  22  28
ENDBRANCH   1  21
TORSDOF 3
ENDMDL
