MODEL 1
REMARK VINA RESULT:      -9.6      0.000      0.000
REMARK  6 active torsions:
REMARK  status: ('A' for Active; 'I' for Inactive)
REMARK    1  A    between atoms: C_2  and  C_3 
REMARK    2  A    between atoms: C_3  and  N_4 
REMARK    3  A    between atoms: C_10  and  S_11 
REMARK    4  A    between atoms: S_11  and  C_12 
REMARK    5  A    between atoms: C_12  and  C_13 
REMARK       I    between atoms: C_13  and  N_14 
REMARK    6  A    between atoms: N_14  and  C_15 
ROOT
HETATM    1  N   UNL     1      44.518 -10.239   8.655  1.00  0.00    -0.063 N 
HETATM    2  H   UNL     1      44.483 -11.132   9.162  1.00  0.00     0.280 HD
HETATM    3  C   UNL     1      43.160 -10.073   7.982  1.00  0.00     0.281 C 
HETATM    4  C   UNL     1      43.027 -10.840   6.712  1.00  0.00     0.060 A 
HETATM    5  C   UNL     1      44.023 -11.498   6.102  1.00  0.00     0.052 A 
HETATM    6  N   UNL     1      43.883 -12.161   4.910  1.00  0.00    -0.228 NA
HETATM    7  C   UNL     1      42.715 -12.159   4.360  1.00  0.00     0.169 A 
HETATM    8  N   UNL     1      41.626 -11.549   4.899  1.00  0.00    -0.302 N 
HETATM    9  C   UNL     1      41.701 -10.851   6.065  1.00  0.00     0.257 A 
HETATM   10  O   UNL     1      40.761 -10.249   6.566  1.00  0.00    -0.267 OA
HETATM   11  C   UNL     1      45.409 -11.500   6.691  1.00  0.00     0.088 C 
HETATM   12  C   UNL     1      45.641 -10.329   7.644  1.00  0.00     0.241 C 
HETATM   13  H   UNL     1      40.742 -11.584   4.411  1.00  0.00     0.171 HD
ENDROOT
BRANCH   7  14
HETATM   14  S   UNL     1      42.389 -12.931   2.840  1.00  0.00    -0.083 SA
BRANCH  14  15
HETATM   15  C   UNL     1      40.935 -13.915   3.320  1.00  0.00     0.185 C 
BRANCH  15  16
HETATM   16  C   UNL     1      41.235 -15.382   3.574  1.00  0.00     0.232 C 
HETATM   17  N   UNL     1      42.382 -15.860   2.966  1.00  0.00    -0.324 N 
HETATM   18  H   UNL     1      42.658 -15.376   2.119  1.00  0.00     0.169 HD
HETATM   19  O   UNL     1      40.495 -16.034   4.307  1.00  0.00    -0.272 OA
BRANCH  17  20
HETATM   20  C   UNL     1      42.991 -17.107   3.229  1.00  0.00     0.076 A 
HETATM   21  C   UNL     1      43.768 -17.380   4.367  1.00  0.00     0.143 A 
HETATM   22  F   UNL     1      44.073 -16.416   5.248  1.00  0.00    -0.204 F 
HETATM   23  C   UNL     1      44.343 -18.636   4.567  1.00  0.00     0.047 A 
HETATM   24  C   UNL     1      44.162 -19.640   3.618  1.00  0.00     0.045 A 
HETATM   25  C   UNL     1      43.423 -19.363   2.474  1.00  0.00     0.118 A 
HETATM   26  F   UNL     1      43.260 -20.320   1.550  1.00  0.00    -0.206 F 
HETATM   27  C   UNL     1      42.849 -18.110   2.264  1.00  0.00     0.074 A 
ENDBRANCH  17  20
ENDBRANCH  15  16
ENDBRANCH  14  15
ENDBRANCH   7  14
BRANCH   1  28
HETATM   28  C   UNL     1      44.795  -9.168   9.685  1.00  0.00     0.273 C 
BRANCH  28  29
HETATM   29  C   UNL     1      43.873  -9.214  10.871  1.00  0.00    -0.030 A 
HETATM   30  C   UNL     1      43.669 -10.426  11.574  1.00  0.00     0.012 A 
HETATM   31  C   UNL     1      42.796 -10.487  12.665  1.00  0.00     0.040 A 
HETATM   32  C   UNL     1      42.143  -9.332  13.032  1.00  0.00     0.105 A 
HETATM   33  C   UNL     1      42.339  -8.150  12.362  1.00  0.00     0.105 A 
HETATM   34  O   UNL     1      41.253  -9.209  14.051  1.00  0.00    -0.323 OA
HETATM   35  C   UNL     1      43.194  -8.053  11.284  1.00  0.00     0.048 A 
HETATM   36  O   UNL     1      41.599  -7.132  12.875  1.00  0.00    -0.323 OA
HETATM   37  C   UNL     1      40.882  -7.819  13.929  1.00  0.00     0.352 A 
ENDBRANCH  28  29
ENDBRANCH   1  28
TORSDOF 6
ENDMDL
MODEL 2
REMARK VINA RESULT:      -9.5      3.996     10.724
REMARK  6 active torsions:
REMARK  status: ('A' for Active; 'I' for Inactive)
REMARK    1  A    between atoms: C_2  and  C_3 
REMARK    2  A    between atoms: C_3  and  N_4 
REMARK    3  A    between atoms: C_10  and  S_11 
REMARK    4  A    between atoms: S_11  and  C_12 
REMARK    5  A    between atoms: C_12  and  C_13 
REMARK       I    between atoms: C_13  and  N_14 
REMARK    6  A    between atoms: N_14  and  C_15 
ROOT
HETATM    1  N   UNL     1      41.998 -15.303   3.113  1.00  0.00    -0.063 N 
HETATM    2  H   UNL     1      41.400 -16.034   3.519  1.00  0.00     0.280 HD
HETATM    3  C   UNL     1      42.606 -14.543   4.288  1.00  0.00     0.281 C 
HETATM    4  C   UNL     1      41.689 -13.529   4.879  1.00  0.00     0.060 A 
HETATM    5  C   UNL     1      40.501 -13.173   4.370  1.00  0.00     0.052 A 
HETATM    6  N   UNL     1      39.696 -12.205   4.911  1.00  0.00    -0.228 NA
HETATM    7  C   UNL     1      40.108 -11.619   5.985  1.00  0.00     0.169 A 
HETATM    8  N   UNL     1      41.281 -11.914   6.606  1.00  0.00    -0.302 N 
HETATM    9  C   UNL     1      42.139 -12.845   6.107  1.00  0.00     0.257 A 
HETATM   10  O   UNL     1      43.224 -13.114   6.604  1.00  0.00    -0.267 OA
HETATM   11  C   UNL     1      39.995 -13.808   3.100  1.00  0.00     0.088 C 
HETATM   12  C   UNL     1      41.120 -14.411   2.261  1.00  0.00     0.241 C 
HETATM   13  H   UNL     1      41.544 -11.412   7.442  1.00  0.00     0.171 HD
ENDROOT
BRANCH   7  14
HETATM   14  S   UNL     1      39.213 -10.355   6.771  1.00  0.00    -0.083 SA
BRANCH  14  15
HETATM   15  C   UNL     1      40.599  -9.435   7.510  1.00  0.00     0.185 C 
BRANCH  15  16
HETATM   16  C   UNL     1      40.414  -9.116   8.984  1.00  0.00     0.232 C 
HETATM   17  N   UNL     1      41.218  -9.839   9.846  1.00  0.00    -0.324 N 
HETATM   18  H   UNL     1      41.507 -10.750   9.509  1.00  0.00     0.169 HD
HETATM   19  O   UNL     1      39.620  -8.240   9.319  1.00  0.00    -0.272 OA
BRANCH  17  20
HETATM   20  C   UNL     1      41.396  -9.570  11.222  1.00  0.00     0.076 A 
HETATM   21  C   UNL     1      40.505  -9.985  12.226  1.00  0.00     0.143 A 
HETATM   22  F   UNL     1      39.347 -10.587  11.923  1.00  0.00    -0.204 F 
HETATM   23  C   UNL     1      40.741  -9.686  13.569  1.00  0.00     0.047 A 
HETATM   24  C   UNL     1      41.868  -8.952  13.929  1.00  0.00     0.045 A 
HETATM   25  C   UNL     1      42.733  -8.510  12.934  1.00  0.00     0.118 A 
HETATM   26  F   UNL     1      43.810  -7.789  13.273  1.00  0.00    -0.206 F 
HETATM   27  C   UNL     1      42.504  -8.800  11.590  1.00  0.00     0.074 A 
ENDBRANCH  17  20
ENDBRANCH  15  16
ENDBRANCH  14  15
ENDBRANCH   7  14
BRANCH   1  28
HETATM   28  C   UNL     1      43.036 -16.010   2.274  1.00  0.00     0.273 C 
BRANCH  28  29
HETATM   29  C   UNL     1      43.289 -17.432   2.693  1.00  0.00    -0.030 A 
HETATM   30  C   UNL     1      43.132 -18.490   1.766  1.00  0.00     0.012 A 
HETATM   31  C   UNL     1      43.343 -19.819   2.149  1.00  0.00     0.040 A 
HETATM   32  C   UNL     1      43.706 -20.063   3.455  1.00  0.00     0.105 A 
HETATM   33  C   UNL     1      43.867 -19.042   4.360  1.00  0.00     0.105 A 
HETATM   34  O   UNL     1      43.935 -21.283   4.004  1.00  0.00    -0.323 OA
HETATM   35  C   UNL     1      43.671 -17.721   4.015  1.00  0.00     0.048 A 
HETATM   36  O   UNL     1      44.220 -19.492   5.593  1.00  0.00    -0.323 OA
HETATM   37  C   UNL     1      44.228 -20.922   5.371  1.00  0.00     0.352 A 
ENDBRANCH  28  29
ENDBRANCH   1  28
TORSDOF 6
ENDMDL
MODEL 3
REMARK VINA RESULT:      -9.3      3.471      9.967
REMARK  6 active torsions:
REMARK  status: ('A' for Active; 'I' for Inactive)
REMARK    1  A    between atoms: C_2  and  C_3 
REMARK    2  A    between atoms: C_3  and  N_4 
REMARK    3  A    between atoms: C_10  and  S_11 
REMARK    4  A    between atoms: S_11  and  C_12 
REMARK    5  A    between atoms: C_12  and  C_13 
REMARK       I    between atoms: C_13  and  N_14 
REMARK    6  A    between atoms: N_14  and  C_15 
ROOT
HETATM    1  N   UNL     1      42.095 -14.795   2.770  1.00  0.00    -0.063 N 
HETATM    2  H   UNL     1      41.881 -15.181   3.698  1.00  0.00     0.280 HD
HETATM    3  C   UNL     1      43.024 -13.607   3.002  1.00  0.00     0.281 C 
HETATM    4  C   UNL     1      42.310 -12.363   3.404  1.00  0.00     0.060 A 
HETATM    5  C   UNL     1      40.978 -12.210   3.423  1.00  0.00     0.052 A 
HETATM    6  N   UNL     1      40.348 -11.039   3.757  1.00  0.00    -0.228 NA
HETATM    7  C   UNL     1      41.091 -10.036   4.088  1.00  0.00     0.169 A 
HETATM    8  N   UNL     1      42.449 -10.081   4.130  1.00  0.00    -0.302 N 
HETATM    9  C   UNL     1      43.138 -11.203   3.786  1.00  0.00     0.257 A 
HETATM   10  O   UNL     1      44.359 -11.279   3.766  1.00  0.00    -0.267 OA
HETATM   11  C   UNL     1      40.075 -13.344   3.014  1.00  0.00     0.088 C 
HETATM   12  C   UNL     1      40.787 -14.371   2.136  1.00  0.00     0.241 C 
HETATM   13  H   UNL     1      42.968  -9.255   4.394  1.00  0.00     0.171 HD
ENDROOT
BRANCH   7  14
HETATM   14  S   UNL     1      40.441  -8.482   4.508  1.00  0.00    -0.083 SA
BRANCH  14  15
HETATM   15  C   UNL     1      40.092  -8.781   6.270  1.00  0.00     0.185 C 
BRANCH  15  16
HETATM   16  C   UNL     1      41.270  -8.511   7.189  1.00  0.00     0.232 C 
HETATM   17  N   UNL     1      41.698  -9.598   7.929  1.00  0.00    -0.324 N 
HETATM   18  H   UNL     1      40.987 -10.294   8.128  1.00  0.00     0.169 HD
HETATM   19  O   UNL     1      41.787  -7.396   7.201  1.00  0.00    -0.272 OA
BRANCH  17  20
HETATM   20  C   UNL     1      42.897  -9.664   8.674  1.00  0.00     0.076 A 
HETATM   21  C   UNL     1      44.108 -10.168   8.172  1.00  0.00     0.143 A 
HETATM   22  F   UNL     1      44.178 -10.728   6.956  1.00  0.00    -0.204 F 
HETATM   23  C   UNL     1      45.258 -10.205   8.962  1.00  0.00     0.047 A 
HETATM   24  C   UNL     1      45.210  -9.750  10.277  1.00  0.00     0.045 A 
HETATM   25  C   UNL     1      44.005  -9.284  10.788  1.00  0.00     0.118 A 
HETATM   26  F   UNL     1      43.949  -8.861  12.058  1.00  0.00    -0.206 F 
HETATM   27  C   UNL     1      42.850  -9.247  10.008  1.00  0.00     0.074 A 
ENDBRANCH  17  20
ENDBRANCH  15  16
ENDBRANCH  14  15
ENDBRANCH   7  14
BRANCH   1  28
HETATM   28  C   UNL     1      42.750 -15.905   1.982  1.00  0.00     0.273 C 
BRANCH  28  29
HETATM   29  C   UNL     1      43.165 -17.082   2.820  1.00  0.00    -0.030 A 
HETATM   30  C   UNL     1      43.574 -16.896   4.163  1.00  0.00     0.012 A 
HETATM   31  C   UNL     1      43.983 -17.980   4.946  1.00  0.00     0.040 A 
HETATM   32  C   UNL     1      43.976 -19.230   4.370  1.00  0.00     0.105 A 
HETATM   33  C   UNL     1      43.574 -19.422   3.071  1.00  0.00     0.105 A 
HETATM   34  O   UNL     1      44.353 -20.388   4.972  1.00  0.00    -0.323 OA
HETATM   35  C   UNL     1      43.162 -18.376   2.271  1.00  0.00     0.048 A 
HETATM   36  O   UNL     1      43.646 -20.724   2.691  1.00  0.00    -0.323 OA
HETATM   37  C   UNL     1      44.176 -21.331   3.893  1.00  0.00     0.352 A 
ENDBRANCH  28  29
ENDBRANCH   1  28
TORSDOF 6
ENDMDL
MODEL 4
REMARK VINA RESULT:      -9.3      4.069     10.608
REMARK  6 active torsions:
REMARK  status: ('A' for Active; 'I' for Inactive)
REMARK    1  A    between atoms: C_2  and  C_3 
REMARK    2  A    between atoms: C_3  and  N_4 
REMARK    3  A    between atoms: C_10  and  S_11 
REMARK    4  A    between atoms: S_11  and  C_12 
REMARK    5  A    between atoms: C_12  and  C_13 
REMARK       I    between atoms: C_13  and  N_14 
REMARK    6  A    between atoms: N_14  and  C_15 
ROOT
HETATM    1  N   UNL     1      42.358 -15.049   3.470  1.00  0.00    -0.063 N 
HETATM    2  H   UNL     1      42.596 -15.569   4.323  1.00  0.00     0.280 HD
HETATM    3  C   UNL     1      43.184 -13.767   3.503  1.00  0.00     0.281 C 
HETATM    4  C   UNL     1      42.598 -12.704   4.367  1.00  0.00     0.060 A 
HETATM    5  C   UNL     1      41.393 -12.763   4.951  1.00  0.00     0.052 A 
HETATM    6  N   UNL     1      40.860 -11.751   5.707  1.00  0.00    -0.228 NA
HETATM    7  C   UNL     1      41.576 -10.690   5.874  1.00  0.00     0.169 A 
HETATM    8  N   UNL     1      42.822 -10.528   5.352  1.00  0.00    -0.302 N 
HETATM    9  C   UNL     1      43.400 -11.482   4.572  1.00  0.00     0.257 A 
HETATM   10  O   UNL     1      44.497 -11.364   4.045  1.00  0.00    -0.267 OA
HETATM   11  C   UNL     1      40.510 -13.967   4.757  1.00  0.00     0.088 C 
HETATM   12  C   UNL     1      40.872 -14.762   3.504  1.00  0.00     0.241 C 
HETATM   13  H   UNL     1      43.325  -9.669   5.520  1.00  0.00     0.171 HD
ENDROOT
BRANCH   7  14
HETATM   14  S   UNL     1      41.027  -9.316   6.781  1.00  0.00    -0.083 SA
BRANCH  14  15
HETATM   15  C   UNL     1      42.594  -8.851   7.582  1.00  0.00     0.185 C 
BRANCH  15  16
HETATM   16  C   UNL     1      42.691  -9.262   9.041  1.00  0.00     0.232 C 
HETATM   17  N   UNL     1      41.931  -8.507   9.915  1.00  0.00    -0.324 N 
HETATM   18  H   UNL     1      41.747  -7.555   9.619  1.00  0.00     0.169 HD
HETATM   19  O   UNL     1      43.382 -10.230   9.353  1.00  0.00    -0.272 OA
BRANCH  17  20
HETATM   20  C   UNL     1      41.676  -8.827  11.268  1.00  0.00     0.076 A 
HETATM   21  C   UNL     1      42.560  -8.547  12.323  1.00  0.00     0.143 A 
HETATM   22  F   UNL     1      43.779  -8.039  12.092  1.00  0.00    -0.204 F 
HETATM   23  C   UNL     1      42.247  -8.889  13.639  1.00  0.00     0.047 A 
HETATM   24  C   UNL     1      41.045  -9.533  13.920  1.00  0.00     0.045 A 
HETATM   25  C   UNL     1      40.183  -9.843  12.874  1.00  0.00     0.118 A 
HETATM   26  F   UNL     1      39.033 -10.479  13.137  1.00  0.00    -0.206 F 
HETATM   27  C   UNL     1      40.490  -9.509  11.556  1.00  0.00     0.074 A 
ENDBRANCH  17  20
ENDBRANCH  15  16
ENDBRANCH  14  15
ENDBRANCH   7  14
BRANCH   1  28
HETATM   28  C   UNL     1      42.715 -15.944   2.306  1.00  0.00     0.273 C 
BRANCH  28  29
HETATM   29  C   UNL     1      43.070 -17.348   2.707  1.00  0.00    -0.030 A 
HETATM   30  C   UNL     1      42.935 -18.413   1.784  1.00  0.00     0.012 A 
HETATM   31  C   UNL     1      43.241 -19.727   2.151  1.00  0.00     0.040 A 
HETATM   32  C   UNL     1      43.675 -19.951   3.438  1.00  0.00     0.105 A 
HETATM   33  C   UNL     1      43.817 -18.925   4.339  1.00  0.00     0.105 A 
HETATM   34  O   UNL     1      44.001 -21.157   3.971  1.00  0.00    -0.323 OA
HETATM   35  C   UNL     1      43.528 -17.617   4.009  1.00  0.00     0.048 A 
HETATM   36  O   UNL     1      44.251 -19.355   5.553  1.00  0.00    -0.323 OA
HETATM   37  C   UNL     1      44.334 -20.781   5.325  1.00  0.00     0.352 A 
ENDBRANCH  28  29
ENDBRANCH   1  28
TORSDOF 6
ENDMDL
MODEL 5
REMARK VINA RESULT:      -9.3      3.428      9.574
REMARK  6 active torsions:
REMARK  status: ('A' for Active; 'I' for Inactive)
REMARK    1  A    between atoms: C_2  and  C_3 
REMARK    2  A    between atoms: C_3  and  N_4 
REMARK    3  A    between atoms: C_10  and  S_11 
REMARK    4  A    between atoms: S_11  and  C_12 
REMARK    5  A    between atoms: C_12  and  C_13 
REMARK       I    between atoms: C_13  and  N_14 
REMARK    6  A    between atoms: N_14  and  C_15 
ROOT
HETATM    1  N   UNL     1      43.211 -14.226   5.634  1.00  0.00    -0.063 N 
HETATM    2  H   UNL     1      43.297 -14.234   4.610  1.00  0.00     0.280 HD
HETATM    3  C   UNL     1      41.735 -13.995   5.940  1.00  0.00     0.281 C 
HETATM    4  C   UNL     1      41.325 -12.566   5.849  1.00  0.00     0.060 A 
HETATM    5  C   UNL     1      42.162 -11.533   5.673  1.00  0.00     0.052 A 
HETATM    6  N   UNL     1      41.762 -10.223   5.636  1.00  0.00    -0.228 NA
HETATM    7  C   UNL     1      40.500  -9.981   5.762  1.00  0.00     0.169 A 
HETATM    8  N   UNL     1      39.556 -10.947   5.918  1.00  0.00    -0.302 N 
HETATM    9  C   UNL     1      39.887 -12.265   5.990  1.00  0.00     0.257 A 
HETATM   10  O   UNL     1      39.080 -13.166   6.174  1.00  0.00    -0.267 OA
HETATM   11  C   UNL     1      43.645 -11.766   5.554  1.00  0.00     0.088 C 
HETATM   12  C   UNL     1      44.077 -13.101   6.159  1.00  0.00     0.241 C 
HETATM   13  H   UNL     1      38.585 -10.686   6.015  1.00  0.00     0.171 HD
ENDROOT
BRANCH   7  14
HETATM   14  S   UNL     1      39.844  -8.373   5.762  1.00  0.00    -0.083 SA
BRANCH  14  15
HETATM   15  C   UNL     1      39.577  -8.169   7.551  1.00  0.00     0.185 C 
BRANCH  15  16
HETATM   16  C   UNL     1      40.858  -8.057   8.360  1.00  0.00     0.232 C 
HETATM   17  N   UNL     1      41.332  -9.250   8.875  1.00  0.00    -0.324 N 
HETATM   18  H   UNL     1      40.628  -9.959   9.047  1.00  0.00     0.169 HD
HETATM   19  O   UNL     1      41.406  -6.964   8.479  1.00  0.00    -0.272 OA
BRANCH  17  20
HETATM   20  C   UNL     1      42.604  -9.443   9.460  1.00  0.00     0.076 A 
HETATM   21  C   UNL     1      42.956  -8.996  10.744  1.00  0.00     0.143 A 
HETATM   22  F   UNL     1      42.118  -8.246  11.473  1.00  0.00    -0.204 F 
HETATM   23  C   UNL     1      44.232  -9.220  11.263  1.00  0.00     0.047 A 
HETATM   24  C   UNL     1      45.185  -9.886  10.496  1.00  0.00     0.045 A 
HETATM   25  C   UNL     1      44.851 -10.299   9.211  1.00  0.00     0.118 A 
HETATM   26  F   UNL     1      45.769 -10.926   8.463  1.00  0.00    -0.206 F 
HETATM   27  C   UNL     1      43.580 -10.075   8.683  1.00  0.00     0.074 A 
ENDBRANCH  17  20
ENDBRANCH  15  16
ENDBRANCH  14  15
ENDBRANCH   7  14
BRANCH   1  28
HETATM   28  C   UNL     1      43.706 -15.569   6.120  1.00  0.00     0.273 C 
BRANCH  28  29
HETATM   29  C   UNL     1      43.688 -16.640   5.065  1.00  0.00    -0.030 A 
HETATM   30  C   UNL     1      43.373 -16.318   3.723  1.00  0.00     0.012 A 
HETATM   31  C   UNL     1      43.331 -17.309   2.737  1.00  0.00     0.040 A 
HETATM   32  C   UNL     1      43.605 -18.605   3.114  1.00  0.00     0.105 A 
HETATM   33  C   UNL     1      43.919 -18.926   4.412  1.00  0.00     0.105 A 
HETATM   34  O   UNL     1      43.596 -19.691   2.299  1.00  0.00    -0.323 OA
HETATM   35  C   UNL     1      43.972 -17.974   5.408  1.00  0.00     0.048 A 
HETATM   36  O   UNL     1      44.148 -20.255   4.577  1.00  0.00    -0.323 OA
HETATM   37  C   UNL     1      43.908 -20.744   3.237  1.00  0.00     0.352 A 
ENDBRANCH  28  29
ENDBRANCH   1  28
TORSDOF 6
ENDMDL
MODEL 6
REMARK VINA RESULT:      -9.3      3.732     10.402
REMARK  6 active torsions:
REMARK  status: ('A' for Active; 'I' for Inactive)
REMARK    1  A    between atoms: C_2  and  C_3 
REMARK    2  A    between atoms: C_3  and  N_4 
REMARK    3  A    between atoms: C_10  and  S_11 
REMARK    4  A    between atoms: S_11  and  C_12 
REMARK    5  A    between atoms: C_12  and  C_13 
REMARK       I    between atoms: C_13  and  N_14 
REMARK    6  A    between atoms: N_14  and  C_15 
ROOT
HETATM    1  N   UNL     1      41.923 -13.617   2.624  1.00  0.00    -0.063 N 
HETATM    2  H   UNL     1      41.542 -12.899   1.995  1.00  0.00     0.280 HD
HETATM    3  C   UNL     1      41.107 -13.540   3.910  1.00  0.00     0.281 C 
HETATM    4  C   UNL     1      41.540 -12.446   4.824  1.00  0.00     0.060 A 
HETATM    5  C   UNL     1      42.628 -11.681   4.650  1.00  0.00     0.052 A 
HETATM    6  N   UNL     1      43.026 -10.709   5.530  1.00  0.00    -0.228 NA
HETATM    7  C   UNL     1      42.295 -10.515   6.576  1.00  0.00     0.169 A 
HETATM    8  N   UNL     1      41.157 -11.210   6.844  1.00  0.00    -0.302 N 
HETATM    9  C   UNL     1      40.719 -12.206   6.026  1.00  0.00     0.257 A 
HETATM   10  O   UNL     1      39.728 -12.888   6.247  1.00  0.00    -0.267 OA
HETATM   11  C   UNL     1      43.528 -11.894   3.462  1.00  0.00     0.088 C 
HETATM   12  C   UNL     1      43.383 -13.292   2.862  1.00  0.00     0.241 C 
HETATM   13  H   UNL     1      40.635 -11.008   7.685  1.00  0.00     0.171 HD
ENDROOT
BRANCH   7  14
HETATM   14  S   UNL     1      42.685  -9.339   7.793  1.00  0.00    -0.083 SA
BRANCH  14  15
HETATM   15  C   UNL     1      43.894 -10.305   8.752  1.00  0.00     0.185 C 
BRANCH  15  16
HETATM   16  C   UNL     1      43.769 -10.135  10.256  1.00  0.00     0.232 C 
HETATM   17  N   UNL     1      42.900  -9.141  10.665  1.00  0.00    -0.324 N 
HETATM   18  H   UNL     1      42.775  -8.378  10.009  1.00  0.00     0.169 HD
HETATM   19  O   UNL     1      44.392 -10.886  11.004  1.00  0.00    -0.272 OA
BRANCH  17  20
HETATM   20  C   UNL     1      42.444  -8.941  11.988  1.00  0.00     0.076 A 
HETATM   21  C   UNL     1      41.285  -9.532  12.518  1.00  0.00     0.143 A 
HETATM   22  F   UNL     1      40.461 -10.259  11.751  1.00  0.00    -0.204 F 
HETATM   23  C   UNL     1      40.890  -9.292  13.835  1.00  0.00     0.047 A 
HETATM   24  C   UNL     1      41.643  -8.443  14.641  1.00  0.00     0.045 A 
HETATM   25  C   UNL     1      42.771  -7.829  14.108  1.00  0.00     0.118 A 
HETATM   26  F   UNL     1      43.490  -6.997  14.875  1.00  0.00    -0.206 F 
HETATM   27  C   UNL     1      43.171  -8.058  12.793  1.00  0.00     0.074 A 
ENDBRANCH  17  20
ENDBRANCH  15  16
ENDBRANCH  14  15
ENDBRANCH   7  14
BRANCH   1  28
HETATM   28  C   UNL     1      41.768 -14.941   1.912  1.00  0.00     0.273 C 
BRANCH  28  29
HETATM   29  C   UNL     1      42.431 -16.091   2.618  1.00  0.00    -0.030 A 
HETATM   30  C   UNL     1      43.157 -17.060   1.884  1.00  0.00     0.012 A 
HETATM   31  C   UNL     1      43.760 -18.146   2.527  1.00  0.00     0.040 A 
HETATM   32  C   UNL     1      43.622 -18.243   3.893  1.00  0.00     0.105 A 
HETATM   33  C   UNL     1      42.926 -17.305   4.615  1.00  0.00     0.105 A 
HETATM   34  O   UNL     1      44.124 -19.232   4.676  1.00  0.00    -0.323 OA
HETATM   35  C   UNL     1      42.322 -16.220   4.014  1.00  0.00     0.048 A 
HETATM   36  O   UNL     1      42.902 -17.585   5.944  1.00  0.00    -0.323 OA
HETATM   37  C   UNL     1      43.637 -18.832   5.975  1.00  0.00     0.352 A 
ENDBRANCH  28  29
ENDBRANCH   1  28
TORSDOF 6
ENDMDL
MODEL 7
REMARK VINA RESULT:      -9.0      5.455      8.883
REMARK  6 active torsions:
REMARK  status: ('A' for Active; 'I' for Inactive)
REMARK    1  A    between atoms: C_2  and  C_3 
REMARK    2  A    between atoms: C_3  and  N_4 
REMARK    3  A    between atoms: C_10  and  S_11 
REMARK    4  A    between atoms: S_11  and  C_12 
REMARK    5  A    between atoms: C_12  and  C_13 
REMARK       I    between atoms: C_13  and  N_14 
REMARK    6  A    between atoms: N_14  and  C_15 
ROOT
HETATM    1  N   UNL     1      42.566 -14.161   4.177  1.00  0.00    -0.063 N 
HETATM    2  H   UNL     1      42.201 -14.626   3.336  1.00  0.00     0.280 HD
HETATM    3  C   UNL     1      41.351 -13.751   5.003  1.00  0.00     0.281 C 
HETATM    4  C   UNL     1      40.710 -12.492   4.532  1.00  0.00     0.060 A 
HETATM    5  C   UNL     1      41.202 -11.683   3.582  1.00  0.00     0.052 A 
HETATM    6  N   UNL     1      40.612 -10.507   3.198  1.00  0.00    -0.228 NA
HETATM    7  C   UNL     1      39.508 -10.177   3.780  1.00  0.00     0.169 A 
HETATM    8  N   UNL     1      38.901 -10.928   4.736  1.00  0.00    -0.302 N 
HETATM    9  C   UNL     1      39.446 -12.093   5.183  1.00  0.00     0.257 A 
HETATM   10  O   UNL     1      38.962 -12.780   6.070  1.00  0.00    -0.267 OA
HETATM   11  C   UNL     1      42.504 -12.014   2.901  1.00  0.00     0.088 C 
HETATM   12  C   UNL     1      43.372 -12.962   3.727  1.00  0.00     0.241 C 
HETATM   13  H   UNL     1      38.039 -10.606   5.152  1.00  0.00     0.171 HD
ENDROOT
BRANCH   7  14
HETATM   14  S   UNL     1      38.658  -8.706   3.420  1.00  0.00    -0.083 SA
BRANCH  14  15
HETATM   15  C   UNL     1      38.748  -8.756   1.602  1.00  0.00     0.185 C 
BRANCH  15  16
HETATM   16  C   UNL     1      38.371 -10.098   1.000  1.00  0.00     0.232 C 
HETATM   17  N   UNL     1      39.309 -10.641   0.142  1.00  0.00    -0.324 N 
HETATM   18  H   UNL     1      39.905  -9.970  -0.330  1.00  0.00     0.169 HD
HETATM   19  O   UNL     1      37.311 -10.631   1.323  1.00  0.00    -0.272 OA
BRANCH  17  20
HETATM   20  C   UNL     1      39.297 -11.962  -0.359  1.00  0.00     0.076 A 
HETATM   21  C   UNL     1      38.459 -12.403  -1.397  1.00  0.00     0.143 A 
HETATM   22  F   UNL     1      37.521 -11.601  -1.921  1.00  0.00    -0.204 F 
HETATM   23  C   UNL     1      38.497 -13.724  -1.846  1.00  0.00     0.047 A 
HETATM   24  C   UNL     1      39.368 -14.633  -1.250  1.00  0.00     0.045 A 
HETATM   25  C   UNL     1      40.173 -14.210  -0.199  1.00  0.00     0.118 A 
HETATM   26  F   UNL     1      41.000 -15.085   0.389  1.00  0.00    -0.206 F 
HETATM   27  C   UNL     1      40.138 -12.893   0.259  1.00  0.00     0.074 A 
ENDBRANCH  17  20
ENDBRANCH  15  16
ENDBRANCH  14  15
ENDBRANCH   7  14
BRANCH   1  28
HETATM   28  C   UNL     1      43.439 -15.172   4.884  1.00  0.00     0.273 C 
BRANCH  28  29
HETATM   29  C   UNL     1      43.481 -16.515   4.209  1.00  0.00    -0.030 A 
HETATM   30  C   UNL     1      43.074 -16.651   2.860  1.00  0.00     0.012 A 
HETATM   31  C   UNL     1      43.089 -17.898   2.226  1.00  0.00     0.040 A 
HETATM   32  C   UNL     1      43.509 -18.986   2.958  1.00  0.00     0.105 A 
HETATM   33  C   UNL     1      43.913 -18.863   4.264  1.00  0.00     0.105 A 
HETATM   34  O   UNL     1      43.573 -20.268   2.513  1.00  0.00    -0.323 OA
HETATM   35  C   UNL     1      43.914 -17.649   4.918  1.00  0.00     0.048 A 
HETATM   36  O   UNL     1      44.283 -20.053   4.808  1.00  0.00    -0.323 OA
HETATM   37  C   UNL     1      44.032 -20.950   3.701  1.00  0.00     0.352 A 
ENDBRANCH  28  29
ENDBRANCH   1  28
TORSDOF 6
ENDMDL
MODEL 8
REMARK VINA RESULT:      -9.0      1.423      2.123
REMARK  6 active torsions:
REMARK  status: ('A' for Active; 'I' for Inactive)
REMARK    1  A    between atoms: C_2  and  C_3 
REMARK    2  A    between atoms: C_3  and  N_4 
REMARK    3  A    between atoms: C_10  and  S_11 
REMARK    4  A    between atoms: S_11  and  C_12 
REMARK    5  A    between atoms: C_12  and  C_13 
REMARK       I    between atoms: C_13  and  N_14 
REMARK    6  A    between atoms: N_14  and  C_15 
ROOT
HETATM    1  N   UNL     1      44.651 -10.673   8.652  1.00  0.00    -0.063 N 
HETATM    2  H   UNL     1      44.437 -11.650   8.888  1.00  0.00     0.280 HD
HETATM    3  C   UNL     1      43.369 -10.077   8.080  1.00  0.00     0.281 C 
HETATM    4  C   UNL     1      43.141 -10.420   6.649  1.00  0.00     0.060 A 
HETATM    5  C   UNL     1      44.019 -11.053   5.858  1.00  0.00     0.052 A 
HETATM    6  N   UNL     1      43.800 -11.318   4.531  1.00  0.00    -0.228 NA
HETATM    7  C   UNL     1      42.671 -10.947   4.027  1.00  0.00     0.169 A 
HETATM    8  N   UNL     1      41.694 -10.322   4.737  1.00  0.00    -0.302 N 
HETATM    9  C   UNL     1      41.856 -10.006   6.051  1.00  0.00     0.257 A 
HETATM   10  O   UNL     1      41.026  -9.406   6.720  1.00  0.00    -0.267 OA
HETATM   11  C   UNL     1      45.362 -11.474   6.395  1.00  0.00     0.088 C 
HETATM   12  C   UNL     1      45.771 -10.680   7.634  1.00  0.00     0.241 C 
HETATM   13  H   UNL     1      40.835 -10.056   4.278  1.00  0.00     0.171 HD
ENDROOT
BRANCH   7  14
HETATM   14  S   UNL     1      42.260 -11.188   2.358  1.00  0.00    -0.083 SA
BRANCH  14  15
HETATM   15  C   UNL     1      41.537 -12.854   2.474  1.00  0.00     0.185 C 
BRANCH  15  16
HETATM   16  C   UNL     1      42.552 -13.952   2.744  1.00  0.00     0.232 C 
HETATM   17  N   UNL     1      42.085 -15.010   3.502  1.00  0.00    -0.324 N 
HETATM   18  H   UNL     1      41.328 -14.786   4.139  1.00  0.00     0.169 HD
HETATM   19  O   UNL     1      43.679 -13.867   2.262  1.00  0.00    -0.272 OA
BRANCH  17  20
HETATM   20  C   UNL     1      42.753 -16.240   3.695  1.00  0.00     0.076 A 
HETATM   21  C   UNL     1      43.198 -17.066   2.650  1.00  0.00     0.143 A 
HETATM   22  F   UNL     1      42.918 -16.781   1.370  1.00  0.00    -0.204 F 
HETATM   23  C   UNL     1      43.852 -18.271   2.909  1.00  0.00     0.047 A 
HETATM   24  C   UNL     1      44.059 -18.678   4.225  1.00  0.00     0.045 A 
HETATM   25  C   UNL     1      43.589 -17.880   5.261  1.00  0.00     0.118 A 
HETATM   26  F   UNL     1      43.770 -18.275   6.529  1.00  0.00    -0.206 F 
HETATM   27  C   UNL     1      42.930 -16.677   5.011  1.00  0.00     0.074 A 
ENDBRANCH  17  20
ENDBRANCH  15  16
ENDBRANCH  14  15
ENDBRANCH   7  14
BRANCH   1  28
HETATM   28  C   UNL     1      45.085 -10.004   9.936  1.00  0.00     0.273 C 
BRANCH  28  29
HETATM   29  C   UNL     1      43.947  -9.438  10.740  1.00  0.00    -0.030 A 
HETATM   30  C   UNL     1      43.671  -8.050  10.712  1.00  0.00     0.012 A 
HETATM   31  C   UNL     1      42.629  -7.509  11.472  1.00  0.00     0.040 A 
HETATM   32  C   UNL     1      41.883  -8.368  12.248  1.00  0.00     0.105 A 
HETATM   33  C   UNL     1      42.139  -9.717  12.276  1.00  0.00     0.105 A 
HETATM   34  O   UNL     1      40.850  -8.019  13.056  1.00  0.00    -0.323 OA
HETATM   35  C   UNL     1      43.156 -10.285  11.536  1.00  0.00     0.048 A 
HETATM   36  O   UNL     1      41.297 -10.388  13.105  1.00  0.00    -0.323 OA
HETATM   37  C   UNL     1      40.500  -9.299  13.627  1.00  0.00     0.352 A 
ENDBRANCH  28  29
ENDBRANCH   1  28
TORSDOF 6
ENDMDL
MODEL 9
REMARK VINA RESULT:      -8.9      6.063      9.710
REMARK  6 active torsions:
REMARK  status: ('A' for Active; 'I' for Inactive)
REMARK    1  A    between atoms: C_2  and  C_3 
REMARK    2  A    between atoms: C_3  and  N_4 
REMARK    3  A    between atoms: C_10  and  S_11 
REMARK    4  A    between atoms: S_11  and  C_12 
REMARK    5  A    between atoms: C_12  and  C_13 
REMARK       I    between atoms: C_13  and  N_14 
REMARK    6  A    between atoms: N_14  and  C_15 
ROOT
HETATM    1  N   UNL     1      42.119 -14.986   2.433  1.00  0.00    -0.063 N 
HETATM    2  H   UNL     1      41.856 -15.325   3.367  1.00  0.00     0.280 HD
HETATM    3  C   UNL     1      42.965 -13.736   2.652  1.00  0.00     0.281 C 
HETATM    4  C   UNL     1      42.158 -12.512   2.918  1.00  0.00     0.060 A 
HETATM    5  C   UNL     1      40.823 -12.434   2.830  1.00  0.00     0.052 A 
HETATM    6  N   UNL     1      40.109 -11.282   3.038  1.00  0.00    -0.228 NA
HETATM    7  C   UNL     1      40.771 -10.220   3.354  1.00  0.00     0.169 A 
HETATM    8  N   UNL     1      42.122 -10.184   3.498  1.00  0.00    -0.302 N 
HETATM    9  C   UNL     1      42.893 -11.284   3.281  1.00  0.00     0.257 A 
HETATM   10  O   UNL     1      44.114 -11.291   3.355  1.00  0.00    -0.267 OA
HETATM   11  C   UNL     1      40.014 -13.640   2.433  1.00  0.00     0.088 C 
HETATM   12  C   UNL     1      40.843 -14.678   1.679  1.00  0.00     0.241 C 
HETATM   13  H   UNL     1      42.576  -9.316   3.744  1.00  0.00     0.171 HD
ENDROOT
BRANCH   7  14
HETATM   14  S   UNL     1      40.010  -8.682   3.623  1.00  0.00    -0.083 SA
BRANCH  14  15
HETATM   15  C   UNL     1      40.527  -7.832   2.098  1.00  0.00     0.185 C 
BRANCH  15  16
HETATM   16  C   UNL     1      40.121  -8.548   0.822  1.00  0.00     0.232 C 
HETATM   17  N   UNL     1      41.163  -9.101   0.101  1.00  0.00    -0.324 N 
HETATM   18  H   UNL     1      42.062  -8.647   0.219  1.00  0.00     0.169 HD
HETATM   19  O   UNL     1      38.930  -8.628   0.525  1.00  0.00    -0.272 OA
BRANCH  17  20
HETATM   20  C   UNL     1      41.027  -9.998  -0.983  1.00  0.00     0.076 A 
HETATM   21  C   UNL     1      40.989  -9.604  -2.330  1.00  0.00     0.143 A 
HETATM   22  F   UNL     1      40.974  -8.308  -2.676  1.00  0.00    -0.204 F 
HETATM   23  C   UNL     1      40.852 -10.542  -3.355  1.00  0.00     0.047 A 
HETATM   24  C   UNL     1      40.737 -11.894  -3.044  1.00  0.00     0.045 A 
HETATM   25  C   UNL     1      40.739 -12.285  -1.710  1.00  0.00     0.118 A 
HETATM   26  F   UNL     1      40.611 -13.584  -1.406  1.00  0.00    -0.206 F 
HETATM   27  C   UNL     1      40.870 -11.355  -0.681  1.00  0.00     0.074 A 
ENDBRANCH  17  20
ENDBRANCH  15  16
ENDBRANCH  14  15
ENDBRANCH   7  14
BRANCH   1  28
HETATM   28  C   UNL     1      42.890 -16.104   1.770  1.00  0.00     0.273 C 
BRANCH  28  29
HETATM   29  C   UNL     1      43.263 -17.222   2.704  1.00  0.00    -0.030 A 
HETATM   30  C   UNL     1      43.653 -16.942   4.036  1.00  0.00     0.012 A 
HETATM   31  C   UNL     1      44.023 -17.970   4.908  1.00  0.00     0.040 A 
HETATM   32  C   UNL     1      43.997 -19.261   4.429  1.00  0.00     0.105 A 
HETATM   33  C   UNL     1      43.614 -19.543   3.141  1.00  0.00     0.105 A 
HETATM   34  O   UNL     1      44.337 -20.376   5.125  1.00  0.00    -0.323 OA
HETATM   35  C   UNL     1      43.240 -18.554   2.256  1.00  0.00     0.048 A 
HETATM   36  O   UNL     1      43.663 -20.873   2.864  1.00  0.00    -0.323 OA
HETATM   37  C   UNL     1      44.157 -21.397   4.119  1.00  0.00     0.352 A 
ENDBRANCH  28  29
ENDBRANCH   1  28
TORSDOF 6
ENDMDL
MODEL 10
REMARK VINA RESULT:      -8.7      3.750      4.854
REMARK  6 active torsions:
REMARK  status: ('A' for Active; 'I' for Inactive)
REMARK    1  A    between atoms: C_2  and  C_3 
REMARK    2  A    between atoms: C_3  and  N_4 
REMARK    3  A    between atoms: C_10  and  S_11 
REMARK    4  A    between atoms: S_11  and  C_12 
REMARK    5  A    between atoms: C_12  and  C_13 
REMARK       I    between atoms: C_13  and  N_14 
REMARK    6  A    between atoms: N_14  and  C_15 
ROOT
HETATM    1  N   UNL     1      42.730 -11.045   7.262  1.00  0.00    -0.063 N 
HETATM    2  H   UNL     1      42.816 -11.637   8.098  1.00  0.00     0.280 HD
HETATM    3  C   UNL     1      41.442 -11.471   6.564  1.00  0.00     0.281 C 
HETATM    4  C   UNL     1      41.594 -12.699   5.734  1.00  0.00     0.060 A 
HETATM    5  C   UNL     1      42.756 -13.313   5.471  1.00  0.00     0.052 A 
HETATM    6  N   UNL     1      42.871 -14.418   4.668  1.00  0.00    -0.228 NA
HETATM    7  C   UNL     1      41.788 -14.897   4.154  1.00  0.00     0.169 A 
HETATM    8  N   UNL     1      40.551 -14.375   4.371  1.00  0.00    -0.302 N 
HETATM    9  C   UNL     1      40.369 -13.264   5.136  1.00  0.00     0.257 A 
HETATM   10  O   UNL     1      39.284 -12.733   5.324  1.00  0.00    -0.267 OA
HETATM   11  C   UNL     1      44.047 -12.770   6.023  1.00  0.00     0.088 C 
HETATM   12  C   UNL     1      43.948 -11.292   6.396  1.00  0.00     0.241 C 
HETATM   13  H   UNL     1      39.746 -14.800   3.933  1.00  0.00     0.171 HD
ENDROOT
BRANCH   7  14
HETATM   14  S   UNL     1      41.777 -16.274   3.096  1.00  0.00    -0.083 SA
BRANCH  14  15
HETATM   15  C   UNL     1      41.933 -15.415   1.499  1.00  0.00     0.185 C 
BRANCH  15  16
HETATM   16  C   UNL     1      40.613 -14.927   0.927  1.00  0.00     0.232 C 
HETATM   17  N   UNL     1      40.712 -14.229  -0.263  1.00  0.00    -0.324 N 
HETATM   18  H   UNL     1      41.592 -13.749  -0.413  1.00  0.00     0.169 HD
HETATM   19  O   UNL     1      39.564 -15.198   1.506  1.00  0.00    -0.272 OA
BRANCH  17  20
HETATM   20  C   UNL     1      39.629 -13.874  -1.099  1.00  0.00     0.076 A 
HETATM   21  C   UNL     1      38.752 -12.808  -0.841  1.00  0.00     0.143 A 
HETATM   22  F   UNL     1      38.827 -12.106   0.298  1.00  0.00    -0.204 F 
HETATM   23  C   UNL     1      37.701 -12.510  -1.710  1.00  0.00     0.047 A 
HETATM   24  C   UNL     1      37.501 -13.288  -2.848  1.00  0.00     0.045 A 
HETATM   25  C   UNL     1      38.345 -14.366  -3.087  1.00  0.00     0.118 A 
HETATM   26  F   UNL     1      38.147 -15.127  -4.172  1.00  0.00    -0.206 F 
HETATM   27  C   UNL     1      39.395 -14.673  -2.223  1.00  0.00     0.074 A 
ENDBRANCH  17  20
ENDBRANCH  15  16
ENDBRANCH  14  15
ENDBRANCH   7  14
BRANCH   1  28
HETATM   28  C   UNL     1      42.687  -9.615   7.748  1.00  0.00     0.273 C 
BRANCH  28  29
HETATM   29  C   UNL     1      42.706  -9.482   9.245  1.00  0.00    -0.030 A 
HETATM   30  C   UNL     1      43.723 -10.106  10.007  1.00  0.00     0.012 A 
HETATM   31  C   UNL     1      43.739 -10.009  11.402  1.00  0.00     0.040 A 
HETATM   32  C   UNL     1      42.735  -9.289  12.009  1.00  0.00     0.105 A 
HETATM   33  C   UNL     1      41.748  -8.674  11.279  1.00  0.00     0.105 A 
HETATM   34  O   UNL     1      42.584  -9.102  13.346  1.00  0.00    -0.323 OA
HETATM   35  C   UNL     1      41.703  -8.747   9.902  1.00  0.00     0.048 A 
HETATM   36  O   UNL     1      40.850  -8.021  12.064  1.00  0.00    -0.323 OA
HETATM   37  C   UNL     1      41.367  -8.325  13.381  1.00  0.00     0.352 A 
ENDBRANCH  28  29
ENDBRANCH   1  28
TORSDOF 6
ENDMDL
