MODEL 1
REMARK VINA RESULT:      -9.0      0.000      0.000
REMARK  8 active torsions:
REMARK  status: ('A' for Active; 'I' for Inactive)
REMARK    1  A    between atoms: C_7  and  C_8 
REMARK    2  A    between atoms: C_8  and  O_9 
REMARK    3  A    between atoms: O_9  and  C_10 
REMARK    4  A    between atoms: C_12  and  C_13 
REMARK       I    between atoms: C_13  and  N_14 
REMARK    5  A    between atoms: N_14  and  C_15 
REMARK    6  A    between atoms: C_15  and  C_16 
REMARK    7  A    between atoms: C_19  and  C_20 
REMARK    8  A    between atoms: C_20  and  N_21 
ROOT
HETATM    1  C   UNL     1      43.590 -12.642   5.572  1.00  0.00     0.252 C 
HETATM    2  N   UNL     1      44.230 -12.633   6.796  1.00  0.00    -0.353 N 
HETATM    3  O   UNL     1      43.687 -11.736   4.754  1.00  0.00    -0.268 OA
HETATM    4  H   UNL     1      44.015 -13.337   7.486  1.00  0.00     0.163 HD
ENDROOT
BRANCH   1   5
HETATM    5  C   UNL     1      42.724 -13.819   5.289  1.00  0.00     0.034 A 
HETATM    6  C   UNL     1      43.200 -15.092   5.625  1.00  0.00     0.053 A 
HETATM    7  C   UNL     1      42.409 -16.224   5.416  1.00  0.00     0.070 A 
HETATM    8  C   UNL     1      41.142 -16.083   4.848  1.00  0.00     0.037 A 
HETATM    9  C   UNL     1      40.658 -14.814   4.521  1.00  0.00     0.004 A 
HETATM   10  C   UNL     1      41.442 -13.682   4.746  1.00  0.00     0.017 A 
BRANCH   7  11
HETATM   11  O   UNL     1      42.986 -17.406   5.785  1.00  0.00    -0.346 OA
BRANCH  11  12
HETATM   12  C   UNL     1      44.190 -17.773   5.102  1.00  0.00     0.219 C 
BRANCH  12  13
HETATM   13  C   UNL     1      43.894 -18.735   4.007  1.00  0.00     0.024 A 
HETATM   14  C   UNL     1      43.934 -20.155   4.034  1.00  0.00     0.069 A 
HETATM   15  C   UNL     1      44.274 -21.050   5.166  1.00  0.00     0.073 C 
HETATM   16  N   UNL     1      43.611 -20.678   2.846  1.00  0.00    -0.133 NA
HETATM   17  O   UNL     1      43.356 -19.604   2.018  1.00  0.00    -0.217 OA
HETATM   18  C   UNL     1      43.529 -18.448   2.709  1.00  0.00     0.085 A 
HETATM   19  C   UNL     1      43.293 -17.195   1.966  1.00  0.00     0.079 C 
ENDBRANCH  12  13
ENDBRANCH  11  12
ENDBRANCH   7  11
ENDBRANCH   1   5
BRANCH   2  20
HETATM   20  C   UNL     1      45.167 -11.591   7.148  1.00  0.00     0.161 C 
BRANCH  20  21
HETATM   21  C   UNL     1      44.704 -10.653   8.242  1.00  0.00    -0.041 A 
HETATM   22  C   UNL     1      45.522 -10.240   9.300  1.00  0.00     0.009 A 
HETATM   23  C   UNL     1      45.029  -9.393  10.299  1.00  0.00     0.009 A 
HETATM   24  C   UNL     1      43.703  -8.938  10.259  1.00  0.00    -0.033 A 
HETATM   25  C   UNL     1      42.891  -9.324   9.186  1.00  0.00     0.009 A 
HETATM   26  C   UNL     1      43.388 -10.168   8.190  1.00  0.00     0.009 A 
BRANCH  24  27
HETATM   27  C   UNL     1      43.164  -8.054  11.349  1.00  0.00     0.273 C 
BRANCH  27  28
HETATM   28  N   UNL     1      43.037  -8.762  12.673  1.00  0.00    -0.067 N 
HETATM   29  H   UNL     1      43.938  -9.228  12.837  1.00  0.00     0.280 HD
HETATM   30  C   UNL     1      41.959  -9.826  12.690  1.00  0.00     0.235 C 
HETATM   31  C   UNL     1      40.951  -9.332  13.708  1.00  0.00     0.029 C 
HETATM   32  C   UNL     1      41.814  -8.613  14.723  1.00  0.00     0.029 C 
HETATM   33  C   UNL     1      42.785  -7.841  13.851  1.00  0.00     0.235 C 
ENDBRANCH  27  28
ENDBRANCH  24  27
ENDBRANCH  20  21
ENDBRANCH   2  20
TORSDOF 8
ENDMDL
MODEL 2
REMARK VINA RESULT:      -8.9      1.150      1.487
REMARK  8 active torsions:
REMARK  status: ('A' for Active; 'I' for Inactive)
REMARK    1  A    between atoms: C_7  and  C_8 
REMARK    2  A    between atoms: C_8  and  O_9 
REMARK    3  A    between atoms: O_9  and  C_10 
REMARK    4  A    between atoms: C_12  and  C_13 
REMARK       I    between atoms: C_13  and  N_14 
REMARK    5  A    between atoms: N_14  and  C_15 
REMARK    6  A    between atoms: C_15  and  C_16 
REMARK    7  A    between atoms: C_19  and  C_20 
REMARK    8  A    between atoms: C_20  and  N_21 
ROOT
HETATM    1  C   UNL     1      43.293 -12.943   5.518  1.00  0.00     0.252 C 
HETATM    2  N   UNL     1      43.858 -12.781   6.767  1.00  0.00    -0.353 N 
HETATM    3  O   UNL     1      43.507 -12.186   4.579  1.00  0.00    -0.268 OA
HETATM    4  H   UNL     1      43.551 -13.351   7.541  1.00  0.00     0.163 HD
ENDROOT
BRANCH   1   5
HETATM    5  C   UNL     1      42.361 -14.092   5.358  1.00  0.00     0.034 A 
HETATM    6  C   UNL     1      42.516 -14.926   4.245  1.00  0.00     0.053 A 
HETATM    7  C   UNL     1      41.693 -16.041   4.072  1.00  0.00     0.070 A 
HETATM    8  C   UNL     1      40.693 -16.311   5.009  1.00  0.00     0.037 A 
HETATM    9  C   UNL     1      40.541 -15.487   6.128  1.00  0.00     0.004 A 
HETATM   10  C   UNL     1      41.376 -14.384   6.309  1.00  0.00     0.017 A 
BRANCH   7  11
HETATM   11  O   UNL     1      41.943 -16.773   2.947  1.00  0.00    -0.346 OA
BRANCH  11  12
HETATM   12  C   UNL     1      43.307 -17.138   2.708  1.00  0.00     0.219 C 
BRANCH  12  13
HETATM   13  C   UNL     1      43.650 -18.383   3.446  1.00  0.00     0.024 A 
HETATM   14  C   UNL     1      44.077 -18.531   4.793  1.00  0.00     0.069 A 
HETATM   15  C   UNL     1      44.286 -17.481   5.818  1.00  0.00     0.073 C 
HETATM   16  N   UNL     1      44.300 -19.814   5.098  1.00  0.00    -0.133 NA
HETATM   17  O   UNL     1      44.024 -20.529   3.952  1.00  0.00    -0.217 OA
HETATM   18  C   UNL     1      43.641 -19.676   2.967  1.00  0.00     0.085 A 
HETATM   19  C   UNL     1      43.306 -20.282   1.664  1.00  0.00     0.079 C 
ENDBRANCH  12  13
ENDBRANCH  11  12
ENDBRANCH   7  11
ENDBRANCH   1   5
BRANCH   2  20
HETATM   20  C   UNL     1      44.847 -11.759   7.019  1.00  0.00     0.161 C 
BRANCH  20  21
HETATM   21  C   UNL     1      44.489 -10.772   8.110  1.00  0.00    -0.041 A 
HETATM   22  C   UNL     1      45.344 -10.450   9.170  1.00  0.00     0.009 A 
HETATM   23  C   UNL     1      44.945  -9.550  10.165  1.00  0.00     0.009 A 
HETATM   24  C   UNL     1      43.679  -8.949  10.118  1.00  0.00    -0.033 A 
HETATM   25  C   UNL     1      42.833  -9.245   9.043  1.00  0.00     0.009 A 
HETATM   26  C   UNL     1      43.236 -10.142   8.051  1.00  0.00     0.009 A 
BRANCH  24  27
HETATM   27  C   UNL     1      43.239  -8.008  11.205  1.00  0.00     0.273 C 
BRANCH  27  28
HETATM   28  N   UNL     1      43.207  -8.652  12.566  1.00  0.00    -0.067 N 
HETATM   29  H   UNL     1      44.145  -9.042  12.722  1.00  0.00     0.280 HD
HETATM   30  C   UNL     1      42.212  -9.790  12.675  1.00  0.00     0.235 C 
HETATM   31  C   UNL     1      41.203  -9.318  13.702  1.00  0.00     0.029 C 
HETATM   32  C   UNL     1      42.041  -8.484  14.648  1.00  0.00     0.029 C 
HETATM   33  C   UNL     1      42.925  -7.691  13.705  1.00  0.00     0.235 C 
ENDBRANCH  27  28
ENDBRANCH  24  27
ENDBRANCH  20  21
ENDBRANCH   2  20
TORSDOF 8
ENDMDL
MODEL 3
REMARK VINA RESULT:      -8.7      0.825      1.870
REMARK  8 active torsions:
REMARK  status: ('A' for Active; 'I' for Inactive)
REMARK    1  A    between atoms: C_7  and  C_8 
REMARK    2  A    between atoms: C_8  and  O_9 
REMARK    3  A    between atoms: O_9  and  C_10 
REMARK    4  A    between atoms: C_12  and  C_13 
REMARK       I    between atoms: C_13  and  N_14 
REMARK    5  A    between atoms: N_14  and  C_15 
REMARK    6  A    between atoms: C_15  and  C_16 
REMARK    7  A    between atoms: C_19  and  C_20 
REMARK    8  A    between atoms: C_20  and  N_21 
ROOT
HETATM    1  C   UNL     1      43.386 -12.657   6.228  1.00  0.00     0.252 C 
HETATM    2  N   UNL     1      43.787 -12.362   7.516  1.00  0.00    -0.353 N 
HETATM    3  O   UNL     1      43.634 -11.944   5.265  1.00  0.00    -0.268 OA
HETATM    4  H   UNL     1      43.447 -12.911   8.292  1.00  0.00     0.163 HD
ENDROOT
BRANCH   1   5
HETATM    5  C   UNL     1      42.587 -13.902   6.054  1.00  0.00     0.034 A 
HETATM    6  C   UNL     1      43.249 -15.133   6.126  1.00  0.00     0.053 A 
HETATM    7  C   UNL     1      42.538 -16.329   6.010  1.00  0.00     0.070 A 
HETATM    8  C   UNL     1      41.159 -16.293   5.800  1.00  0.00     0.037 A 
HETATM    9  C   UNL     1      40.491 -15.067   5.738  1.00  0.00     0.004 A 
HETATM   10  C   UNL     1      41.200 -13.872   5.872  1.00  0.00     0.017 A 
BRANCH   7  11
HETATM   11  O   UNL     1      43.297 -17.462   6.096  1.00  0.00    -0.346 OA
BRANCH  11  12
HETATM   12  C   UNL     1      44.352 -17.602   5.139  1.00  0.00     0.219 C 
BRANCH  12  13
HETATM   13  C   UNL     1      43.964 -18.568   4.075  1.00  0.00     0.024 A 
HETATM   14  C   UNL     1      43.469 -18.303   2.770  1.00  0.00     0.069 A 
HETATM   15  C   UNL     1      43.215 -16.993   2.125  1.00  0.00     0.073 C 
HETATM   16  N   UNL     1      43.222 -19.434   2.101  1.00  0.00    -0.133 NA
HETATM   17  O   UNL     1      43.551 -20.462   2.961  1.00  0.00    -0.217 OA
HETATM   18  C   UNL     1      43.989 -19.945   4.138  1.00  0.00     0.085 A 
HETATM   19  C   UNL     1      44.386 -20.915   5.176  1.00  0.00     0.079 C 
ENDBRANCH  12  13
ENDBRANCH  11  12
ENDBRANCH   7  11
ENDBRANCH   1   5
BRANCH   2  20
HETATM   20  C   UNL     1      44.643 -11.233   7.797  1.00  0.00     0.161 C 
BRANCH  20  21
HETATM   21  C   UNL     1      44.123 -10.280   8.853  1.00  0.00    -0.041 A 
HETATM   22  C   UNL     1      42.877  -9.648   8.776  1.00  0.00     0.009 A 
HETATM   23  C   UNL     1      42.463  -8.755   9.770  1.00  0.00     0.009 A 
HETATM   24  C   UNL     1      43.290  -8.476  10.868  1.00  0.00    -0.033 A 
HETATM   25  C   UNL     1      44.524  -9.129  10.964  1.00  0.00     0.009 A 
HETATM   26  C   UNL     1      44.933 -10.021   9.971  1.00  0.00     0.009 A 
BRANCH  24  27
HETATM   27  C   UNL     1      42.858  -7.491  11.919  1.00  0.00     0.273 C 
BRANCH  27  28
HETATM   28  N   UNL     1      42.974  -8.034  13.319  1.00  0.00    -0.067 N 
HETATM   29  H   UNL     1      43.934  -8.390  13.410  1.00  0.00     0.280 HD
HETATM   30  C   UNL     1      42.028  -9.182  13.604  1.00  0.00     0.235 C 
HETATM   31  C   UNL     1      41.108  -8.658  14.689  1.00  0.00     0.029 C 
HETATM   32  C   UNL     1      42.008  -7.739  15.487  1.00  0.00     0.029 C 
HETATM   33  C   UNL     1      42.774  -6.998  14.409  1.00  0.00     0.235 C 
ENDBRANCH  27  28
ENDBRANCH  24  27
ENDBRANCH  20  21
ENDBRANCH   2  20
TORSDOF 8
ENDMDL
MODEL 4
REMARK VINA RESULT:      -8.5      2.427     10.837
REMARK  8 active torsions:
REMARK  status: ('A' for Active; 'I' for Inactive)
REMARK    1  A    between atoms: C_7  and  C_8 
REMARK    2  A    between atoms: C_8  and  O_9 
REMARK    3  A    between atoms: O_9  and  C_10 
REMARK    4  A    between atoms: C_12  and  C_13 
REMARK       I    between atoms: C_13  and  N_14 
REMARK    5  A    between atoms: N_14  and  C_15 
REMARK    6  A    between atoms: C_15  and  C_16 
REMARK    7  A    between atoms: C_19  and  C_20 
REMARK    8  A    between atoms: C_20  and  N_21 
ROOT
HETATM    1  C   UNL     1      43.793 -11.583   4.771  1.00  0.00     0.252 C 
HETATM    2  N   UNL     1      42.536 -12.149   4.854  1.00  0.00    -0.353 N 
HETATM    3  O   UNL     1      44.433 -11.514   3.730  1.00  0.00    -0.268 OA
HETATM    4  H   UNL     1      42.106 -12.300   5.755  1.00  0.00     0.163 HD
ENDROOT
BRANCH   1   5
HETATM    5  C   UNL     1      44.372 -11.070   6.043  1.00  0.00     0.034 A 
HETATM    6  C   UNL     1      43.543 -10.345   6.907  1.00  0.00     0.053 A 
HETATM    7  C   UNL     1      44.028  -9.878   8.131  1.00  0.00     0.070 A 
HETATM    8  C   UNL     1      45.356 -10.119   8.483  1.00  0.00     0.037 A 
HETATM    9  C   UNL     1      46.186 -10.852   7.629  1.00  0.00     0.004 A 
HETATM   10  C   UNL     1      45.695 -11.334   6.414  1.00  0.00     0.017 A 
BRANCH   7  11
HETATM   11  O   UNL     1      43.122  -9.185   8.882  1.00  0.00    -0.346 OA
BRANCH  11  12
HETATM   12  C   UNL     1      43.652  -8.320   9.893  1.00  0.00     0.219 C 
BRANCH  12  13
HETATM   13  C   UNL     1      43.037  -8.624  11.213  1.00  0.00     0.024 A 
HETATM   14  C   UNL     1      42.213  -7.796  12.022  1.00  0.00     0.069 A 
HETATM   15  C   UNL     1      41.745  -6.415  11.759  1.00  0.00     0.073 C 
HETATM   16  N   UNL     1      41.856  -8.416  13.153  1.00  0.00    -0.133 NA
HETATM   17  O   UNL     1      42.444  -9.663  13.102  1.00  0.00    -0.217 OA
HETATM   18  C   UNL     1      43.151  -9.784  11.948  1.00  0.00     0.085 A 
HETATM   19  C   UNL     1      43.847 -11.068  11.734  1.00  0.00     0.079 C 
ENDBRANCH  12  13
ENDBRANCH  11  12
ENDBRANCH   7  11
ENDBRANCH   1   5
BRANCH   2  20
HETATM   20  C   UNL     1      41.834 -12.599   3.675  1.00  0.00     0.161 C 
BRANCH  20  21
HETATM   21  C   UNL     1      42.092 -14.038   3.282  1.00  0.00    -0.041 A 
HETATM   22  C   UNL     1      43.077 -14.422   2.366  1.00  0.00     0.009 A 
HETATM   23  C   UNL     1      43.249 -15.767   2.021  1.00  0.00     0.009 A 
HETATM   24  C   UNL     1      42.439 -16.760   2.590  1.00  0.00    -0.033 A 
HETATM   25  C   UNL     1      41.473 -16.383   3.531  1.00  0.00     0.009 A 
HETATM   26  C   UNL     1      41.305 -15.039   3.874  1.00  0.00     0.009 A 
BRANCH  24  27
HETATM   27  C   UNL     1      42.603 -18.201   2.194  1.00  0.00     0.273 C 
BRANCH  27  28
HETATM   28  N   UNL     1      43.811 -18.850   2.817  1.00  0.00    -0.067 N 
HETATM   29  H   UNL     1      44.631 -18.392   2.398  1.00  0.00     0.280 HD
HETATM   30  C   UNL     1      43.918 -20.334   2.532  1.00  0.00     0.235 C 
HETATM   31  C   UNL     1      43.796 -20.993   3.891  1.00  0.00     0.029 C 
HETATM   32  C   UNL     1      44.454 -19.993   4.817  1.00  0.00     0.029 C 
HETATM   33  C   UNL     1      43.914 -18.667   4.319  1.00  0.00     0.235 C 
ENDBRANCH  27  28
ENDBRANCH  24  27
ENDBRANCH  20  21
ENDBRANCH   2  20
TORSDOF 8
ENDMDL
MODEL 5
REMARK VINA RESULT:      -8.5      2.559     11.093
REMARK  8 active torsions:
REMARK  status: ('A' for Active; 'I' for Inactive)
REMARK    1  A    between atoms: C_7  and  C_8 
REMARK    2  A    between atoms: C_8  and  O_9 
REMARK    3  A    between atoms: O_9  and  C_10 
REMARK    4  A    between atoms: C_12  and  C_13 
REMARK       I    between atoms: C_13  and  N_14 
REMARK    5  A    between atoms: N_14  and  C_15 
REMARK    6  A    between atoms: C_15  and  C_16 
REMARK    7  A    between atoms: C_19  and  C_20 
REMARK    8  A    between atoms: C_20  and  N_21 
ROOT
HETATM    1  C   UNL     1      44.462 -11.558   6.786  1.00  0.00     0.252 C 
HETATM    2  N   UNL     1      43.308 -12.307   6.664  1.00  0.00    -0.353 N 
HETATM    3  O   UNL     1      45.351 -11.549   5.944  1.00  0.00    -0.268 OA
HETATM    4  H   UNL     1      42.668 -12.384   7.441  1.00  0.00     0.163 HD
ENDROOT
BRANCH   1   5
HETATM    5  C   UNL     1      44.603 -10.760   8.035  1.00  0.00     0.034 A 
HETATM    6  C   UNL     1      43.564 -10.801   8.972  1.00  0.00     0.053 A 
HETATM    7  C   UNL     1      43.666 -10.103  10.177  1.00  0.00     0.070 A 
HETATM    8  C   UNL     1      44.806  -9.342  10.437  1.00  0.00     0.037 A 
HETATM    9  C   UNL     1      45.851  -9.306   9.510  1.00  0.00     0.004 A 
HETATM   10  C   UNL     1      45.756 -10.019   8.314  1.00  0.00     0.017 A 
BRANCH   7  11
HETATM   11  O   UNL     1      42.586 -10.223  11.006  1.00  0.00    -0.346 OA
BRANCH  11  12
HETATM   12  C   UNL     1      42.853 -10.230  12.412  1.00  0.00     0.219 C 
BRANCH  12  13
HETATM   13  C   UNL     1      41.939  -9.293  13.120  1.00  0.00     0.024 A 
HETATM   14  C   UNL     1      40.552  -9.437  13.391  1.00  0.00     0.069 A 
HETATM   15  C   UNL     1      39.653 -10.563  13.043  1.00  0.00     0.073 C 
HETATM   16  N   UNL     1      40.068  -8.375  14.045  1.00  0.00    -0.133 NA
HETATM   17  O   UNL     1      41.134  -7.516  14.212  1.00  0.00    -0.217 OA
HETATM   18  C   UNL     1      42.247  -8.061  13.657  1.00  0.00     0.085 A 
HETATM   19  C   UNL     1      43.486  -7.265  13.749  1.00  0.00     0.079 C 
ENDBRANCH  12  13
ENDBRANCH  11  12
ENDBRANCH   7  11
ENDBRANCH   1   5
BRANCH   2  20
HETATM   20  C   UNL     1      43.016 -13.049   5.460  1.00  0.00     0.161 C 
BRANCH  20  21
HETATM   21  C   UNL     1      43.202 -14.548   5.567  1.00  0.00    -0.041 A 
HETATM   22  C   UNL     1      44.339 -15.147   6.122  1.00  0.00     0.009 A 
HETATM   23  C   UNL     1      44.465 -16.540   6.168  1.00  0.00     0.009 A 
HETATM   24  C   UNL     1      43.452 -17.366   5.660  1.00  0.00    -0.033 A 
HETATM   25  C   UNL     1      42.300 -16.771   5.133  1.00  0.00     0.009 A 
HETATM   26  C   UNL     1      42.177 -15.380   5.090  1.00  0.00     0.009 A 
BRANCH  24  27
HETATM   27  C   UNL     1      43.603 -18.862   5.680  1.00  0.00     0.273 C 
BRANCH  27  28
HETATM   28  N   UNL     1      44.290 -19.401   4.454  1.00  0.00    -0.067 N 
HETATM   29  H   UNL     1      45.295 -19.414   4.670  1.00  0.00     0.280 HD
HETATM   30  C   UNL     1      44.096 -18.541   3.222  1.00  0.00     0.235 C 
HETATM   31  C   UNL     1      43.325 -19.422   2.259  1.00  0.00     0.029 C 
HETATM   32  C   UNL     1      43.846 -20.809   2.571  1.00  0.00     0.029 C 
HETATM   33  C   UNL     1      43.891 -20.818   4.087  1.00  0.00     0.235 C 
ENDBRANCH  27  28
ENDBRANCH  24  27
ENDBRANCH  20  21
ENDBRANCH   2  20
TORSDOF 8
ENDMDL
MODEL 6
REMARK VINA RESULT:      -8.5      1.488      2.174
REMARK  8 active torsions:
REMARK  status: ('A' for Active; 'I' for Inactive)
REMARK    1  A    between atoms: C_7  and  C_8 
REMARK    2  A    between atoms: C_8  and  O_9 
REMARK    3  A    between atoms: O_9  and  C_10 
REMARK    4  A    between atoms: C_12  and  C_13 
REMARK       I    between atoms: C_13  and  N_14 
REMARK    5  A    between atoms: N_14  and  C_15 
REMARK    6  A    between atoms: C_15  and  C_16 
REMARK    7  A    between atoms: C_19  and  C_20 
REMARK    8  A    between atoms: C_20  and  N_21 
ROOT
HETATM    1  C   UNL     1      43.198 -12.492   4.038  1.00  0.00     0.252 C 
HETATM    2  N   UNL     1      43.539 -12.670   5.364  1.00  0.00    -0.353 N 
HETATM    3  O   UNL     1      43.719 -11.652   3.315  1.00  0.00    -0.268 OA
HETATM    4  H   UNL     1      42.992 -13.282   5.952  1.00  0.00     0.163 HD
ENDROOT
BRANCH   1   5
HETATM    5  C   UNL     1      42.116 -13.369   3.512  1.00  0.00     0.034 A 
HETATM    6  C   UNL     1      42.413 -14.712   3.256  1.00  0.00     0.053 A 
HETATM    7  C   UNL     1      41.422 -15.585   2.800  1.00  0.00     0.070 A 
HETATM    8  C   UNL     1      40.130 -15.104   2.579  1.00  0.00     0.037 A 
HETATM    9  C   UNL     1      39.825 -13.766   2.843  1.00  0.00     0.004 A 
HETATM   10  C   UNL     1      40.812 -12.900   3.316  1.00  0.00     0.017 A 
BRANCH   7  11
HETATM   11  O   UNL     1      41.838 -16.868   2.587  1.00  0.00    -0.346 OA
BRANCH  11  12
HETATM   12  C   UNL     1      43.251 -17.079   2.494  1.00  0.00     0.219 C 
BRANCH  12  13
HETATM   13  C   UNL     1      43.671 -18.189   3.391  1.00  0.00     0.024 A 
HETATM   14  C   UNL     1      43.744 -19.580   3.111  1.00  0.00     0.069 A 
HETATM   15  C   UNL     1      43.426 -20.288   1.849  1.00  0.00     0.073 C 
HETATM   16  N   UNL     1      44.161 -20.273   4.177  1.00  0.00    -0.133 NA
HETATM   17  O   UNL     1      44.366 -19.343   5.175  1.00  0.00    -0.217 OA
HETATM   18  C   UNL     1      44.070 -18.103   4.707  1.00  0.00     0.085 A 
HETATM   19  C   UNL     1      44.239 -16.984   5.655  1.00  0.00     0.079 C 
ENDBRANCH  12  13
ENDBRANCH  11  12
ENDBRANCH   7  11
ENDBRANCH   1   5
BRANCH   2  20
HETATM   20  C   UNL     1      44.634 -11.943   5.964  1.00  0.00     0.161 C 
BRANCH  20  21
HETATM   21  C   UNL     1      44.247 -11.011   7.092  1.00  0.00    -0.041 A 
HETATM   22  C   UNL     1      43.006 -10.369   7.171  1.00  0.00     0.009 A 
HETATM   23  C   UNL     1      42.717  -9.496   8.225  1.00  0.00     0.009 A 
HETATM   24  C   UNL     1      43.664  -9.248   9.228  1.00  0.00    -0.033 A 
HETATM   25  C   UNL     1      44.895  -9.912   9.169  1.00  0.00     0.009 A 
HETATM   26  C   UNL     1      45.180 -10.785   8.116  1.00  0.00     0.009 A 
BRANCH  24  27
HETATM   27  C   UNL     1      43.365  -8.284  10.343  1.00  0.00     0.273 C 
BRANCH  27  28
HETATM   28  N   UNL     1      43.458  -8.914  11.708  1.00  0.00    -0.067 N 
HETATM   29  H   UNL     1      44.421  -9.261  11.798  1.00  0.00     0.280 HD
HETATM   30  C   UNL     1      42.524 -10.092  11.898  1.00  0.00     0.235 C 
HETATM   31  C   UNL     1      41.573  -9.651  12.991  1.00  0.00     0.029 C 
HETATM   32  C   UNL     1      42.440  -8.772  13.868  1.00  0.00     0.029 C 
HETATM   33  C   UNL     1      43.218  -7.953  12.856  1.00  0.00     0.235 C 
ENDBRANCH  27  28
ENDBRANCH  24  27
ENDBRANCH  20  21
ENDBRANCH   2  20
TORSDOF 8
ENDMDL
MODEL 7
REMARK VINA RESULT:      -8.4      1.766      2.876
REMARK  8 active torsions:
REMARK  status: ('A' for Active; 'I' for Inactive)
REMARK    1  A    between atoms: C_7  and  C_8 
REMARK    2  A    between atoms: C_8  and  O_9 
REMARK    3  A    between atoms: O_9  and  C_10 
REMARK    4  A    between atoms: C_12  and  C_13 
REMARK       I    between atoms: C_13  and  N_14 
REMARK    5  A    between atoms: N_14  and  C_15 
REMARK    6  A    between atoms: C_15  and  C_16 
REMARK    7  A    between atoms: C_19  and  C_20 
REMARK    8  A    between atoms: C_20  and  N_21 
ROOT
HETATM    1  C   UNL     1      45.153 -11.242   7.361  1.00  0.00     0.252 C 
HETATM    2  N   UNL     1      44.472 -10.863   8.500  1.00  0.00    -0.353 N 
HETATM    3  O   UNL     1      46.334 -10.984   7.164  1.00  0.00    -0.268 OA
HETATM    4  H   UNL     1      43.471 -10.983   8.557  1.00  0.00     0.163 HD
ENDROOT
BRANCH   1   5
HETATM    5  C   UNL     1      44.364 -11.975   6.332  1.00  0.00     0.034 A 
HETATM    6  C   UNL     1      43.974 -13.291   6.605  1.00  0.00     0.053 A 
HETATM    7  C   UNL     1      43.198 -14.006   5.690  1.00  0.00     0.070 A 
HETATM    8  C   UNL     1      42.828 -13.407   4.485  1.00  0.00     0.037 A 
HETATM    9  C   UNL     1      43.205 -12.089   4.212  1.00  0.00     0.004 A 
HETATM   10  C   UNL     1      43.964 -11.369   5.136  1.00  0.00     0.017 A 
BRANCH   7  11
HETATM   11  O   UNL     1      42.885 -15.280   6.071  1.00  0.00    -0.346 OA
BRANCH  11  12
HETATM   12  C   UNL     1      42.128 -16.062   5.141  1.00  0.00     0.219 C 
BRANCH  12  13
HETATM   13  C   UNL     1      42.978 -17.126   4.544  1.00  0.00     0.024 A 
HETATM   14  C   UNL     1      43.561 -18.259   5.174  1.00  0.00     0.069 A 
HETATM   15  C   UNL     1      43.468 -18.678   6.592  1.00  0.00     0.073 C 
HETATM   16  N   UNL     1      44.271 -18.989   4.307  1.00  0.00    -0.133 NA
HETATM   17  O   UNL     1      44.166 -18.344   3.093  1.00  0.00    -0.217 OA
HETATM   18  C   UNL     1      43.399 -17.232   3.235  1.00  0.00     0.085 A 
HETATM   19  C   UNL     1      43.184 -16.421   2.021  1.00  0.00     0.079 C 
ENDBRANCH  12  13
ENDBRANCH  11  12
ENDBRANCH   7  11
ENDBRANCH   1   5
BRANCH   2  20
HETATM   20  C   UNL     1      45.150 -10.229   9.606  1.00  0.00     0.161 C 
BRANCH  20  21
HETATM   21  C   UNL     1      44.262  -9.852  10.774  1.00  0.00    -0.041 A 
HETATM   22  C   UNL     1      44.004  -8.529  11.151  1.00  0.00     0.009 A 
HETATM   23  C   UNL     1      43.197  -8.244  12.258  1.00  0.00     0.009 A 
HETATM   24  C   UNL     1      42.627  -9.280  13.012  1.00  0.00    -0.033 A 
HETATM   25  C   UNL     1      42.858 -10.604  12.620  1.00  0.00     0.009 A 
HETATM   26  C   UNL     1      43.663 -10.884  11.513  1.00  0.00     0.009 A 
BRANCH  24  27
HETATM   27  C   UNL     1      41.787  -8.973  14.221  1.00  0.00     0.273 C 
BRANCH  27  28
HETATM   28  N   UNL     1      41.556  -7.498  14.420  1.00  0.00    -0.067 N 
HETATM   29  H   UNL     1      42.115  -7.021  13.702  1.00  0.00     0.280 HD
HETATM   30  C   UNL     1      42.014  -6.989  15.772  1.00  0.00     0.235 C 
HETATM   31  C   UNL     1      40.744  -6.516  16.451  1.00  0.00     0.029 C 
HETATM   32  C   UNL     1      39.910  -6.001  15.297  1.00  0.00     0.029 C 
HETATM   33  C   UNL     1      40.116  -7.062  14.233  1.00  0.00     0.235 C 
ENDBRANCH  27  28
ENDBRANCH  24  27
ENDBRANCH  20  21
ENDBRANCH   2  20
TORSDOF 8
ENDMDL
MODEL 8
REMARK VINA RESULT:      -7.9      2.176      3.774
REMARK  8 active torsions:
REMARK  status: ('A' for Active; 'I' for Inactive)
REMARK    1  A    between atoms: C_7  and  C_8 
REMARK    2  A    between atoms: C_8  and  O_9 
REMARK    3  A    between atoms: O_9  and  C_10 
REMARK    4  A    between atoms: C_12  and  C_13 
REMARK       I    between atoms: C_13  and  N_14 
REMARK    5  A    between atoms: N_14  and  C_15 
REMARK    6  A    between atoms: C_15  and  C_16 
REMARK    7  A    between atoms: C_19  and  C_20 
REMARK    8  A    between atoms: C_20  and  N_21 
ROOT
HETATM    1  C   UNL     1      44.163 -11.126   8.077  1.00  0.00     0.252 C 
HETATM    2  N   UNL     1      43.558 -10.546   9.174  1.00  0.00    -0.353 N 
HETATM    3  O   UNL     1      45.370 -11.318   7.997  1.00  0.00    -0.268 OA
HETATM    4  H   UNL     1      42.582 -10.289   9.139  1.00  0.00     0.163 HD
ENDROOT
BRANCH   1   5
HETATM    5  C   UNL     1      43.269 -11.493   6.945  1.00  0.00     0.034 A 
HETATM    6  C   UNL     1      43.535 -12.674   6.243  1.00  0.00     0.053 A 
HETATM    7  C   UNL     1      42.700 -13.083   5.200  1.00  0.00     0.070 A 
HETATM    8  C   UNL     1      41.605 -12.295   4.844  1.00  0.00     0.037 A 
HETATM    9  C   UNL     1      41.328 -11.121   5.550  1.00  0.00     0.004 A 
HETATM   10  C   UNL     1      42.152 -10.722   6.604  1.00  0.00     0.017 A 
BRANCH   7  11
HETATM   11  O   UNL     1      43.068 -14.251   4.593  1.00  0.00    -0.346 OA
BRANCH  11  12
HETATM   12  C   UNL     1      42.221 -15.384   4.815  1.00  0.00     0.219 C 
BRANCH  12  13
HETATM   13  C   UNL     1      42.974 -16.647   4.592  1.00  0.00     0.024 A 
HETATM   14  C   UNL     1      43.361 -17.248   3.364  1.00  0.00     0.069 A 
HETATM   15  C   UNL     1      43.120 -16.769   1.983  1.00  0.00     0.073 C 
HETATM   16  N   UNL     1      44.023 -18.393   3.566  1.00  0.00    -0.133 NA
HETATM   17  O   UNL     1      44.079 -18.562   4.934  1.00  0.00    -0.217 OA
HETATM   18  C   UNL     1      43.450 -17.524   5.544  1.00  0.00     0.085 A 
HETATM   19  C   UNL     1      43.419 -17.549   7.019  1.00  0.00     0.079 C 
ENDBRANCH  12  13
ENDBRANCH  11  12
ENDBRANCH   7  11
ENDBRANCH   1   5
BRANCH   2  20
HETATM   20  C   UNL     1      44.307 -10.230  10.368  1.00  0.00     0.161 C 
BRANCH  20  21
HETATM   21  C   UNL     1      43.479  -9.730  11.533  1.00  0.00    -0.041 A 
HETATM   22  C   UNL     1      42.440 -10.467  12.113  1.00  0.00     0.009 A 
HETATM   23  C   UNL     1      41.692  -9.940  13.172  1.00  0.00     0.009 A 
HETATM   24  C   UNL     1      41.969  -8.661  13.675  1.00  0.00    -0.033 A 
HETATM   25  C   UNL     1      43.027  -7.933  13.117  1.00  0.00     0.009 A 
HETATM   26  C   UNL     1      43.773  -8.464  12.062  1.00  0.00     0.009 A 
BRANCH  24  27
HETATM   27  C   UNL     1      41.143  -8.082  14.790  1.00  0.00     0.273 C 
BRANCH  27  28
HETATM   28  N   UNL     1      40.429  -6.815  14.398  1.00  0.00    -0.067 N 
HETATM   29  H   UNL     1      41.085  -6.285  13.812  1.00  0.00     0.280 HD
HETATM   30  C   UNL     1      40.055  -5.940  15.578  1.00  0.00     0.235 C 
HETATM   31  C   UNL     1      38.540  -5.910  15.565  1.00  0.00     0.029 C 
HETATM   32  C   UNL     1      38.208  -5.981  14.090  1.00  0.00     0.029 C 
HETATM   33  C   UNL     1      39.171  -7.035  13.579  1.00  0.00     0.235 C 
ENDBRANCH  27  28
ENDBRANCH  24  27
ENDBRANCH  20  21
ENDBRANCH   2  20
TORSDOF 8
ENDMDL
MODEL 9
REMARK VINA RESULT:      -7.9      2.875      5.788
REMARK  8 active torsions:
REMARK  status: ('A' for Active; 'I' for Inactive)
REMARK    1  A    between atoms: C_7  and  C_8 
REMARK    2  A    between atoms: C_8  and  O_9 
REMARK    3  A    between atoms: O_9  and  C_10 
REMARK    4  A    between atoms: C_12  and  C_13 
REMARK       I    between atoms: C_13  and  N_14 
REMARK    5  A    between atoms: N_14  and  C_15 
REMARK    6  A    between atoms: C_15  and  C_16 
REMARK    7  A    between atoms: C_19  and  C_20 
REMARK    8  A    between atoms: C_20  and  N_21 
ROOT
HETATM    1  C   UNL     1      43.662 -10.602  10.750  1.00  0.00     0.252 C 
HETATM    2  N   UNL     1      42.528  -9.816  10.786  1.00  0.00    -0.353 N 
HETATM    3  O   UNL     1      43.999 -11.341  11.667  1.00  0.00    -0.268 OA
HETATM    4  H   UNL     1      42.364  -9.128  10.065  1.00  0.00     0.163 HD
ENDROOT
BRANCH   1   5
HETATM    5  C   UNL     1      44.504 -10.493   9.528  1.00  0.00     0.034 A 
HETATM    6  C   UNL     1      44.264 -11.380   8.472  1.00  0.00     0.053 A 
HETATM    7  C   UNL     1      44.999 -11.291   7.288  1.00  0.00     0.070 A 
HETATM    8  C   UNL     1      45.995 -10.321   7.167  1.00  0.00     0.037 A 
HETATM    9  C   UNL     1      46.232  -9.426   8.214  1.00  0.00     0.004 A 
HETATM   10  C   UNL     1      45.484  -9.504   9.389  1.00  0.00     0.017 A 
BRANCH   7  11
HETATM   11  O   UNL     1      44.671 -12.214   6.336  1.00  0.00    -0.346 OA
BRANCH  11  12
HETATM   12  C   UNL     1      43.275 -12.462   6.135  1.00  0.00     0.219 C 
BRANCH  12  13
HETATM   13  C   UNL     1      43.067 -13.804   5.528  1.00  0.00     0.024 A 
HETATM   14  C   UNL     1      42.931 -15.062   6.176  1.00  0.00     0.069 A 
HETATM   15  C   UNL     1      42.956 -15.363   7.626  1.00  0.00     0.073 C 
HETATM   16  N   UNL     1      42.766 -16.052   5.292  1.00  0.00    -0.133 NA
HETATM   17  O   UNL     1      42.792 -15.457   4.048  1.00  0.00    -0.217 OA
HETATM   18  C   UNL     1      42.976 -14.119   4.189  1.00  0.00     0.085 A 
HETATM   19  C   UNL     1      43.028 -13.326   2.946  1.00  0.00     0.079 C 
ENDBRANCH  12  13
ENDBRANCH  11  12
ENDBRANCH   7  11
ENDBRANCH   1   5
BRANCH   2  20
HETATM   20  C   UNL     1      41.586  -9.903  11.877  1.00  0.00     0.161 C 
BRANCH  20  21
HETATM   21  C   UNL     1      41.671  -8.782  12.892  1.00  0.00    -0.041 A 
HETATM   22  C   UNL     1      42.879  -8.210  13.310  1.00  0.00     0.009 A 
HETATM   23  C   UNL     1      42.896  -7.195  14.272  1.00  0.00     0.009 A 
HETATM   24  C   UNL     1      41.701  -6.728  14.839  1.00  0.00    -0.033 A 
HETATM   25  C   UNL     1      40.490  -7.276  14.401  1.00  0.00     0.009 A 
HETATM   26  C   UNL     1      40.476  -8.288  13.438  1.00  0.00     0.009 A 
BRANCH  24  27
HETATM   27  C   UNL     1      41.723  -5.660  15.897  1.00  0.00     0.273 C 
BRANCH  27  28
HETATM   28  N   UNL     1      42.083  -6.189  17.261  1.00  0.00    -0.067 N 
HETATM   29  H   UNL     1      43.103  -6.320  17.258  1.00  0.00     0.280 HD
HETATM   30  C   UNL     1      41.448  -7.527  17.579  1.00  0.00     0.235 C 
HETATM   31  C   UNL     1      40.535  -7.245  18.756  1.00  0.00     0.029 C 
HETATM   32  C   UNL     1      41.275  -6.162  19.512  1.00  0.00     0.029 C 
HETATM   33  C   UNL     1      41.755  -5.246  18.403  1.00  0.00     0.235 C 
ENDBRANCH  27  28
ENDBRANCH  24  27
ENDBRANCH  20  21
ENDBRANCH   2  20
TORSDOF 8
ENDMDL
MODEL 10
REMARK VINA RESULT:      -7.7      3.857     10.873
REMARK  8 active torsions:
REMARK  status: ('A' for Active; 'I' for Inactive)
REMARK    1  A    between atoms: C_7  and  C_8 
REMARK    2  A    between atoms: C_8  and  O_9 
REMARK    3  A    between atoms: O_9  and  C_10 
REMARK    4  A    between atoms: C_12  and  C_13 
REMARK       I    between atoms: C_13  and  N_14 
REMARK    5  A    between atoms: N_14  and  C_15 
REMARK    6  A    between atoms: C_15  and  C_16 
REMARK    7  A    between atoms: C_19  and  C_20 
REMARK    8  A    between atoms: C_20  and  N_21 
ROOT
HETATM    1  C   UNL     1      43.615 -12.746   6.880  1.00  0.00     0.252 C 
HETATM    2  N   UNL     1      42.304 -12.488   6.532  1.00  0.00    -0.353 N 
HETATM    3  O   UNL     1      44.138 -13.847   6.765  1.00  0.00    -0.268 OA
HETATM    4  H   UNL     1      41.881 -11.602   6.767  1.00  0.00     0.163 HD
ENDROOT
BRANCH   1   5
HETATM    5  C   UNL     1      44.384 -11.605   7.449  1.00  0.00     0.034 A 
HETATM    6  C   UNL     1      43.837 -10.907   8.531  1.00  0.00     0.053 A 
HETATM    7  C   UNL     1      44.538  -9.856   9.127  1.00  0.00     0.070 A 
HETATM    8  C   UNL     1      45.786  -9.487   8.622  1.00  0.00     0.037 A 
HETATM    9  C   UNL     1      46.342 -10.188   7.548  1.00  0.00     0.004 A 
HETATM   10  C   UNL     1      45.648 -11.251   6.966  1.00  0.00     0.017 A 
BRANCH   7  11
HETATM   11  O   UNL     1      43.897  -9.255  10.172  1.00  0.00    -0.346 OA
BRANCH  11  12
HETATM   12  C   UNL     1      43.112 -10.102  11.018  1.00  0.00     0.219 C 
BRANCH  12  13
HETATM   13  C   UNL     1      41.841  -9.428  11.395  1.00  0.00     0.024 A 
HETATM   14  C   UNL     1      41.413  -8.986  12.676  1.00  0.00     0.069 A 
HETATM   15  C   UNL     1      42.127  -9.076  13.972  1.00  0.00     0.073 C 
HETATM   16  N   UNL     1      40.198  -8.430  12.622  1.00  0.00    -0.133 NA
HETATM   17  O   UNL     1      39.809  -8.500  11.301  1.00  0.00    -0.217 OA
HETATM   18  C   UNL     1      40.786  -9.099  10.572  1.00  0.00     0.085 A 
HETATM   19  C   UNL     1      40.528  -9.254   9.127  1.00  0.00     0.079 C 
ENDBRANCH  12  13
ENDBRANCH  11  12
ENDBRANCH   7  11
ENDBRANCH   1   5
BRANCH   2  20
HETATM   20  C   UNL     1      41.486 -13.488   5.887  1.00  0.00     0.161 C 
BRANCH  20  21
HETATM   21  C   UNL     1      41.174 -13.223   4.429  1.00  0.00    -0.041 A 
HETATM   22  C   UNL     1      39.876 -13.042   3.938  1.00  0.00     0.009 A 
HETATM   23  C   UNL     1      39.650 -12.827   2.574  1.00  0.00     0.009 A 
HETATM   24  C   UNL     1      40.720 -12.786   1.670  1.00  0.00    -0.033 A 
HETATM   25  C   UNL     1      42.023 -12.936   2.161  1.00  0.00     0.009 A 
HETATM   26  C   UNL     1      42.245 -13.148   3.524  1.00  0.00     0.009 A 
BRANCH  24  27
HETATM   27  C   UNL     1      40.473 -12.589   0.200  1.00  0.00     0.273 C 
BRANCH  27  28
HETATM   28  N   UNL     1      39.223 -13.275  -0.286  1.00  0.00    -0.067 N 
HETATM   29  H   UNL     1      38.688 -13.525   0.555  1.00  0.00     0.280 HD
HETATM   30  C   UNL     1      39.493 -14.552  -1.056  1.00  0.00     0.235 C 
HETATM   31  C   UNL     1      38.979 -14.269  -2.454  1.00  0.00     0.029 C 
HETATM   32  C   UNL     1      37.801 -13.352  -2.207  1.00  0.00     0.029 C 
HETATM   33  C   UNL     1      38.328 -12.405  -1.147  1.00  0.00     0.235 C 
ENDBRANCH  27  28
ENDBRANCH  24  27
ENDBRANCH  20  21
ENDBRANCH   2  20
TORSDOF 8
ENDMDL
