MODEL 1
REMARK VINA RESULT:      -8.3      0.000      0.000
REMARK  7 active torsions:
REMARK  status: ('A' for Active; 'I' for Inactive)
REMARK       I    between atoms: C_2  and  N_3 
REMARK    1  A    between atoms: N_3  and  C_4 
REMARK    2  A    between atoms: C_7  and  N_8 
REMARK       I    between atoms: N_8  and  C_9 
REMARK    3  A    between atoms: C_9  and  C_10 
REMARK    4  A    between atoms: C_11  and  C_12 
REMARK    5  A    between atoms: C_13  and  O_14 
REMARK    6  A    between atoms: N_20  and  C_21 
REMARK    7  A    between atoms: C_24  and  O_25 
ROOT
HETATM    1  C   UNL     1      39.719 -11.953   4.788  1.00  0.00     0.106 C 
HETATM    2  C   UNL     1      40.981 -12.688   4.295  1.00  0.00     0.142 C 
HETATM    3  N   UNL     1      40.649 -13.426   3.041  1.00  0.00    -0.308 N 
HETATM    4  C   UNL     1      40.040 -12.715   1.995  1.00  0.00     0.225 C 
HETATM    5  O   UNL     1      40.084 -13.034   0.804  1.00  0.00    -0.273 OA
HETATM    6  C   UNL     1      39.091 -11.592   2.400  1.00  0.00     0.104 C 
HETATM    7  C   UNL     1      39.359 -10.913   3.731  1.00  0.00     0.026 C 
ENDROOT
BRANCH   1   8
HETATM    8  C   UNL     1      39.785 -11.291   6.161  1.00  0.00     0.228 C 
HETATM    9  N   UNL     1      40.694 -10.261   6.305  1.00  0.00    -0.327 N 
HETATM   10  H   UNL     1      41.315 -10.065   5.531  1.00  0.00     0.169 HD
HETATM   11  O   UNL     1      39.011 -11.692   7.030  1.00  0.00    -0.273 OA
BRANCH   9  12
HETATM   12  C   UNL     1      41.021  -9.601   7.513  1.00  0.00     0.034 A 
HETATM   13  C   UNL     1      40.090  -8.963   8.332  1.00  0.00     0.032 A 
HETATM   14  C   UNL     1      40.478  -8.388   9.552  1.00  0.00     0.032 A 
HETATM   15  C   UNL     1      41.803  -8.442   9.973  1.00  0.00     0.034 A 
HETATM   16  C   UNL     1      42.745  -9.051   9.137  1.00  0.00     0.032 A 
HETATM   17  C   UNL     1      42.358  -9.621   7.916  1.00  0.00     0.032 A 
BRANCH  15  18
HETATM   18  N   UNL     1      42.261  -7.932  11.206  1.00  0.00    -0.328 N 
HETATM   19  C   UNL     1      42.557  -8.650  12.353  1.00  0.00     0.218 C 
HETATM   20  C   UNL     1      43.090  -7.777  13.463  1.00  0.00     0.117 C 
HETATM   21  O   UNL     1      42.457  -9.859  12.513  1.00  0.00    -0.274 OA
HETATM   22  H   UNL     1      42.418  -6.934  11.239  1.00  0.00     0.169 HD
ENDBRANCH  15  18
ENDBRANCH   9  12
ENDBRANCH   1   8
BRANCH   2  23
HETATM   23  C   UNL     1      41.772 -13.430   5.373  1.00  0.00    -0.001 A 
HETATM   24  C   UNL     1      43.026 -12.936   5.793  1.00  0.00     0.076 A 
HETATM   25  C   UNL     1      43.738 -13.574   6.815  1.00  0.00     0.037 A 
HETATM   26  C   UNL     1      43.226 -14.723   7.412  1.00  0.00     0.003 A 
HETATM   27  C   UNL     1      42.001 -15.236   6.994  1.00  0.00     0.001 A 
HETATM   28  C   UNL     1      41.279 -14.597   5.985  1.00  0.00     0.012 A 
BRANCH  24  29
HETATM   29  O   UNL     1      43.475 -11.772   5.221  1.00  0.00    -0.355 OA
HETATM   30  C   UNL     1      44.770 -11.370   5.667  1.00  0.00     0.210 C 
ENDBRANCH  24  29
ENDBRANCH   2  23
BRANCH   3  31
HETATM   31  C   UNL     1      41.324 -14.653   2.750  1.00  0.00     0.038 A 
HETATM   32  C   UNL     1      40.677 -15.889   2.816  1.00  0.00     0.032 A 
HETATM   33  C   UNL     1      41.372 -17.069   2.526  1.00  0.00     0.039 A 
HETATM   34  C   UNL     1      42.724 -17.036   2.181  1.00  0.00     0.068 A 
HETATM   35  C   UNL     1      43.383 -15.810   2.146  1.00  0.00     0.039 A 
HETATM   36  C   UNL     1      42.688 -14.632   2.441  1.00  0.00     0.032 A 
BRANCH  34  37
HETATM   37  O   UNL     1      43.280 -18.256   1.911  1.00  0.00    -0.356 OA
HETATM   38  C   UNL     1      44.062 -18.845   2.944  1.00  0.00     0.210 C 
ENDBRANCH  34  37
ENDBRANCH   3  31
TORSDOF 7
ENDMDL
MODEL 2
REMARK VINA RESULT:      -8.1      2.190      4.281
REMARK  7 active torsions:
REMARK  status: ('A' for Active; 'I' for Inactive)
REMARK       I    between atoms: C_2  and  N_3 
REMARK    1  A    between atoms: N_3  and  C_4 
REMARK    2  A    between atoms: C_7  and  N_8 
REMARK       I    between atoms: N_8  and  C_9 
REMARK    3  A    between atoms: C_9  and  C_10 
REMARK    4  A    between atoms: C_11  and  C_12 
REMARK    5  A    between atoms: C_13  and  O_14 
REMARK    6  A    between atoms: N_20  and  C_21 
REMARK    7  A    between atoms: C_24  and  O_25 
ROOT
HETATM    1  C   UNL     1      43.906 -13.465   6.140  1.00  0.00     0.106 C 
HETATM    2  C   UNL     1      42.559 -13.607   5.404  1.00  0.00     0.142 C 
HETATM    3  N   UNL     1      42.532 -14.924   4.701  1.00  0.00    -0.308 N 
HETATM    4  C   UNL     1      42.824 -16.079   5.444  1.00  0.00     0.225 C 
HETATM    5  O   UNL     1      42.451 -17.219   5.155  1.00  0.00    -0.273 OA
HETATM    6  C   UNL     1      43.844 -15.922   6.567  1.00  0.00     0.104 C 
HETATM    7  C   UNL     1      43.954 -14.551   7.209  1.00  0.00     0.026 C 
ENDROOT
BRANCH   1   8
HETATM    8  C   UNL     1      44.222 -12.110   6.766  1.00  0.00     0.228 C 
HETATM    9  N   UNL     1      43.276 -11.596   7.632  1.00  0.00    -0.327 N 
HETATM   10  H   UNL     1      42.403 -12.097   7.731  1.00  0.00     0.169 HD
HETATM   11  O   UNL     1      45.300 -11.586   6.489  1.00  0.00    -0.273 OA
BRANCH   9  12
HETATM   12  C   UNL     1      43.294 -10.308   8.215  1.00  0.00     0.034 A 
HETATM   13  C   UNL     1      44.022  -9.976   9.357  1.00  0.00     0.032 A 
HETATM   14  C   UNL     1      44.046  -8.659   9.840  1.00  0.00     0.032 A 
HETATM   15  C   UNL     1      43.342  -7.651   9.188  1.00  0.00     0.034 A 
HETATM   16  C   UNL     1      42.583  -7.987   8.062  1.00  0.00     0.032 A 
HETATM   17  C   UNL     1      42.555  -9.304   7.583  1.00  0.00     0.032 A 
BRANCH  15  18
HETATM   18  N   UNL     1      43.357  -6.296   9.582  1.00  0.00    -0.328 N 
HETATM   19  C   UNL     1      42.433  -5.644  10.382  1.00  0.00     0.218 C 
HETATM   20  C   UNL     1      42.809  -4.208  10.652  1.00  0.00     0.117 C 
HETATM   21  O   UNL     1      41.420  -6.121  10.879  1.00  0.00    -0.274 OA
HETATM   22  H   UNL     1      44.150  -5.754   9.268  1.00  0.00     0.169 HD
ENDBRANCH  15  18
ENDBRANCH   9  12
ENDBRANCH   1   8
BRANCH   2  23
HETATM   23  C   UNL     1      42.102 -12.372   4.627  1.00  0.00    -0.001 A 
HETATM   24  C   UNL     1      40.969 -11.648   5.056  1.00  0.00     0.076 A 
HETATM   25  C   UNL     1      40.569 -10.486   4.387  1.00  0.00     0.037 A 
HETATM   26  C   UNL     1      41.272 -10.046   3.269  1.00  0.00     0.003 A 
HETATM   27  C   UNL     1      42.378 -10.761   2.818  1.00  0.00     0.001 A 
HETATM   28  C   UNL     1      42.791 -11.913   3.490  1.00  0.00     0.012 A 
BRANCH  24  29
HETATM   29  O   UNL     1      40.332 -12.081   6.193  1.00  0.00    -0.355 OA
HETATM   30  C   UNL     1      39.256 -11.239   6.609  1.00  0.00     0.210 C 
ENDBRANCH  24  29
ENDBRANCH   2  23
BRANCH   3  31
HETATM   31  C   UNL     1      41.807 -15.049   3.475  1.00  0.00     0.038 A 
HETATM   32  C   UNL     1      40.410 -15.068   3.438  1.00  0.00     0.032 A 
HETATM   33  C   UNL     1      39.736 -15.193   2.217  1.00  0.00     0.039 A 
HETATM   34  C   UNL     1      40.441 -15.317   1.019  1.00  0.00     0.068 A 
HETATM   35  C   UNL     1      41.833 -15.332   1.053  1.00  0.00     0.039 A 
HETATM   36  C   UNL     1      42.506 -15.211   2.274  1.00  0.00     0.032 A 
BRANCH  34  37
HETATM   37  O   UNL     1      39.663 -15.420  -0.100  1.00  0.00    -0.356 OA
HETATM   38  C   UNL     1      39.593 -14.272  -0.938  1.00  0.00     0.210 C 
ENDBRANCH  34  37
ENDBRANCH   3  31
TORSDOF 7
ENDMDL
MODEL 3
REMARK VINA RESULT:      -7.8      2.825      8.753
REMARK  7 active torsions:
REMARK  status: ('A' for Active; 'I' for Inactive)
REMARK       I    between atoms: C_2  and  N_3 
REMARK    1  A    between atoms: N_3  and  C_4 
REMARK    2  A    between atoms: C_7  and  N_8 
REMARK       I    between atoms: N_8  and  C_9 
REMARK    3  A    between atoms: C_9  and  C_10 
REMARK    4  A    between atoms: C_11  and  C_12 
REMARK    5  A    between atoms: C_13  and  O_14 
REMARK    6  A    between atoms: N_20  and  C_21 
REMARK    7  A    between atoms: C_24  and  O_25 
ROOT
HETATM    1  C   UNL     1      43.777 -10.987   7.742  1.00  0.00     0.106 C 
HETATM    2  C   UNL     1      42.947  -9.960   6.949  1.00  0.00     0.142 C 
HETATM    3  N   UNL     1      42.718  -8.760   7.807  1.00  0.00    -0.308 N 
HETATM    4  C   UNL     1      43.833  -8.151   8.407  1.00  0.00     0.225 C 
HETATM    5  O   UNL     1      43.884  -6.974   8.773  1.00  0.00    -0.273 OA
HETATM    6  C   UNL     1      44.973  -9.078   8.815  1.00  0.00     0.104 C 
HETATM    7  C   UNL     1      45.139 -10.357   8.013  1.00  0.00     0.026 C 
ENDROOT
BRANCH   1   8
HETATM    8  C   UNL     1      43.962 -12.368   7.121  1.00  0.00     0.228 C 
HETATM    9  N   UNL     1      42.925 -13.264   7.293  1.00  0.00    -0.327 N 
HETATM   10  H   UNL     1      42.154 -12.988   7.887  1.00  0.00     0.169 HD
HETATM   11  O   UNL     1      44.995 -12.580   6.487  1.00  0.00    -0.273 OA
BRANCH   9  12
HETATM   12  C   UNL     1      42.935 -14.631   6.926  1.00  0.00     0.034 A 
HETATM   13  C   UNL     1      42.561 -15.106   5.670  1.00  0.00     0.032 A 
HETATM   14  C   UNL     1      42.662 -16.470   5.356  1.00  0.00     0.032 A 
HETATM   15  C   UNL     1      43.140 -17.381   6.292  1.00  0.00     0.034 A 
HETATM   16  C   UNL     1      43.485 -16.912   7.565  1.00  0.00     0.032 A 
HETATM   17  C   UNL     1      43.379 -15.550   7.880  1.00  0.00     0.032 A 
BRANCH  15  18
HETATM   18  N   UNL     1      43.318 -18.757   6.036  1.00  0.00    -0.328 N 
HETATM   19  C   UNL     1      44.121 -19.333   5.065  1.00  0.00     0.218 C 
HETATM   20  C   UNL     1      44.119 -20.841   5.130  1.00  0.00     0.117 C 
HETATM   21  O   UNL     1      44.812 -18.752   4.238  1.00  0.00    -0.274 OA
HETATM   22  H   UNL     1      42.825 -19.388   6.653  1.00  0.00     0.169 HD
ENDBRANCH  15  18
ENDBRANCH   9  12
ENDBRANCH   1   8
BRANCH   2  23
HETATM   23  C   UNL     1      41.752 -10.530   6.185  1.00  0.00    -0.001 A 
HETATM   24  C   UNL     1      41.852 -10.773   4.798  1.00  0.00     0.076 A 
HETATM   25  C   UNL     1      40.786 -11.344   4.094  1.00  0.00     0.037 A 
HETATM   26  C   UNL     1      39.599 -11.654   4.754  1.00  0.00     0.003 A 
HETATM   27  C   UNL     1      39.475 -11.400   6.117  1.00  0.00     0.001 A 
HETATM   28  C   UNL     1      40.541 -10.844   6.828  1.00  0.00     0.012 A 
BRANCH  24  29
HETATM   29  O   UNL     1      43.054 -10.505   4.191  1.00  0.00    -0.355 OA
HETATM   30  C   UNL     1      43.588 -11.605   3.454  1.00  0.00     0.210 C 
ENDBRANCH  24  29
ENDBRANCH   2  23
BRANCH   3  31
HETATM   31  C   UNL     1      41.512  -8.008   7.653  1.00  0.00     0.038 A 
HETATM   32  C   UNL     1      41.260  -7.234   6.517  1.00  0.00     0.032 A 
HETATM   33  C   UNL     1      40.068  -6.510   6.403  1.00  0.00     0.039 A 
HETATM   34  C   UNL     1      39.116  -6.533   7.425  1.00  0.00     0.068 A 
HETATM   35  C   UNL     1      39.377  -7.275   8.574  1.00  0.00     0.039 A 
HETATM   36  C   UNL     1      40.571  -7.994   8.689  1.00  0.00     0.032 A 
BRANCH  34  37
HETATM   37  O   UNL     1      37.993  -5.792   7.183  1.00  0.00    -0.356 OA
HETATM   38  C   UNL     1      37.152  -6.234   6.123  1.00  0.00     0.210 C 
ENDBRANCH  34  37
ENDBRANCH   3  31
TORSDOF 7
ENDMDL
MODEL 4
REMARK VINA RESULT:      -7.4      4.846      8.771
REMARK  7 active torsions:
REMARK  status: ('A' for Active; 'I' for Inactive)
REMARK       I    between atoms: C_2  and  N_3 
REMARK    1  A    between atoms: N_3  and  C_4 
REMARK    2  A    between atoms: C_7  and  N_8 
REMARK       I    between atoms: N_8  and  C_9 
REMARK    3  A    between atoms: C_9  and  C_10 
REMARK    4  A    between atoms: C_11  and  C_12 
REMARK    5  A    between atoms: C_13  and  O_14 
REMARK    6  A    between atoms: N_20  and  C_21 
REMARK    7  A    between atoms: C_24  and  O_25 
ROOT
HETATM    1  C   UNL     1      40.961 -13.563  -0.288  1.00  0.00     0.106 C 
HETATM    2  C   UNL     1      40.348 -12.195   0.071  1.00  0.00     0.142 C 
HETATM    3  N   UNL     1      40.462 -11.291  -1.112  1.00  0.00    -0.308 N 
HETATM    4  C   UNL     1      39.979 -11.751  -2.347  1.00  0.00     0.225 C 
HETATM    5  O   UNL     1      39.618 -11.026  -3.279  1.00  0.00    -0.273 OA
HETATM    6  C   UNL     1      40.112 -13.246  -2.613  1.00  0.00     0.104 C 
HETATM    7  C   UNL     1      40.109 -14.162  -1.403  1.00  0.00     0.026 C 
ENDROOT
BRANCH   1   8
HETATM    8  C   UNL     1      41.122 -14.576   0.840  1.00  0.00     0.228 C 
HETATM    9  N   UNL     1      42.402 -14.759   1.325  1.00  0.00    -0.327 N 
HETATM   10  H   UNL     1      43.161 -14.284   0.852  1.00  0.00     0.169 HD
HETATM   11  O   UNL     1      40.109 -15.134   1.262  1.00  0.00    -0.273 OA
BRANCH   9  12
HETATM   12  C   UNL     1      42.806 -15.737   2.265  1.00  0.00     0.034 A 
HETATM   13  C   UNL     1      42.848 -15.527   3.642  1.00  0.00     0.032 A 
HETATM   14  C   UNL     1      43.193 -16.565   4.520  1.00  0.00     0.032 A 
HETATM   15  C   UNL     1      43.502 -17.832   4.034  1.00  0.00     0.034 A 
HETATM   16  C   UNL     1      43.494 -18.037   2.650  1.00  0.00     0.032 A 
HETATM   17  C   UNL     1      43.154 -16.998   1.773  1.00  0.00     0.032 A 
BRANCH  15  18
HETATM   18  N   UNL     1      43.809 -18.939   4.854  1.00  0.00    -0.328 N 
HETATM   19  C   UNL     1      43.949 -20.260   4.463  1.00  0.00     0.218 C 
HETATM   20  C   UNL     1      44.352 -21.163   5.603  1.00  0.00     0.117 C 
HETATM   21  O   UNL     1      43.814 -20.714   3.334  1.00  0.00    -0.274 OA
HETATM   22  H   UNL     1      43.974 -18.732   5.830  1.00  0.00     0.169 HD
ENDBRANCH  15  18
ENDBRANCH   9  12
ENDBRANCH   1   8
BRANCH   2  23
HETATM   23  C   UNL     1      40.743 -11.637   1.438  1.00  0.00    -0.001 A 
HETATM   24  C   UNL     1      39.762 -11.463   2.439  1.00  0.00     0.076 A 
HETATM   25  C   UNL     1      40.116 -11.004   3.712  1.00  0.00     0.037 A 
HETATM   26  C   UNL     1      41.442 -10.686   3.997  1.00  0.00     0.003 A 
HETATM   27  C   UNL     1      42.417 -10.830   3.015  1.00  0.00     0.001 A 
HETATM   28  C   UNL     1      42.073 -11.302   1.747  1.00  0.00     0.012 A 
BRANCH  24  29
HETATM   29  O   UNL     1      38.476 -11.837   2.140  1.00  0.00    -0.355 OA
HETATM   30  C   UNL     1      37.597 -10.739   1.896  1.00  0.00     0.210 C 
ENDBRANCH  24  29
ENDBRANCH   2  23
BRANCH   3  31
HETATM   31  C   UNL     1      40.625  -9.886  -0.905  1.00  0.00     0.038 A 
HETATM   32  C   UNL     1      39.559  -9.062  -0.531  1.00  0.00     0.032 A 
HETATM   33  C   UNL     1      39.757  -7.690  -0.341  1.00  0.00     0.039 A 
HETATM   34  C   UNL     1      41.014  -7.115  -0.534  1.00  0.00     0.068 A 
HETATM   35  C   UNL     1      42.072  -7.924  -0.940  1.00  0.00     0.039 A 
HETATM   36  C   UNL     1      41.872  -9.295  -1.135  1.00  0.00     0.032 A 
BRANCH  34  37
HETATM   37  O   UNL     1      41.074  -5.768  -0.304  1.00  0.00    -0.356 OA
HETATM   38  C   UNL     1      42.046  -5.036  -1.041  1.00  0.00     0.210 C 
ENDBRANCH  34  37
ENDBRANCH   3  31
TORSDOF 7
ENDMDL
MODEL 5
REMARK VINA RESULT:      -7.4     18.075     22.137
REMARK  7 active torsions:
REMARK  status: ('A' for Active; 'I' for Inactive)
REMARK       I    between atoms: C_2  and  N_3 
REMARK    1  A    between atoms: N_3  and  C_4 
REMARK    2  A    between atoms: C_7  and  N_8 
REMARK       I    between atoms: N_8  and  C_9 
REMARK    3  A    between atoms: C_9  and  C_10 
REMARK    4  A    between atoms: C_11  and  C_12 
REMARK    5  A    between atoms: C_13  and  O_14 
REMARK    6  A    between atoms: N_20  and  C_21 
REMARK    7  A    between atoms: C_24  and  O_25 
ROOT
HETATM    1  C   UNL     1      45.040 -29.157  -1.317  1.00  0.00     0.106 C 
HETATM    2  C   UNL     1      45.929 -30.044  -0.424  1.00  0.00     0.142 C 
HETATM    3  N   UNL     1      45.768 -29.613   0.996  1.00  0.00    -0.308 N 
HETATM    4  C   UNL     1      44.468 -29.518   1.517  1.00  0.00     0.225 C 
HETATM    5  O   UNL     1      44.179 -29.592   2.714  1.00  0.00    -0.273 OA
HETATM    6  C   UNL     1      43.377 -29.086   0.542  1.00  0.00     0.104 C 
HETATM    7  C   UNL     1      43.591 -29.425  -0.922  1.00  0.00     0.026 C 
ENDROOT
BRANCH   1   8
HETATM    8  C   UNL     1      45.198 -29.300  -2.827  1.00  0.00     0.228 C 
HETATM    9  N   UNL     1      44.844 -30.520  -3.370  1.00  0.00    -0.327 N 
HETATM   10  H   UNL     1      44.588 -31.265  -2.735  1.00  0.00     0.169 HD
HETATM   11  O   UNL     1      45.595 -28.322  -3.459  1.00  0.00    -0.273 OA
BRANCH   9  12
HETATM   12  C   UNL     1      45.035 -30.921  -4.713  1.00  0.00     0.034 A 
HETATM   13  C   UNL     1      46.181 -31.560  -5.183  1.00  0.00     0.032 A 
HETATM   14  C   UNL     1      46.272 -31.991  -6.515  1.00  0.00     0.032 A 
HETATM   15  C   UNL     1      45.216 -31.791  -7.400  1.00  0.00     0.034 A 
HETATM   16  C   UNL     1      44.077 -31.120  -6.940  1.00  0.00     0.032 A 
HETATM   17  C   UNL     1      43.990 -30.685  -5.610  1.00  0.00     0.032 A 
BRANCH  15  18
HETATM   18  N   UNL     1      45.212 -32.239  -8.737  1.00  0.00    -0.328 N 
HETATM   19  C   UNL     1      44.912 -33.512  -9.195  1.00  0.00     0.218 C 
HETATM   20  C   UNL     1      44.941 -33.608 -10.701  1.00  0.00     0.117 C 
HETATM   21  O   UNL     1      44.615 -34.488  -8.520  1.00  0.00    -0.274 OA
HETATM   22  H   UNL     1      45.421 -31.540  -9.437  1.00  0.00     0.169 HD
ENDBRANCH  15  18
ENDBRANCH   9  12
ENDBRANCH   1   8
BRANCH   2  23
HETATM   23  C   UNL     1      47.347 -30.284  -0.942  1.00  0.00    -0.001 A 
HETATM   24  C   UNL     1      47.706 -31.549  -1.456  1.00  0.00     0.076 A 
HETATM   25  C   UNL     1      48.984 -31.769  -1.982  1.00  0.00     0.037 A 
HETATM   26  C   UNL     1      49.927 -30.745  -1.978  1.00  0.00     0.003 A 
HETATM   27  C   UNL     1      49.597 -29.499  -1.455  1.00  0.00     0.001 A 
HETATM   28  C   UNL     1      48.320 -29.268  -0.941  1.00  0.00     0.012 A 
BRANCH  24  29
HETATM   29  O   UNL     1      46.735 -32.518  -1.492  1.00  0.00    -0.355 OA
HETATM   30  C   UNL     1      47.082 -33.655  -2.284  1.00  0.00     0.210 C 
ENDBRANCH  24  29
ENDBRANCH   2  23
BRANCH   3  31
HETATM   31  C   UNL     1      46.872 -29.739   1.896  1.00  0.00     0.038 A 
HETATM   32  C   UNL     1      47.534 -28.625   2.419  1.00  0.00     0.032 A 
HETATM   33  C   UNL     1      48.613 -28.789   3.296  1.00  0.00     0.039 A 
HETATM   34  C   UNL     1      49.057 -30.063   3.653  1.00  0.00     0.068 A 
HETATM   35  C   UNL     1      48.424 -31.177   3.109  1.00  0.00     0.039 A 
HETATM   36  C   UNL     1      47.349 -31.012   2.228  1.00  0.00     0.032 A 
BRANCH  34  37
HETATM   37  O   UNL     1      50.111 -30.082   4.525  1.00  0.00    -0.356 OA
HETATM   38  C   UNL     1      50.699 -31.351   4.787  1.00  0.00     0.210 C 
ENDBRANCH  34  37
ENDBRANCH   3  31
TORSDOF 7
ENDMDL
MODEL 6
REMARK VINA RESULT:      -7.3      2.674      9.451
REMARK  7 active torsions:
REMARK  status: ('A' for Active; 'I' for Inactive)
REMARK       I    between atoms: C_2  and  N_3 
REMARK    1  A    between atoms: N_3  and  C_4 
REMARK    2  A    between atoms: C_7  and  N_8 
REMARK       I    between atoms: N_8  and  C_9 
REMARK    3  A    between atoms: C_9  and  C_10 
REMARK    4  A    between atoms: C_11  and  C_12 
REMARK    5  A    between atoms: C_13  and  O_14 
REMARK    6  A    between atoms: N_20  and  C_21 
REMARK    7  A    between atoms: C_24  and  O_25 
ROOT
HETATM    1  C   UNL     1      43.558 -11.559   6.764  1.00  0.00     0.106 C 
HETATM    2  C   UNL     1      43.164 -10.077   6.918  1.00  0.00     0.142 C 
HETATM    3  N   UNL     1      44.006  -9.464   7.986  1.00  0.00    -0.308 N 
HETATM    4  C   UNL     1      45.400  -9.607   7.896  1.00  0.00     0.225 C 
HETATM    5  O   UNL     1      46.224  -8.850   8.417  1.00  0.00    -0.273 OA
HETATM    6  C   UNL     1      45.910 -10.908   7.285  1.00  0.00     0.104 C 
HETATM    7  C   UNL     1      45.004 -11.595   6.279  1.00  0.00     0.026 C 
ENDROOT
BRANCH   1   8
HETATM    8  C   UNL     1      42.689 -12.425   5.858  1.00  0.00     0.228 C 
HETATM    9  N   UNL     1      42.725 -12.133   4.508  1.00  0.00    -0.327 N 
HETATM   10  H   UNL     1      43.248 -11.319   4.213  1.00  0.00     0.169 HD
HETATM   11  O   UNL     1      42.046 -13.337   6.377  1.00  0.00    -0.273 OA
BRANCH   9  12
HETATM   12  C   UNL     1      41.905 -12.709   3.509  1.00  0.00     0.034 A 
HETATM   13  C   UNL     1      40.548 -12.430   3.355  1.00  0.00     0.032 A 
HETATM   14  C   UNL     1      39.813 -12.987   2.297  1.00  0.00     0.032 A 
HETATM   15  C   UNL     1      40.424 -13.830   1.374  1.00  0.00     0.034 A 
HETATM   16  C   UNL     1      41.779 -14.138   1.546  1.00  0.00     0.032 A 
HETATM   17  C   UNL     1      42.511 -13.587   2.606  1.00  0.00     0.032 A 
BRANCH  15  18
HETATM   18  N   UNL     1      39.767 -14.388   0.257  1.00  0.00    -0.328 N 
HETATM   19  C   UNL     1      39.751 -13.898  -1.038  1.00  0.00     0.218 C 
HETATM   20  C   UNL     1      39.000 -14.797  -1.990  1.00  0.00     0.117 C 
HETATM   21  O   UNL     1      40.290 -12.879  -1.449  1.00  0.00    -0.274 OA
HETATM   22  H   UNL     1      39.281 -15.259   0.421  1.00  0.00     0.169 HD
ENDBRANCH  15  18
ENDBRANCH   9  12
ENDBRANCH   1   8
BRANCH   2  23
HETATM   23  C   UNL     1      41.662  -9.797   6.942  1.00  0.00    -0.001 A 
HETATM   24  C   UNL     1      41.018  -9.296   5.790  1.00  0.00     0.076 A 
HETATM   25  C   UNL     1      39.635  -9.084   5.779  1.00  0.00     0.037 A 
HETATM   26  C   UNL     1      38.880  -9.340   6.921  1.00  0.00     0.003 A 
HETATM   27  C   UNL     1      39.502  -9.813   8.073  1.00  0.00     0.001 A 
HETATM   28  C   UNL     1      40.879 -10.040   8.086  1.00  0.00     0.012 A 
BRANCH  24  29
HETATM   29  O   UNL     1      41.785  -9.105   4.667  1.00  0.00    -0.355 OA
HETATM   30  C   UNL     1      41.032  -8.755   3.505  1.00  0.00     0.210 C 
ENDBRANCH  24  29
ENDBRANCH   2  23
BRANCH   3  31
HETATM   31  C   UNL     1      43.464  -8.411   8.788  1.00  0.00     0.038 A 
HETATM   32  C   UNL     1      43.106  -7.174   8.246  1.00  0.00     0.032 A 
HETATM   33  C   UNL     1      42.580  -6.168   9.064  1.00  0.00     0.039 A 
HETATM   34  C   UNL     1      42.416  -6.373  10.435  1.00  0.00     0.068 A 
HETATM   35  C   UNL     1      42.802  -7.591  10.987  1.00  0.00     0.039 A 
HETATM   36  C   UNL     1      43.333  -8.595  10.169  1.00  0.00     0.032 A 
BRANCH  34  37
HETATM   37  O   UNL     1      41.881  -5.314  11.116  1.00  0.00    -0.356 OA
HETATM   38  C   UNL     1      42.195  -5.221  12.501  1.00  0.00     0.210 C 
ENDBRANCH  34  37
ENDBRANCH   3  31
TORSDOF 7
ENDMDL
MODEL 7
REMARK VINA RESULT:      -7.3      3.331      5.928
REMARK  7 active torsions:
REMARK  status: ('A' for Active; 'I' for Inactive)
REMARK       I    between atoms: C_2  and  N_3 
REMARK    1  A    between atoms: N_3  and  C_4 
REMARK    2  A    between atoms: C_7  and  N_8 
REMARK       I    between atoms: N_8  and  C_9 
REMARK    3  A    between atoms: C_9  and  C_10 
REMARK    4  A    between atoms: C_11  and  C_12 
REMARK    5  A    between atoms: C_13  and  O_14 
REMARK    6  A    between atoms: N_20  and  C_21 
REMARK    7  A    between atoms: C_24  and  O_25 
ROOT
HETATM    1  C   UNL     1      43.833  -9.578   7.795  1.00  0.00     0.106 C 
HETATM    2  C   UNL     1      42.452  -9.983   7.244  1.00  0.00     0.142 C 
HETATM    3  N   UNL     1      42.648 -10.870   6.060  1.00  0.00    -0.308 N 
HETATM    4  C   UNL     1      43.482 -11.991   6.202  1.00  0.00     0.225 C 
HETATM    5  O   UNL     1      43.423 -13.009   5.506  1.00  0.00    -0.273 OA
HETATM    6  C   UNL     1      44.669 -11.838   7.147  1.00  0.00     0.104 C 
HETATM    7  C   UNL     1      44.514 -10.851   8.289  1.00  0.00     0.026 C 
ENDROOT
BRANCH   1   8
HETATM    8  C   UNL     1      43.866  -8.517   8.890  1.00  0.00     0.228 C 
HETATM    9  N   UNL     1      43.186  -8.813  10.056  1.00  0.00    -0.327 N 
HETATM   10  H   UNL     1      42.640  -9.664  10.083  1.00  0.00     0.169 HD
HETATM   11  O   UNL     1      44.516  -7.493   8.680  1.00  0.00    -0.273 OA
BRANCH   9  12
HETATM   12  C   UNL     1      42.969  -7.931  11.141  1.00  0.00     0.034 A 
HETATM   13  C   UNL     1      42.262  -6.733  11.045  1.00  0.00     0.032 A 
HETATM   14  C   UNL     1      42.027  -5.943  12.180  1.00  0.00     0.032 A 
HETATM   15  C   UNL     1      42.494  -6.337  13.430  1.00  0.00     0.034 A 
HETATM   16  C   UNL     1      43.232  -7.522  13.523  1.00  0.00     0.032 A 
HETATM   17  C   UNL     1      43.472  -8.309  12.388  1.00  0.00     0.032 A 
BRANCH  15  18
HETATM   18  N   UNL     1      42.255  -5.624  14.623  1.00  0.00    -0.328 N 
HETATM   19  C   UNL     1      41.260  -5.859  15.558  1.00  0.00     0.218 C 
HETATM   20  C   UNL     1      41.353  -4.938  16.749  1.00  0.00     0.117 C 
HETATM   21  O   UNL     1      40.392  -6.720  15.510  1.00  0.00    -0.274 OA
HETATM   22  H   UNL     1      42.906  -4.878  14.829  1.00  0.00     0.169 HD
ENDBRANCH  15  18
ENDBRANCH   9  12
ENDBRANCH   1   8
BRANCH   2  23
HETATM   23  C   UNL     1      41.434  -8.849   7.126  1.00  0.00    -0.001 A 
HETATM   24  C   UNL     1      40.346  -8.781   8.024  1.00  0.00     0.076 A 
HETATM   25  C   UNL     1      39.435  -7.721   7.964  1.00  0.00     0.037 A 
HETATM   26  C   UNL     1      39.578  -6.731   6.994  1.00  0.00     0.003 A 
HETATM   27  C   UNL     1      40.632  -6.795   6.087  1.00  0.00     0.001 A 
HETATM   28  C   UNL     1      41.552  -7.842   6.151  1.00  0.00     0.012 A 
BRANCH  24  29
HETATM   29  O   UNL     1      40.267  -9.744   9.000  1.00  0.00    -0.355 OA
HETATM   30  C   UNL     1      39.481  -9.361  10.128  1.00  0.00     0.210 C 
ENDBRANCH  24  29
ENDBRANCH   2  23
BRANCH   3  31
HETATM   31  C   UNL     1      41.691 -10.843   4.998  1.00  0.00     0.038 A 
HETATM   32  C   UNL     1      40.392 -11.335   5.157  1.00  0.00     0.032 A 
HETATM   33  C   UNL     1      39.484 -11.293   4.093  1.00  0.00     0.039 A 
HETATM   34  C   UNL     1      39.859 -10.775   2.852  1.00  0.00     0.068 A 
HETATM   35  C   UNL     1      41.161 -10.314   2.677  1.00  0.00     0.039 A 
HETATM   36  C   UNL     1      42.070 -10.362   3.740  1.00  0.00     0.032 A 
BRANCH  34  37
HETATM   37  O   UNL     1      38.874 -10.782   1.903  1.00  0.00    -0.356 OA
HETATM   38  C   UNL     1      39.070 -11.641   0.785  1.00  0.00     0.210 C 
ENDBRANCH  34  37
ENDBRANCH   3  31
TORSDOF 7
ENDMDL
MODEL 8
REMARK VINA RESULT:      -7.2      2.092      8.462
REMARK  7 active torsions:
REMARK  status: ('A' for Active; 'I' for Inactive)
REMARK       I    between atoms: C_2  and  N_3 
REMARK    1  A    between atoms: N_3  and  C_4 
REMARK    2  A    between atoms: C_7  and  N_8 
REMARK       I    between atoms: N_8  and  C_9 
REMARK    3  A    between atoms: C_9  and  C_10 
REMARK    4  A    between atoms: C_11  and  C_12 
REMARK    5  A    between atoms: C_13  and  O_14 
REMARK    6  A    between atoms: N_20  and  C_21 
REMARK    7  A    between atoms: C_24  and  O_25 
ROOT
HETATM    1  C   UNL     1      40.401 -11.111   3.037  1.00  0.00     0.106 C 
HETATM    2  C   UNL     1      40.467 -10.987   4.571  1.00  0.00     0.142 C 
HETATM    3  N   UNL     1      39.951  -9.643   4.968  1.00  0.00    -0.308 N 
HETATM    4  C   UNL     1      38.694  -9.247   4.484  1.00  0.00     0.225 C 
HETATM    5  O   UNL     1      37.963  -8.409   5.019  1.00  0.00    -0.273 OA
HETATM    6  C   UNL     1      38.316  -9.742   3.092  1.00  0.00     0.104 C 
HETATM    7  C   UNL     1      38.929 -11.055   2.641  1.00  0.00     0.026 C 
ENDROOT
BRANCH   1   8
HETATM    8  C   UNL     1      41.059 -12.333   2.404  1.00  0.00     0.228 C 
HETATM    9  N   UNL     1      40.897 -13.533   3.069  1.00  0.00    -0.327 N 
HETATM   10  H   UNL     1      40.433 -13.518   3.968  1.00  0.00     0.169 HD
HETATM   11  O   UNL     1      41.656 -12.178   1.339  1.00  0.00    -0.273 OA
BRANCH   9  12
HETATM   12  C   UNL     1      41.526 -14.758   2.743  1.00  0.00     0.034 A 
HETATM   13  C   UNL     1      42.908 -14.936   2.686  1.00  0.00     0.032 A 
HETATM   14  C   UNL     1      43.462 -16.198   2.424  1.00  0.00     0.032 A 
HETATM   15  C   UNL     1      42.644 -17.304   2.215  1.00  0.00     0.034 A 
HETATM   16  C   UNL     1      41.256 -17.121   2.238  1.00  0.00     0.032 A 
HETATM   17  C   UNL     1      40.703 -15.859   2.495  1.00  0.00     0.032 A 
BRANCH  15  18
HETATM   18  N   UNL     1      43.124 -18.611   1.996  1.00  0.00    -0.328 N 
HETATM   19  C   UNL     1      43.704 -19.460   2.926  1.00  0.00     0.218 C 
HETATM   20  C   UNL     1      44.034 -20.814   2.349  1.00  0.00     0.117 C 
HETATM   21  O   UNL     1      43.922 -19.222   4.106  1.00  0.00    -0.274 OA
HETATM   22  H   UNL     1      43.001 -18.976   1.061  1.00  0.00     0.169 HD
ENDBRANCH  15  18
ENDBRANCH   9  12
ENDBRANCH   1   8
BRANCH   2  23
HETATM   23  C   UNL     1      41.766 -11.472   5.214  1.00  0.00    -0.001 A 
HETATM   24  C   UNL     1      41.763 -12.624   6.031  1.00  0.00     0.076 A 
HETATM   25  C   UNL     1      42.952 -13.111   6.583  1.00  0.00     0.037 A 
HETATM   26  C   UNL     1      44.153 -12.444   6.355  1.00  0.00     0.003 A 
HETATM   27  C   UNL     1      44.171 -11.294   5.571  1.00  0.00     0.001 A 
HETATM   28  C   UNL     1      42.990 -10.811   5.005  1.00  0.00     0.012 A 
BRANCH  24  29
HETATM   29  O   UNL     1      40.571 -13.285   6.190  1.00  0.00    -0.355 OA
HETATM   30  C   UNL     1      40.714 -14.685   6.434  1.00  0.00     0.210 C 
ENDBRANCH  24  29
ENDBRANCH   2  23
BRANCH   3  31
HETATM   31  C   UNL     1      40.485  -9.002   6.129  1.00  0.00     0.038 A 
HETATM   32  C   UNL     1      40.228  -9.471   7.420  1.00  0.00     0.032 A 
HETATM   33  C   UNL     1      40.768  -8.815   8.532  1.00  0.00     0.039 A 
HETATM   34  C   UNL     1      41.559  -7.675   8.377  1.00  0.00     0.068 A 
HETATM   35  C   UNL     1      41.791  -7.184   7.095  1.00  0.00     0.039 A 
HETATM   36  C   UNL     1      41.247  -7.837   5.984  1.00  0.00     0.032 A 
BRANCH  34  37
HETATM   37  O   UNL     1      42.033  -7.139   9.542  1.00  0.00    -0.356 OA
HETATM   38  C   UNL     1      43.350  -6.601   9.509  1.00  0.00     0.210 C 
ENDBRANCH  34  37
ENDBRANCH   3  31
TORSDOF 7
ENDMDL
MODEL 9
REMARK VINA RESULT:      -7.1      3.605      6.590
REMARK  7 active torsions:
REMARK  status: ('A' for Active; 'I' for Inactive)
REMARK       I    between atoms: C_2  and  N_3 
REMARK    1  A    between atoms: N_3  and  C_4 
REMARK    2  A    between atoms: C_7  and  N_8 
REMARK       I    between atoms: N_8  and  C_9 
REMARK    3  A    between atoms: C_9  and  C_10 
REMARK    4  A    between atoms: C_11  and  C_12 
REMARK    5  A    between atoms: C_13  and  O_14 
REMARK    6  A    between atoms: N_20  and  C_21 
REMARK    7  A    between atoms: C_24  and  O_25 
ROOT
HETATM    1  C   UNL     1      40.559 -13.340   1.688  1.00  0.00     0.106 C 
HETATM    2  C   UNL     1      39.642 -12.442   0.834  1.00  0.00     0.142 C 
HETATM    3  N   UNL     1      39.734 -12.877  -0.591  1.00  0.00    -0.308 N 
HETATM    4  C   UNL     1      39.527 -14.234  -0.885  1.00  0.00     0.225 C 
HETATM    5  O   UNL     1      39.160 -14.671  -1.979  1.00  0.00    -0.273 OA
HETATM    6  C   UNL     1      39.991 -15.235   0.167  1.00  0.00     0.104 C 
HETATM    7  C   UNL     1      40.005 -14.759   1.609  1.00  0.00     0.026 C 
ENDROOT
BRANCH   1   8
HETATM    8  C   UNL     1      40.763 -12.946   3.147  1.00  0.00     0.228 C 
HETATM    9  N   UNL     1      42.023 -12.499   3.494  1.00  0.00    -0.327 N 
HETATM   10  H   UNL     1      42.751 -12.541   2.792  1.00  0.00     0.169 HD
HETATM   11  O   UNL     1      39.796 -13.020   3.904  1.00  0.00    -0.273 OA
BRANCH   9  12
HETATM   12  C   UNL     1      42.475 -12.214   4.804  1.00  0.00     0.034 A 
HETATM   13  C   UNL     1      43.120 -13.137   5.627  1.00  0.00     0.032 A 
HETATM   14  C   UNL     1      43.602 -12.762   6.890  1.00  0.00     0.032 A 
HETATM   15  C   UNL     1      43.449 -11.458   7.351  1.00  0.00     0.034 A 
HETATM   16  C   UNL     1      42.773 -10.539   6.541  1.00  0.00     0.032 A 
HETATM   17  C   UNL     1      42.286 -10.915   5.281  1.00  0.00     0.032 A 
BRANCH  15  18
HETATM   18  N   UNL     1      43.950 -10.993   8.585  1.00  0.00    -0.328 N 
HETATM   19  C   UNL     1      45.153 -10.345   8.813  1.00  0.00     0.218 C 
HETATM   20  C   UNL     1      45.325  -9.929  10.253  1.00  0.00     0.117 C 
HETATM   21  O   UNL     1      46.012 -10.073   7.985  1.00  0.00    -0.274 OA
HETATM   22  H   UNL     1      43.344 -11.123   9.384  1.00  0.00     0.169 HD
ENDBRANCH  15  18
ENDBRANCH   9  12
ENDBRANCH   1   8
BRANCH   2  23
HETATM   23  C   UNL     1      39.726 -10.945   1.132  1.00  0.00    -0.001 A 
HETATM   24  C   UNL     1      38.558 -10.226   1.470  1.00  0.00     0.076 A 
HETATM   25  C   UNL     1      38.626  -8.868   1.797  1.00  0.00     0.037 A 
HETATM   26  C   UNL     1      39.849  -8.202   1.766  1.00  0.00     0.003 A 
HETATM   27  C   UNL     1      41.006  -8.890   1.413  1.00  0.00     0.001 A 
HETATM   28  C   UNL     1      40.948 -10.249   1.100  1.00  0.00     0.012 A 
BRANCH  24  29
HETATM   29  O   UNL     1      37.380 -10.927   1.543  1.00  0.00    -0.355 OA
HETATM   30  C   UNL     1      36.307 -10.330   0.814  1.00  0.00     0.210 C 
ENDBRANCH  24  29
ENDBRANCH   2  23
BRANCH   3  31
HETATM   31  C   UNL     1      39.583 -11.906  -1.630  1.00  0.00     0.038 A 
HETATM   32  C   UNL     1      38.330 -11.424  -2.018  1.00  0.00     0.032 A 
HETATM   33  C   UNL     1      38.222 -10.475  -3.041  1.00  0.00     0.039 A 
HETATM   34  C   UNL     1      39.357 -10.004  -3.703  1.00  0.00     0.068 A 
HETATM   35  C   UNL     1      40.606 -10.506  -3.344  1.00  0.00     0.039 A 
HETATM   36  C   UNL     1      40.712 -11.458  -2.324  1.00  0.00     0.032 A 
BRANCH  34  37
HETATM   37  O   UNL     1      39.114  -9.072  -4.674  1.00  0.00    -0.356 OA
HETATM   38  C   UNL     1      37.757  -8.902  -5.069  1.00  0.00     0.210 C 
ENDBRANCH  34  37
ENDBRANCH   3  31
TORSDOF 7
ENDMDL
MODEL 10
REMARK VINA RESULT:      -7.0      5.313     12.773
REMARK  7 active torsions:
REMARK  status: ('A' for Active; 'I' for Inactive)
REMARK       I    between atoms: C_2  and  N_3 
REMARK    1  A    between atoms: N_3  and  C_4 
REMARK    2  A    between atoms: C_7  and  N_8 
REMARK       I    between atoms: N_8  and  C_9 
REMARK    3  A    between atoms: C_9  and  C_10 
REMARK    4  A    between atoms: C_11  and  C_12 
REMARK    5  A    between atoms: C_13  and  O_14 
REMARK    6  A    between atoms: N_20  and  C_21 
REMARK    7  A    between atoms: C_24  and  O_25 
ROOT
HETATM    1  C   UNL     1      41.404  -7.265  14.328  1.00  0.00     0.106 C 
HETATM    2  C   UNL     1      40.980  -5.812  14.039  1.00  0.00     0.142 C 
HETATM    3  N   UNL     1      40.417  -5.218  15.288  1.00  0.00    -0.308 N 
HETATM    4  C   UNL     1      41.182  -5.295  16.463  1.00  0.00     0.225 C 
HETATM    5  O   UNL     1      41.077  -4.531  17.426  1.00  0.00    -0.273 OA
HETATM    6  C   UNL     1      42.048  -6.539  16.627  1.00  0.00     0.104 C 
HETATM    7  C   UNL     1      42.531  -7.213  15.355  1.00  0.00     0.026 C 
ENDROOT
BRANCH   1   8
HETATM    8  C   UNL     1      41.829  -8.120  13.139  1.00  0.00     0.228 C 
HETATM    9  N   UNL     1      42.922  -7.676  12.420  1.00  0.00    -0.327 N 
HETATM   10  H   UNL     1      43.317  -6.777  12.665  1.00  0.00     0.169 HD
HETATM   11  O   UNL     1      41.200  -9.155  12.920  1.00  0.00    -0.273 OA
BRANCH   9  12
HETATM   12  C   UNL     1      43.404  -8.228  11.210  1.00  0.00     0.034 A 
HETATM   13  C   UNL     1      43.032  -7.782   9.943  1.00  0.00     0.032 A 
HETATM   14  C   UNL     1      43.605  -8.333   8.787  1.00  0.00     0.032 A 
HETATM   15  C   UNL     1      44.561  -9.339   8.879  1.00  0.00     0.034 A 
HETATM   16  C   UNL     1      44.913  -9.813  10.148  1.00  0.00     0.032 A 
HETATM   17  C   UNL     1      44.336  -9.266  11.303  1.00  0.00     0.032 A 
BRANCH  15  18
HETATM   18  N   UNL     1      45.218  -9.908   7.768  1.00  0.00    -0.328 N 
HETATM   19  C   UNL     1      45.069 -11.192   7.271  1.00  0.00     0.218 C 
HETATM   20  C   UNL     1      45.882 -11.429   6.022  1.00  0.00     0.117 C 
HETATM   21  O   UNL     1      44.352 -12.078   7.717  1.00  0.00    -0.274 OA
HETATM   22  H   UNL     1      45.843  -9.294   7.263  1.00  0.00     0.169 HD
ENDBRANCH  15  18
ENDBRANCH   9  12
ENDBRANCH   1   8
BRANCH   2  23
HETATM   23  C   UNL     1      40.211  -5.599  12.736  1.00  0.00    -0.001 A 
HETATM   24  C   UNL     1      40.841  -4.971  11.639  1.00  0.00     0.076 A 
HETATM   25  C   UNL     1      40.167  -4.816  10.422  1.00  0.00     0.037 A 
HETATM   26  C   UNL     1      38.853  -5.258  10.290  1.00  0.00     0.003 A 
HETATM   27  C   UNL     1      38.210  -5.859  11.368  1.00  0.00     0.001 A 
HETATM   28  C   UNL     1      38.881  -6.029  12.580  1.00  0.00     0.012 A 
BRANCH  24  29
HETATM   29  O   UNL     1      42.153  -4.597  11.789  1.00  0.00    -0.355 OA
HETATM   30  C   UNL     1      42.557  -3.543  10.915  1.00  0.00     0.210 C 
ENDBRANCH  24  29
ENDBRANCH   2  23
BRANCH   3  31
HETATM   31  C   UNL     1      39.385  -4.233  15.191  1.00  0.00     0.038 A 
HETATM   32  C   UNL     1      39.624  -2.955  14.678  1.00  0.00     0.032 A 
HETATM   33  C   UNL     1      38.588  -2.017  14.601  1.00  0.00     0.039 A 
HETATM   34  C   UNL     1      37.304  -2.332  15.047  1.00  0.00     0.068 A 
HETATM   35  C   UNL     1      37.067  -3.592  15.590  1.00  0.00     0.039 A 
HETATM   36  C   UNL     1      38.104  -4.527  15.671  1.00  0.00     0.032 A 
BRANCH  34  37
HETATM   37  O   UNL     1      36.382  -1.331  14.904  1.00  0.00    -0.356 OA
HETATM   38  C   UNL     1      36.301  -0.383  15.963  1.00  0.00     0.210 C 
ENDBRANCH  34  37
ENDBRANCH   3  31
TORSDOF 7
ENDMDL
