MODEL 1
REMARK VINA RESULT:      -8.8      0.000      0.000
REMARK  4 active torsions:
REMARK  status: ('A' for Active; 'I' for Inactive)
REMARK    1  A    between atoms: N_4  and  C_5 
REMARK    2  A    between atoms: C_16  and  C_17 
REMARK    3  A    between atoms: C_24  and  C_25 
REMARK    4  A    between atoms: C_25  and  O_26 
ROOT
HETATM    1  C   UNL     1      41.067 -14.490   0.886  1.00  0.00     0.073 C 
HETATM    2  C   UNL     1      41.688 -15.220   2.020  1.00  0.00     0.065 A 
HETATM    3  N   UNL     1      42.153 -16.459   1.846  1.00  0.00    -0.170 NA
HETATM    4  N   UNL     1      42.636 -16.840   3.068  1.00  0.00    -0.215 N 
HETATM    5  C   UNL     1      42.503 -15.812   4.002  1.00  0.00     0.165 A 
HETATM    6  C   UNL     1      41.862 -14.769   3.347  1.00  0.00     0.039 A 
HETATM    7  N   UNL     1      42.880 -15.805   5.300  1.00  0.00    -0.216 NA
HETATM    8  C   UNL     1      42.558 -14.678   5.970  1.00  0.00     0.137 A 
HETATM    9 CL   UNL     1      43.056 -14.780   7.619  1.00  0.00    -0.062 Cl
HETATM   10  C   UNL     1      41.896 -13.567   5.447  1.00  0.00     0.011 A 
HETATM   11  C   UNL     1      41.549 -13.614   4.083  1.00  0.00     0.030 A 
ENDROOT
BRANCH  10  12
HETATM   12  C   UNL     1      41.507 -12.365   6.288  1.00  0.00     0.164 C 
HETATM   13  N   UNL     1      40.058 -12.363   6.429  1.00  0.00    -0.330 N 
HETATM   14  C   UNL     1      39.281 -11.255   6.426  1.00  0.00     0.321 C 
HETATM   15  H   UNL     1      39.595 -13.190   6.781  1.00  0.00     0.165 HD
HETATM   16  O   UNL     1      38.094 -11.305   6.729  1.00  0.00    -0.247 OA
HETATM   17  N   UNL     1      39.880 -10.096   6.041  1.00  0.00    -0.312 N 
HETATM   18  C   UNL     1      41.200  -9.962   5.676  1.00  0.00     0.024 C 
HETATM   19  H   UNL     1      39.260  -9.294   6.014  1.00  0.00     0.170 HD
HETATM   20  C   UNL     1      41.612  -8.575   5.262  1.00  0.00     0.069 C 
HETATM   21  C   UNL     1      42.001 -11.040   5.769  1.00  0.00     0.067 C 
BRANCH  21  22
HETATM   22  C   UNL     1      43.427 -10.948   5.386  1.00  0.00     0.293 C 
HETATM   23  O   UNL     1      43.837 -11.003   4.239  1.00  0.00    -0.259 OA
BRANCH  22  24
HETATM   24  O   UNL     1      44.182 -10.801   6.502  1.00  0.00    -0.323 OA
HETATM   25  C   UNL     1      45.265 -11.727   6.595  1.00  0.00     0.213 C 
ENDBRANCH  22  24
ENDBRANCH  21  22
ENDBRANCH  10  12
BRANCH   4  26
HETATM   26  C   UNL     1      43.153 -18.163   3.241  1.00  0.00     0.060 A 
HETATM   27  C   UNL     1      43.032 -19.088   2.188  1.00  0.00     0.031 A 
HETATM   28  C   UNL     1      43.500 -20.397   2.335  1.00  0.00     0.002 A 
HETATM   29  C   UNL     1      44.097 -20.795   3.528  1.00  0.00     0.000 A 
HETATM   30  C   UNL     1      44.230 -19.885   4.573  1.00  0.00     0.002 A 
HETATM   31  C   UNL     1      43.760 -18.573   4.434  1.00  0.00     0.031 A 
ENDBRANCH   4  26
TORSDOF 4
ENDMDL
MODEL 2
REMARK VINA RESULT:      -8.5      3.855      7.205
REMARK  4 active torsions:
REMARK  status: ('A' for Active; 'I' for Inactive)
REMARK    1  A    between atoms: N_4  and  C_5 
REMARK    2  A    between atoms: C_16  and  C_17 
REMARK    3  A    between atoms: C_24  and  C_25 
REMARK    4  A    between atoms: C_25  and  O_26 
ROOT
HETATM    1  C   UNL     1      38.809 -15.602  -2.117  1.00  0.00     0.073 C 
HETATM    2  C   UNL     1      39.487 -14.537  -1.336  1.00  0.00     0.065 A 
HETATM    3  N   UNL     1      39.722 -13.346  -1.892  1.00  0.00    -0.170 NA
HETATM    4  N   UNL     1      40.361 -12.617  -0.927  1.00  0.00    -0.215 N 
HETATM    5  C   UNL     1      40.490 -13.351   0.253  1.00  0.00     0.165 A 
HETATM    6  C   UNL     1      39.957 -14.606  -0.007  1.00  0.00     0.039 A 
HETATM    7  N   UNL     1      41.044 -12.965   1.425  1.00  0.00    -0.216 NA
HETATM    8  C   UNL     1      41.078 -13.927   2.371  1.00  0.00     0.137 A 
HETATM    9 CL   UNL     1      41.826 -13.344   3.813  1.00  0.00    -0.062 Cl
HETATM   10  C   UNL     1      40.604 -15.232   2.240  1.00  0.00     0.011 A 
HETATM   11  C   UNL     1      40.011 -15.575   1.009  1.00  0.00     0.030 A 
ENDROOT
BRANCH  10  12
HETATM   12  C   UNL     1      40.745 -16.276   3.331  1.00  0.00     0.164 C 
HETATM   13  N   UNL     1      40.115 -15.758   4.537  1.00  0.00    -0.330 N 
HETATM   14  C   UNL     1      40.579 -15.942   5.795  1.00  0.00     0.321 C 
HETATM   15  H   UNL     1      39.157 -15.437   4.494  1.00  0.00     0.165 HD
HETATM   16  O   UNL     1      39.909 -15.637   6.776  1.00  0.00    -0.247 OA
HETATM   17  N   UNL     1      41.834 -16.453   5.908  1.00  0.00    -0.312 N 
HETATM   18  C   UNL     1      42.650 -16.808   4.859  1.00  0.00     0.024 C 
HETATM   19  H   UNL     1      42.164 -16.542   6.863  1.00  0.00     0.170 HD
HETATM   20  C   UNL     1      44.009 -17.322   5.250  1.00  0.00     0.069 C 
HETATM   21  C   UNL     1      42.159 -16.717   3.609  1.00  0.00     0.067 C 
BRANCH  21  22
HETATM   22  C   UNL     1      42.997 -17.084   2.447  1.00  0.00     0.293 C 
HETATM   23  O   UNL     1      43.812 -16.342   1.924  1.00  0.00    -0.259 OA
BRANCH  22  24
HETATM   24  O   UNL     1      42.709 -18.353   2.070  1.00  0.00    -0.323 OA
HETATM   25  C   UNL     1      43.725 -19.301   2.404  1.00  0.00     0.213 C 
ENDBRANCH  22  24
ENDBRANCH  21  22
ENDBRANCH  10  12
BRANCH   4  26
HETATM   26  C   UNL     1      40.819 -11.295  -1.228  1.00  0.00     0.060 A 
HETATM   27  C   UNL     1      40.683 -10.807  -2.540  1.00  0.00     0.031 A 
HETATM   28  C   UNL     1      41.146  -9.531  -2.875  1.00  0.00     0.002 A 
HETATM   29  C   UNL     1      41.743  -8.729  -1.907  1.00  0.00     0.000 A 
HETATM   30  C   UNL     1      41.875  -9.199  -0.603  1.00  0.00     0.002 A 
HETATM   31  C   UNL     1      41.417 -10.477  -0.261  1.00  0.00     0.031 A 
ENDBRANCH   4  26
TORSDOF 4
ENDMDL
MODEL 3
REMARK VINA RESULT:      -8.3      2.211      3.909
REMARK  4 active torsions:
REMARK  status: ('A' for Active; 'I' for Inactive)
REMARK    1  A    between atoms: N_4  and  C_5 
REMARK    2  A    between atoms: C_16  and  C_17 
REMARK    3  A    between atoms: C_24  and  C_25 
REMARK    4  A    between atoms: C_25  and  O_26 
ROOT
HETATM    1  C   UNL     1      43.991 -16.706   8.583  1.00  0.00     0.073 C 
HETATM    2  C   UNL     1      43.772 -16.714   7.115  1.00  0.00     0.065 A 
HETATM    3  N   UNL     1      43.773 -17.867   6.442  1.00  0.00    -0.170 NA
HETATM    4  N   UNL     1      43.562 -17.524   5.135  1.00  0.00    -0.215 N 
HETATM    5  C   UNL     1      43.391 -16.145   5.000  1.00  0.00     0.165 A 
HETATM    6  C   UNL     1      43.556 -15.604   6.268  1.00  0.00     0.039 A 
HETATM    7  N   UNL     1      43.145 -15.437   3.875  1.00  0.00    -0.216 NA
HETATM    8  C   UNL     1      43.092 -14.100   4.055  1.00  0.00     0.137 A 
HETATM    9 CL   UNL     1      42.802 -13.290   2.560  1.00  0.00    -0.062 Cl
HETATM   10  C   UNL     1      43.262 -13.422   5.263  1.00  0.00     0.011 A 
HETATM   11  C   UNL     1      43.489 -14.208   6.409  1.00  0.00     0.030 A 
ENDROOT
BRANCH  10  12
HETATM   12  C   UNL     1      43.259 -11.909   5.368  1.00  0.00     0.164 C 
HETATM   13  N   UNL     1      44.442 -11.506   6.115  1.00  0.00    -0.330 N 
HETATM   14  C   UNL     1      44.486 -10.490   7.009  1.00  0.00     0.321 C 
HETATM   15  H   UNL     1      45.351 -11.824   5.808  1.00  0.00     0.165 HD
HETATM   16  O   UNL     1      45.548 -10.085   7.467  1.00  0.00    -0.247 OA
HETATM   17  N   UNL     1      43.289  -9.968   7.390  1.00  0.00    -0.312 N 
HETATM   18  C   UNL     1      42.057 -10.374   6.932  1.00  0.00     0.024 C 
HETATM   19  H   UNL     1      43.356  -9.235   8.088  1.00  0.00     0.170 HD
HETATM   20  C   UNL     1      40.880  -9.655   7.534  1.00  0.00     0.069 C 
HETATM   21  C   UNL     1      42.011 -11.317   5.973  1.00  0.00     0.067 C 
BRANCH  21  22
HETATM   22  C   UNL     1      40.712 -11.790   5.448  1.00  0.00     0.293 C 
HETATM   23  O   UNL     1      39.982 -12.578   6.027  1.00  0.00    -0.259 OA
BRANCH  22  24
HETATM   24  O   UNL     1      40.478 -11.215   4.244  1.00  0.00    -0.323 OA
HETATM   25  C   UNL     1      39.514 -11.907   3.449  1.00  0.00     0.213 C 
ENDBRANCH  22  24
ENDBRANCH  21  22
ENDBRANCH  10  12
BRANCH   4  26
HETATM   26  C   UNL     1      43.574 -18.539   4.128  1.00  0.00     0.060 A 
HETATM   27  C   UNL     1      43.976 -19.842   4.475  1.00  0.00     0.031 A 
HETATM   28  C   UNL     1      44.027 -20.851   3.509  1.00  0.00     0.002 A 
HETATM   29  C   UNL     1      43.674 -20.575   2.191  1.00  0.00     0.000 A 
HETATM   30  C   UNL     1      43.267 -19.291   1.838  1.00  0.00     0.002 A 
HETATM   31  C   UNL     1      43.216 -18.275   2.800  1.00  0.00     0.031 A 
ENDBRANCH   4  26
TORSDOF 4
ENDMDL
MODEL 4
REMARK VINA RESULT:      -8.2      4.407      6.107
REMARK  4 active torsions:
REMARK  status: ('A' for Active; 'I' for Inactive)
REMARK    1  A    between atoms: N_4  and  C_5 
REMARK    2  A    between atoms: C_16  and  C_17 
REMARK    3  A    between atoms: C_24  and  C_25 
REMARK    4  A    between atoms: C_25  and  O_26 
ROOT
HETATM    1  C   UNL     1      39.628 -12.668   5.413  1.00  0.00     0.073 C 
HETATM    2  C   UNL     1      40.148 -13.557   4.344  1.00  0.00     0.065 A 
HETATM    3  N   UNL     1      40.945 -14.582   4.654  1.00  0.00    -0.170 NA
HETATM    4  N   UNL     1      41.251 -15.176   3.460  1.00  0.00    -0.215 N 
HETATM    5  C   UNL     1      40.607 -14.535   2.402  1.00  0.00     0.165 A 
HETATM    6  C   UNL     1      39.915 -13.466   2.955  1.00  0.00     0.039 A 
HETATM    7  N   UNL     1      40.648 -14.842   1.086  1.00  0.00    -0.216 NA
HETATM    8  C   UNL     1      39.964 -13.992   0.291  1.00  0.00     0.137 A 
HETATM    9 CL   UNL     1      40.102 -14.454  -1.365  1.00  0.00    -0.062 Cl
HETATM   10  C   UNL     1      39.249 -12.868   0.706  1.00  0.00     0.011 A 
HETATM   11  C   UNL     1      39.215 -12.608   2.090  1.00  0.00     0.030 A 
ENDROOT
BRANCH  10  12
HETATM   12  C   UNL     1      38.566 -11.920  -0.262  1.00  0.00     0.164 C 
HETATM   13  N   UNL     1      37.686 -12.704  -1.117  1.00  0.00    -0.330 N 
HETATM   14  C   UNL     1      37.481 -12.476  -2.435  1.00  0.00     0.321 C 
HETATM   15  H   UNL     1      36.998 -13.311  -0.692  1.00  0.00     0.165 HD
HETATM   16  O   UNL     1      36.595 -13.053  -3.055  1.00  0.00    -0.247 OA
HETATM   17  N   UNL     1      38.329 -11.598  -3.036  1.00  0.00    -0.312 N 
HETATM   18  C   UNL     1      39.352 -10.921  -2.413  1.00  0.00     0.024 C 
HETATM   19  H   UNL     1      38.172 -11.480  -4.031  1.00  0.00     0.170 HD
HETATM   20  C   UNL     1      40.167 -10.028  -3.309  1.00  0.00     0.069 C 
HETATM   21  C   UNL     1      39.500 -11.070  -1.084  1.00  0.00     0.067 C 
BRANCH  21  22
HETATM   22  C   UNL     1      40.586 -10.366  -0.367  1.00  0.00     0.293 C 
HETATM   23  O   UNL     1      41.739 -10.759  -0.307  1.00  0.00    -0.259 OA
BRANCH  22  24
HETATM   24  O   UNL     1      40.092  -9.239   0.199  1.00  0.00    -0.323 OA
HETATM   25  C   UNL     1      40.394  -9.109   1.590  1.00  0.00     0.213 C 
ENDBRANCH  22  24
ENDBRANCH  21  22
ENDBRANCH  10  12
BRANCH   4  26
HETATM   26  C   UNL     1      42.156 -16.284   3.435  1.00  0.00     0.060 A 
HETATM   27  C   UNL     1      43.061 -16.452   4.498  1.00  0.00     0.031 A 
HETATM   28  C   UNL     1      43.979 -17.507   4.491  1.00  0.00     0.002 A 
HETATM   29  C   UNL     1      44.000 -18.407   3.429  1.00  0.00     0.000 A 
HETATM   30  C   UNL     1      43.102 -18.254   2.375  1.00  0.00     0.002 A 
HETATM   31  C   UNL     1      42.183 -17.198   2.375  1.00  0.00     0.031 A 
ENDBRANCH   4  26
TORSDOF 4
ENDMDL
MODEL 5
REMARK VINA RESULT:      -7.6      3.540      5.082
REMARK  4 active torsions:
REMARK  status: ('A' for Active; 'I' for Inactive)
REMARK    1  A    between atoms: N_4  and  C_5 
REMARK    2  A    between atoms: C_16  and  C_17 
REMARK    3  A    between atoms: C_24  and  C_25 
REMARK    4  A    between atoms: C_25  and  O_26 
ROOT
HETATM    1  C   UNL     1      43.272 -12.730   5.775  1.00  0.00     0.073 C 
HETATM    2  C   UNL     1      42.945 -13.716   4.715  1.00  0.00     0.065 A 
HETATM    3  N   UNL     1      43.311 -14.993   4.850  1.00  0.00    -0.170 NA
HETATM    4  N   UNL     1      42.877 -15.617   3.713  1.00  0.00    -0.215 N 
HETATM    5  C   UNL     1      42.201 -14.724   2.879  1.00  0.00     0.165 A 
HETATM    6  C   UNL     1      42.264 -13.484   3.500  1.00  0.00     0.039 A 
HETATM    7  N   UNL     1      41.616 -14.972   1.686  1.00  0.00    -0.216 NA
HETATM    8  C   UNL     1      41.091 -13.884   1.084  1.00  0.00     0.137 A 
HETATM    9 CL   UNL     1      40.395 -14.300  -0.439  1.00  0.00    -0.062 Cl
HETATM   10  C   UNL     1      41.104 -12.579   1.578  1.00  0.00     0.011 A 
HETATM   11  C   UNL     1      41.702 -12.380   2.838  1.00  0.00     0.030 A 
ENDROOT
BRANCH  10  12
HETATM   12  C   UNL     1      40.554 -11.396   0.803  1.00  0.00     0.164 C 
HETATM   13  N   UNL     1      41.668 -10.733   0.142  1.00  0.00    -0.330 N 
HETATM   14  C   UNL     1      41.795  -9.394  -0.009  1.00  0.00     0.321 C 
HETATM   15  H   UNL     1      42.282 -11.274  -0.452  1.00  0.00     0.165 HD
HETATM   16  O   UNL     1      42.659  -8.909  -0.730  1.00  0.00    -0.247 OA
HETATM   17  N   UNL     1      40.933  -8.621   0.706  1.00  0.00    -0.312 N 
HETATM   18  C   UNL     1      39.946  -9.088   1.543  1.00  0.00     0.024 C 
HETATM   19  H   UNL     1      41.080  -7.623   0.599  1.00  0.00     0.170 HD
HETATM   20  C   UNL     1      39.144  -8.025   2.243  1.00  0.00     0.069 C 
HETATM   21  C   UNL     1      39.753 -10.418   1.622  1.00  0.00     0.067 C 
BRANCH  21  22
HETATM   22  C   UNL     1      38.707 -10.971   2.510  1.00  0.00     0.293 C 
HETATM   23  O   UNL     1      38.670 -10.804   3.718  1.00  0.00    -0.259 OA
BRANCH  22  24
HETATM   24  O   UNL     1      37.821 -11.680   1.771  1.00  0.00    -0.323 OA
HETATM   25  C   UNL     1      36.884 -10.871   1.057  1.00  0.00     0.213 C 
ENDBRANCH  22  24
ENDBRANCH  21  22
ENDBRANCH  10  12
BRANCH   4  26
HETATM   26  C   UNL     1      43.174 -17.001   3.510  1.00  0.00     0.060 A 
HETATM   27  C   UNL     1      43.908 -17.694   4.490  1.00  0.00     0.031 A 
HETATM   28  C   UNL     1      44.241 -19.040   4.310  1.00  0.00     0.002 A 
HETATM   29  C   UNL     1      43.841 -19.709   3.156  1.00  0.00     0.000 A 
HETATM   30  C   UNL     1      43.107 -19.035   2.184  1.00  0.00     0.002 A 
HETATM   31  C   UNL     1      42.774 -17.686   2.356  1.00  0.00     0.031 A 
ENDBRANCH   4  26
TORSDOF 4
ENDMDL
MODEL 6
REMARK VINA RESULT:      -7.5      2.879      8.204
REMARK  4 active torsions:
REMARK  status: ('A' for Active; 'I' for Inactive)
REMARK    1  A    between atoms: N_4  and  C_5 
REMARK    2  A    between atoms: C_16  and  C_17 
REMARK    3  A    between atoms: C_24  and  C_25 
REMARK    4  A    between atoms: C_25  and  O_26 
ROOT
HETATM    1  C   UNL     1      46.151 -11.205   7.159  1.00  0.00     0.073 C 
HETATM    2  C   UNL     1      44.710 -10.849   7.121  1.00  0.00     0.065 A 
HETATM    3  N   UNL     1      44.289  -9.699   7.652  1.00  0.00    -0.170 NA
HETATM    4  N   UNL     1      42.934  -9.689   7.466  1.00  0.00    -0.215 N 
HETATM    5  C   UNL     1      42.514 -10.829   6.779  1.00  0.00     0.165 A 
HETATM    6  C   UNL     1      43.648 -11.604   6.577  1.00  0.00     0.039 A 
HETATM    7  N   UNL     1      41.261 -11.164   6.396  1.00  0.00    -0.216 NA
HETATM    8  C   UNL     1      41.162 -12.369   5.798  1.00  0.00     0.137 A 
HETATM    9 CL   UNL     1      39.525 -12.712   5.375  1.00  0.00    -0.062 Cl
HETATM   10  C   UNL     1      42.208 -13.259   5.554  1.00  0.00     0.011 A 
HETATM   11  C   UNL     1      43.498 -12.851   5.948  1.00  0.00     0.030 A 
ENDROOT
BRANCH  10  12
HETATM   12  C   UNL     1      42.000 -14.631   4.940  1.00  0.00     0.164 C 
HETATM   13  N   UNL     1      42.770 -15.593   5.715  1.00  0.00    -0.330 N 
HETATM   14  C   UNL     1      43.436 -16.652   5.196  1.00  0.00     0.321 C 
HETATM   15  H   UNL     1      42.632 -15.644   6.716  1.00  0.00     0.165 HD
HETATM   16  O   UNL     1      43.911 -17.524   5.915  1.00  0.00    -0.247 OA
HETATM   17  N   UNL     1      43.574 -16.675   3.843  1.00  0.00    -0.312 N 
HETATM   18  C   UNL     1      43.081 -15.731   2.973  1.00  0.00     0.024 C 
HETATM   19  H   UNL     1      44.110 -17.461   3.492  1.00  0.00     0.170 HD
HETATM   20  C   UNL     1      43.395 -15.972   1.521  1.00  0.00     0.069 C 
HETATM   21  C   UNL     1      42.336 -14.728   3.474  1.00  0.00     0.067 C 
BRANCH  21  22
HETATM   22  C   UNL     1      41.785 -13.685   2.580  1.00  0.00     0.293 C 
HETATM   23  O   UNL     1      42.400 -12.697   2.215  1.00  0.00    -0.259 OA
BRANCH  22  24
HETATM   24  O   UNL     1      40.512 -14.007   2.248  1.00  0.00    -0.323 OA
HETATM   25  C   UNL     1      40.259 -13.993   0.842  1.00  0.00     0.213 C 
ENDBRANCH  22  24
ENDBRANCH  21  22
ENDBRANCH  10  12
BRANCH   4  26
HETATM   26  C   UNL     1      42.158  -8.607   7.988  1.00  0.00     0.060 A 
HETATM   27  C   UNL     1      42.074  -7.409   7.257  1.00  0.00     0.031 A 
HETATM   28  C   UNL     1      41.349  -6.322   7.752  1.00  0.00     0.002 A 
HETATM   29  C   UNL     1      40.696  -6.419   8.978  1.00  0.00     0.000 A 
HETATM   30  C   UNL     1      40.765  -7.604   9.707  1.00  0.00     0.002 A 
HETATM   31  C   UNL     1      41.493  -8.695   9.218  1.00  0.00     0.031 A 
ENDBRANCH   4  26
TORSDOF 4
ENDMDL
MODEL 7
REMARK VINA RESULT:      -7.5      4.125      7.407
REMARK  4 active torsions:
REMARK  status: ('A' for Active; 'I' for Inactive)
REMARK    1  A    between atoms: N_4  and  C_5 
REMARK    2  A    between atoms: C_16  and  C_17 
REMARK    3  A    between atoms: C_24  and  C_25 
REMARK    4  A    between atoms: C_25  and  O_26 
ROOT
HETATM    1  C   UNL     1      39.514 -14.472  -1.056  1.00  0.00     0.073 C 
HETATM    2  C   UNL     1      40.184 -13.239  -0.572  1.00  0.00     0.065 A 
HETATM    3  N   UNL     1      40.097 -12.108  -1.276  1.00  0.00    -0.170 NA
HETATM    4  N   UNL     1      40.824 -11.187  -0.573  1.00  0.00    -0.215 N 
HETATM    5  C   UNL     1      41.337 -11.743   0.600  1.00  0.00     0.165 A 
HETATM    6  C   UNL     1      40.958 -13.078   0.598  1.00  0.00     0.039 A 
HETATM    7  N   UNL     1      42.084 -11.144   1.555  1.00  0.00    -0.216 NA
HETATM    8  C   UNL     1      42.486 -11.966   2.548  1.00  0.00     0.137 A 
HETATM    9 CL   UNL     1      43.452 -11.114   3.696  1.00  0.00    -0.062 Cl
HETATM   10  C   UNL     1      42.201 -13.327   2.660  1.00  0.00     0.011 A 
HETATM   11  C   UNL     1      41.397 -13.896   1.653  1.00  0.00     0.030 A 
ENDROOT
BRANCH  10  12
HETATM   12  C   UNL     1      42.754 -14.197   3.773  1.00  0.00     0.164 C 
HETATM   13  N   UNL     1      43.207 -15.449   3.184  1.00  0.00    -0.330 N 
HETATM   14  C   UNL     1      43.080 -16.668   3.759  1.00  0.00     0.321 C 
HETATM   15  H   UNL     1      43.862 -15.423   2.414  1.00  0.00     0.165 HD
HETATM   16  O   UNL     1      43.641 -17.655   3.299  1.00  0.00    -0.247 OA
HETATM   17  N   UNL     1      42.275 -16.739   4.854  1.00  0.00    -0.312 N 
HETATM   18  C   UNL     1      41.603 -15.681   5.422  1.00  0.00     0.024 C 
HETATM   19  H   UNL     1      42.172 -17.673   5.236  1.00  0.00     0.170 HD
HETATM   20  C   UNL     1      40.751 -16.029   6.612  1.00  0.00     0.069 C 
HETATM   21  C   UNL     1      41.801 -14.451   4.913  1.00  0.00     0.067 C 
BRANCH  21  22
HETATM   22  C   UNL     1      41.101 -13.282   5.487  1.00  0.00     0.293 C 
HETATM   23  O   UNL     1      41.615 -12.473   6.241  1.00  0.00    -0.259 OA
BRANCH  22  24
HETATM   24  O   UNL     1      39.820 -13.265   5.045  1.00  0.00    -0.323 OA
HETATM   25  C   UNL     1      39.380 -11.984   4.591  1.00  0.00     0.213 C 
ENDBRANCH  22  24
ENDBRANCH  21  22
ENDBRANCH  10  12
BRANCH   4  26
HETATM   26  C   UNL     1      40.989  -9.868  -1.099  1.00  0.00     0.060 A 
HETATM   27  C   UNL     1      39.848  -9.110  -1.418  1.00  0.00     0.031 A 
HETATM   28  C   UNL     1      39.973  -7.828  -1.962  1.00  0.00     0.002 A 
HETATM   29  C   UNL     1      41.236  -7.287  -2.189  1.00  0.00     0.000 A 
HETATM   30  C   UNL     1      42.373  -8.025  -1.869  1.00  0.00     0.002 A 
HETATM   31  C   UNL     1      42.254  -9.310  -1.327  1.00  0.00     0.031 A 
ENDBRANCH   4  26
TORSDOF 4
ENDMDL
MODEL 8
REMARK VINA RESULT:      -7.3      4.235      6.721
REMARK  4 active torsions:
REMARK  status: ('A' for Active; 'I' for Inactive)
REMARK    1  A    between atoms: N_4  and  C_5 
REMARK    2  A    between atoms: C_16  and  C_17 
REMARK    3  A    between atoms: C_24  and  C_25 
REMARK    4  A    between atoms: C_25  and  O_26 
ROOT
HETATM    1  C   UNL     1      38.330  -9.877   5.421  1.00  0.00     0.073 C 
HETATM    2  C   UNL     1      39.040 -11.101   4.972  1.00  0.00     0.065 A 
HETATM    3  N   UNL     1      39.683 -11.866   5.857  1.00  0.00    -0.170 NA
HETATM    4  N   UNL     1      40.231 -12.884   5.124  1.00  0.00    -0.215 N 
HETATM    5  C   UNL     1      39.893 -12.768   3.775  1.00  0.00     0.165 A 
HETATM    6  C   UNL     1      39.149 -11.602   3.656  1.00  0.00     0.039 A 
HETATM    7  N   UNL     1      40.229 -13.588   2.754  1.00  0.00    -0.216 NA
HETATM    8  C   UNL     1      39.802 -13.176   1.542  1.00  0.00     0.137 A 
HETATM    9 CL   UNL     1      40.304 -14.272   0.308  1.00  0.00    -0.062 Cl
HETATM   10  C   UNL     1      39.071 -12.019   1.273  1.00  0.00     0.011 A 
HETATM   11  C   UNL     1      38.723 -11.213   2.375  1.00  0.00     0.030 A 
ENDROOT
BRANCH  10  12
HETATM   12  C   UNL     1      38.691 -11.588  -0.131  1.00  0.00     0.164 C 
HETATM   13  N   UNL     1      37.964 -12.683  -0.757  1.00  0.00    -0.330 N 
HETATM   14  C   UNL     1      38.072 -13.042  -2.058  1.00  0.00     0.321 C 
HETATM   15  H   UNL     1      37.156 -13.071  -0.289  1.00  0.00     0.165 HD
HETATM   16  O   UNL     1      37.303 -13.851  -2.566  1.00  0.00    -0.247 OA
HETATM   17  N   UNL     1      39.095 -12.481  -2.758  1.00  0.00    -0.312 N 
HETATM   18  C   UNL     1      40.004 -11.577  -2.258  1.00  0.00     0.024 C 
HETATM   19  H   UNL     1      39.169 -12.800  -3.717  1.00  0.00     0.170 HD
HETATM   20  C   UNL     1      41.061 -11.128  -3.230  1.00  0.00     0.069 C 
HETATM   21  C   UNL     1      39.844 -11.144  -0.993  1.00  0.00     0.067 C 
BRANCH  21  22
HETATM   22  C   UNL     1      40.796 -10.175  -0.408  1.00  0.00     0.293 C 
HETATM   23  O   UNL     1      41.875 -10.475   0.076  1.00  0.00    -0.259 OA
BRANCH  22  24
HETATM   24  O   UNL     1      40.276  -8.927  -0.496  1.00  0.00    -0.323 OA
HETATM   25  C   UNL     1      40.640  -8.070   0.588  1.00  0.00     0.213 C 
ENDBRANCH  22  24
ENDBRANCH  21  22
ENDBRANCH  10  12
BRANCH   4  26
HETATM   26  C   UNL     1      41.054 -13.857   5.774  1.00  0.00     0.060 A 
HETATM   27  C   UNL     1      40.490 -15.090   6.147  1.00  0.00     0.031 A 
HETATM   28  C   UNL     1      41.258 -16.052   6.810  1.00  0.00     0.002 A 
HETATM   29  C   UNL     1      42.595 -15.797   7.103  1.00  0.00     0.000 A 
HETATM   30  C   UNL     1      43.166 -14.582   6.730  1.00  0.00     0.002 A 
HETATM   31  C   UNL     1      42.401 -13.613   6.070  1.00  0.00     0.031 A 
ENDBRANCH   4  26
TORSDOF 4
ENDMDL
MODEL 9
REMARK VINA RESULT:      -7.2      6.587     10.969
REMARK  4 active torsions:
REMARK  status: ('A' for Active; 'I' for Inactive)
REMARK    1  A    between atoms: N_4  and  C_5 
REMARK    2  A    between atoms: C_16  and  C_17 
REMARK    3  A    between atoms: C_24  and  C_25 
REMARK    4  A    between atoms: C_25  and  O_26 
ROOT
HETATM    1  C   UNL     1      39.325 -11.301  12.893  1.00  0.00     0.073 C 
HETATM    2  C   UNL     1      40.059 -10.012  12.931  1.00  0.00     0.065 A 
HETATM    3  N   UNL     1      40.051  -9.267  14.039  1.00  0.00    -0.170 NA
HETATM    4  N   UNL     1      40.796  -8.160  13.737  1.00  0.00    -0.215 N 
HETATM    5  C   UNL     1      41.303  -8.237  12.439  1.00  0.00     0.165 A 
HETATM    6  C   UNL     1      40.809  -9.414  11.894  1.00  0.00     0.039 A 
HETATM    7  N   UNL     1      42.094  -7.349  11.794  1.00  0.00    -0.216 NA
HETATM    8  C   UNL     1      42.371  -7.674  10.514  1.00  0.00     0.137 A 
HETATM    9 CL   UNL     1      43.360  -6.468   9.775  1.00  0.00    -0.062 Cl
HETATM   10  C   UNL     1      41.924  -8.806   9.833  1.00  0.00     0.011 A 
HETATM   11  C   UNL     1      41.125  -9.713  10.558  1.00  0.00     0.030 A 
ENDROOT
BRANCH  10  12
HETATM   12  C   UNL     1      42.222  -9.061   8.368  1.00  0.00     0.164 C 
HETATM   13  N   UNL     1      40.971  -9.407   7.707  1.00  0.00    -0.330 N 
HETATM   14  C   UNL     1      40.841 -10.333   6.728  1.00  0.00     0.321 C 
HETATM   15  H   UNL     1      40.180  -8.782   7.790  1.00  0.00     0.165 HD
HETATM   16  O   UNL     1      39.802 -10.448   6.089  1.00  0.00    -0.247 OA
HETATM   17  N   UNL     1      41.913 -11.145   6.518  1.00  0.00    -0.312 N 
HETATM   18  C   UNL     1      43.107 -11.086   7.200  1.00  0.00     0.024 C 
HETATM   19  H   UNL     1      41.768 -11.851   5.805  1.00  0.00     0.170 HD
HETATM   20  C   UNL     1      44.125 -12.117   6.797  1.00  0.00     0.069 C 
HETATM   21  C   UNL     1      43.277 -10.106   8.106  1.00  0.00     0.067 C 
BRANCH  21  22
HETATM   22  C   UNL     1      44.540 -10.001   8.868  1.00  0.00     0.293 C 
HETATM   23  O   UNL     1      44.859 -10.748   9.778  1.00  0.00    -0.259 OA
BRANCH  22  24
HETATM   24  O   UNL     1      45.262  -8.957   8.396  1.00  0.00    -0.323 OA
HETATM   25  C   UNL     1      46.543  -9.325   7.880  1.00  0.00     0.213 C 
ENDBRANCH  22  24
ENDBRANCH  21  22
ENDBRANCH  10  12
BRANCH   4  26
HETATM   26  C   UNL     1      40.930  -7.115  14.704  1.00  0.00     0.060 A 
HETATM   27  C   UNL     1      41.875  -7.255  15.736  1.00  0.00     0.031 A 
HETATM   28  C   UNL     1      42.011  -6.266  16.715  1.00  0.00     0.002 A 
HETATM   29  C   UNL     1      41.213  -5.126  16.671  1.00  0.00     0.000 A 
HETATM   30  C   UNL     1      40.280  -4.973  15.648  1.00  0.00     0.002 A 
HETATM   31  C   UNL     1      40.136  -5.961  14.667  1.00  0.00     0.031 A 
ENDBRANCH   4  26
TORSDOF 4
ENDMDL
MODEL 10
REMARK VINA RESULT:      -7.1      8.329     11.368
REMARK  4 active torsions:
REMARK  status: ('A' for Active; 'I' for Inactive)
REMARK    1  A    between atoms: N_4  and  C_5 
REMARK    2  A    between atoms: C_16  and  C_17 
REMARK    3  A    between atoms: C_24  and  C_25 
REMARK    4  A    between atoms: C_25  and  O_26 
ROOT
HETATM    1  C   UNL     1      42.599  -4.033  10.365  1.00  0.00     0.073 C 
HETATM    2  C   UNL     1      42.587  -5.508  10.527  1.00  0.00     0.065 A 
HETATM    3  N   UNL     1      43.295  -6.280   9.699  1.00  0.00    -0.170 NA
HETATM    4  N   UNL     1      43.056  -7.564  10.106  1.00  0.00    -0.215 N 
HETATM    5  C   UNL     1      42.219  -7.587  11.223  1.00  0.00     0.165 A 
HETATM    6  C   UNL     1      41.882  -6.266  11.487  1.00  0.00     0.039 A 
HETATM    7  N   UNL     1      41.777  -8.660  11.917  1.00  0.00    -0.216 NA
HETATM    8  C   UNL     1      40.923  -8.365  12.919  1.00  0.00     0.137 A 
HETATM    9 CL   UNL     1      40.398  -9.799  13.722  1.00  0.00    -0.062 Cl
HETATM   10  C   UNL     1      40.480  -7.092  13.279  1.00  0.00     0.011 A 
HETATM   11  C   UNL     1      40.991  -6.006  12.542  1.00  0.00     0.030 A 
ENDROOT
BRANCH  10  12
HETATM   12  C   UNL     1      39.459  -6.851  14.376  1.00  0.00     0.164 C 
HETATM   13  N   UNL     1      38.408  -6.002  13.835  1.00  0.00    -0.330 N 
HETATM   14  C   UNL     1      37.775  -5.019  14.519  1.00  0.00     0.321 C 
HETATM   15  H   UNL     1      37.936  -6.282  12.985  1.00  0.00     0.165 HD
HETATM   16  O   UNL     1      36.779  -4.465  14.069  1.00  0.00    -0.247 OA
HETATM   17  N   UNL     1      38.323  -4.665  15.712  1.00  0.00    -0.312 N 
HETATM   18  C   UNL     1      39.443  -5.230  16.278  1.00  0.00     0.024 C 
HETATM   19  H   UNL     1      37.847  -3.901  16.180  1.00  0.00     0.170 HD
HETATM   20  C   UNL     1      39.864  -4.637  17.595  1.00  0.00     0.069 C 
HETATM   21  C   UNL     1      40.019  -6.271  15.649  1.00  0.00     0.067 C 
BRANCH  21  22
HETATM   22  C   UNL     1      41.226  -6.912  16.214  1.00  0.00     0.293 C 
HETATM   23  O   UNL     1      42.368  -6.535  16.007  1.00  0.00    -0.259 OA
BRANCH  22  24
HETATM   24  O   UNL     1      40.857  -7.967  16.980  1.00  0.00    -0.323 OA
HETATM   25  C   UNL     1      41.349  -7.910  18.320  1.00  0.00     0.213 C 
ENDBRANCH  22  24
ENDBRANCH  21  22
ENDBRANCH  10  12
BRANCH   4  26
HETATM   26  C   UNL     1      43.622  -8.653   9.374  1.00  0.00     0.060 A 
HETATM   27  C   UNL     1      44.840  -9.208   9.805  1.00  0.00     0.031 A 
HETATM   28  C   UNL     1      45.437 -10.254   9.095  1.00  0.00     0.002 A 
HETATM   29  C   UNL     1      44.823 -10.762   7.953  1.00  0.00     0.000 A 
HETATM   30  C   UNL     1      43.613 -10.225   7.521  1.00  0.00     0.002 A 
HETATM   31  C   UNL     1      43.012  -9.175   8.226  1.00  0.00     0.031 A 
ENDBRANCH   4  26
TORSDOF 4
ENDMDL
