MODEL 1
REMARK VINA RESULT:      -9.6      0.000      0.000
REMARK  6 active torsions:
REMARK  status: ('A' for Active; 'I' for Inactive)
REMARK    1  A    between atoms: C_4  and  C_5 
REMARK    2  A    between atoms: C_5  and  O_6 
REMARK    3  A    between atoms: O_6  and  C_7 
REMARK    4  A    between atoms: C_10  and  C_11 
REMARK    5  A    between atoms: C_17  and  C_18 
REMARK    6  A    between atoms: C_26  and  N_27 
ROOT
HETATM    1  C   UNL     1      40.144 -14.321   0.037  1.00  0.00     0.072 A 
HETATM    2  N   UNL     1      39.194 -14.941  -0.750  1.00  0.00    -0.274 N 
HETATM    3  H   UNL     1      38.800 -15.869  -0.629  1.00  0.00     0.189 HD
HETATM    4  N   UNL     1      38.775 -14.203  -1.797  1.00  0.00    -0.148 NA
HETATM    5  C   UNL     1      39.493 -13.097  -1.669  1.00  0.00     0.199 A 
HETATM    6  C   UNL     1      40.346 -13.091  -0.565  1.00  0.00     0.040 A 
HETATM    7  C   UNL     1      41.190 -11.901  -0.258  1.00  0.00     0.108 A 
HETATM    8  C   UNL     1      41.072 -10.861  -1.374  1.00  0.00     0.081 A 
HETATM    9  C   UNL     1      41.960  -9.747  -1.305  1.00  0.00     0.100 C 
HETATM   10  N   UNL     1      42.684  -8.844  -1.243  1.00  0.00    -0.191 NA
HETATM   11  C   UNL     1      40.211 -10.989  -2.419  1.00  0.00     0.140 A 
HETATM   12  O   UNL     1      39.364 -12.097  -2.558  1.00  0.00    -0.277 OA
ENDROOT
BRANCH   7  13
HETATM   13  C   UNL     1      40.844 -11.311   1.084  1.00  0.00    -0.020 A 
HETATM   14  C   UNL     1      39.613 -10.855   1.521  1.00  0.00     0.149 A 
HETATM   15  O   UNL     1      39.692 -10.386   2.792  1.00  0.00    -0.334 OA
HETATM   16  C   UNL     1      40.980 -10.538   3.188  1.00  0.00     0.142 A 
HETATM   17  C   UNL     1      41.728 -11.101   2.183  1.00  0.00     0.034 A 
ENDBRANCH   7  13
BRANCH  11  18
HETATM   18  N   UNL     1      40.070 -10.083  -3.447  1.00  0.00    -0.282 NA
HETATM   19  H   UNL     1      40.786 -10.116  -4.170  1.00  0.00     0.126 HD
HETATM   20  H   UNL     1      39.892  -9.141  -3.104  1.00  0.00     0.126 HD
ENDBRANCH  11  18
BRANCH   1  21
HETATM   21  C   UNL     1      40.716 -14.937   1.228  1.00  0.00    -0.007 A 
HETATM   22  C   UNL     1      42.102 -14.972   1.415  1.00  0.00     0.016 A 
HETATM   23  C   UNL     1      42.645 -15.526   2.577  1.00  0.00     0.037 A 
HETATM   24  C   UNL     1      41.820 -16.054   3.570  1.00  0.00     0.069 A 
HETATM   25  C   UNL     1      40.439 -16.053   3.376  1.00  0.00     0.037 A 
HETATM   26  C   UNL     1      39.892 -15.492   2.215  1.00  0.00     0.016 A 
BRANCH  24  27
HETATM   27  O   UNL     1      42.479 -16.535   4.666  1.00  0.00    -0.347 OA
BRANCH  27  28
HETATM   28  C   UNL     1      43.831 -16.957   4.477  1.00  0.00     0.214 C 
BRANCH  28  29
HETATM   29  C   UNL     1      43.872 -18.445   4.213  1.00  0.00    -0.034 A 
HETATM   30  C   UNL     1      44.002 -19.345   5.281  1.00  0.00     0.009 A 
HETATM   31  C   UNL     1      44.022 -20.722   5.053  1.00  0.00     0.001 A 
HETATM   32  C   UNL     1      43.901 -21.216   3.756  1.00  0.00     0.000 A 
HETATM   33  C   UNL     1      43.754 -20.335   2.687  1.00  0.00     0.001 A 
HETATM   34  C   UNL     1      43.733 -18.957   2.914  1.00  0.00     0.009 A 
ENDBRANCH  28  29
ENDBRANCH  27  28
ENDBRANCH  24  27
ENDBRANCH   1  21
TORSDOF 6
ENDMDL
MODEL 2
REMARK VINA RESULT:      -8.6      5.321      7.313
REMARK  6 active torsions:
REMARK  status: ('A' for Active; 'I' for Inactive)
REMARK    1  A    between atoms: C_4  and  C_5 
REMARK    2  A    between atoms: C_5  and  O_6 
REMARK    3  A    between atoms: O_6  and  C_7 
REMARK    4  A    between atoms: C_10  and  C_11 
REMARK    5  A    between atoms: C_17  and  C_18 
REMARK    6  A    between atoms: C_26  and  N_27 
ROOT
HETATM    1  C   UNL     1      44.294 -11.536   6.826  1.00  0.00     0.072 A 
HETATM    2  N   UNL     1      45.642 -11.259   6.934  1.00  0.00    -0.274 N 
HETATM    3  H   UNL     1      46.418 -11.829   6.611  1.00  0.00     0.189 HD
HETATM    4  N   UNL     1      45.921 -10.095   7.553  1.00  0.00    -0.148 NA
HETATM    5  C   UNL     1      44.714  -9.639   7.854  1.00  0.00     0.199 A 
HETATM    6  C   UNL     1      43.668 -10.460   7.433  1.00  0.00     0.040 A 
HETATM    7  C   UNL     1      42.248 -10.066   7.659  1.00  0.00     0.108 A 
HETATM    8  C   UNL     1      42.177  -8.794   8.506  1.00  0.00     0.081 A 
HETATM    9  C   UNL     1      40.881  -8.397   8.953  1.00  0.00     0.100 C 
HETATM   10  N   UNL     1      39.825  -8.079   9.312  1.00  0.00    -0.191 NA
HETATM   11  C   UNL     1      43.277  -8.085   8.874  1.00  0.00     0.140 A 
HETATM   12  O   UNL     1      44.573  -8.473   8.509  1.00  0.00    -0.277 OA
ENDROOT
BRANCH   7  13
HETATM   13  C   UNL     1      41.508  -9.904   6.357  1.00  0.00    -0.020 A 
HETATM   14  C   UNL     1      41.776  -9.016   5.331  1.00  0.00     0.149 A 
HETATM   15  O   UNL     1      40.884  -9.162   4.318  1.00  0.00    -0.334 OA
HETATM   16  C   UNL     1      40.031 -10.151   4.683  1.00  0.00     0.142 A 
HETATM   17  C   UNL     1      40.367 -10.641   5.921  1.00  0.00     0.034 A 
ENDBRANCH   7  13
BRANCH  11  18
HETATM   18  N   UNL     1      43.264  -6.937   9.637  1.00  0.00    -0.282 NA
HETATM   19  H   UNL     1      43.605  -6.095   9.178  1.00  0.00     0.126 HD
HETATM   20  H   UNL     1      43.673  -7.085  10.557  1.00  0.00     0.126 HD
ENDBRANCH  11  18
BRANCH   1  21
HETATM   21  C   UNL     1      43.776 -12.733   6.175  1.00  0.00    -0.007 A 
HETATM   22  C   UNL     1      43.305 -12.680   4.860  1.00  0.00     0.016 A 
HETATM   23  C   UNL     1      42.847 -13.838   4.225  1.00  0.00     0.037 A 
HETATM   24  C   UNL     1      42.851 -15.065   4.889  1.00  0.00     0.069 A 
HETATM   25  C   UNL     1      43.288 -15.120   6.211  1.00  0.00     0.037 A 
HETATM   26  C   UNL     1      43.753 -13.962   6.847  1.00  0.00     0.016 A 
BRANCH  24  27
HETATM   27  O   UNL     1      42.406 -16.120   4.142  1.00  0.00    -0.347 OA
BRANCH  27  28
HETATM   28  C   UNL     1      43.261 -16.580   3.094  1.00  0.00     0.214 C 
BRANCH  28  29
HETATM   29  C   UNL     1      43.486 -18.069   3.232  1.00  0.00    -0.034 A 
HETATM   30  C   UNL     1      43.991 -18.595   4.430  1.00  0.00     0.009 A 
HETATM   31  C   UNL     1      44.185 -19.970   4.577  1.00  0.00     0.001 A 
HETATM   32  C   UNL     1      43.866 -20.835   3.533  1.00  0.00     0.000 A 
HETATM   33  C   UNL     1      43.348 -20.328   2.344  1.00  0.00     0.001 A 
HETATM   34  C   UNL     1      43.152 -18.954   2.195  1.00  0.00     0.009 A 
ENDBRANCH  28  29
ENDBRANCH  27  28
ENDBRANCH  24  27
ENDBRANCH   1  21
TORSDOF 6
ENDMDL
MODEL 3
REMARK VINA RESULT:      -8.4      3.422      4.849
REMARK  6 active torsions:
REMARK  status: ('A' for Active; 'I' for Inactive)
REMARK    1  A    between atoms: C_4  and  C_5 
REMARK    2  A    between atoms: C_5  and  O_6 
REMARK    3  A    between atoms: O_6  and  C_7 
REMARK    4  A    between atoms: C_10  and  C_11 
REMARK    5  A    between atoms: C_17  and  C_18 
REMARK    6  A    between atoms: C_26  and  N_27 
ROOT
HETATM    1  C   UNL     1      39.882 -12.607   6.216  1.00  0.00     0.072 A 
HETATM    2  N   UNL     1      39.350 -11.934   7.298  1.00  0.00    -0.274 N 
HETATM    3  H   UNL     1      39.415 -12.191   8.278  1.00  0.00     0.189 HD
HETATM    4  N   UNL     1      38.665 -10.819   6.975  1.00  0.00    -0.148 NA
HETATM    5  C   UNL     1      38.758 -10.803   5.653  1.00  0.00     0.199 A 
HETATM    6  C   UNL     1      39.496 -11.858   5.117  1.00  0.00     0.040 A 
HETATM    7  C   UNL     1      39.728 -11.959   3.648  1.00  0.00     0.108 A 
HETATM    8  C   UNL     1      38.938 -10.879   2.908  1.00  0.00     0.081 A 
HETATM    9  C   UNL     1      38.922 -10.963   1.483  1.00  0.00     0.100 C 
HETATM   10  N   UNL     1      38.913 -11.036   0.326  1.00  0.00    -0.191 NA
HETATM   11  C   UNL     1      38.234  -9.907   3.546  1.00  0.00     0.140 A 
HETATM   12  O   UNL     1      38.172  -9.823   4.943  1.00  0.00    -0.277 OA
ENDROOT
BRANCH   7  13
HETATM   13  C   UNL     1      41.197 -11.892   3.317  1.00  0.00    -0.020 A 
HETATM   14  C   UNL     1      41.932 -12.761   2.531  1.00  0.00     0.149 A 
HETATM   15  O   UNL     1      43.232 -12.377   2.469  1.00  0.00    -0.334 OA
HETATM   16  C   UNL     1      43.347 -11.252   3.216  1.00  0.00     0.142 A 
HETATM   17  C   UNL     1      42.132 -10.909   3.758  1.00  0.00     0.034 A 
ENDBRANCH   7  13
BRANCH  11  18
HETATM   18  N   UNL     1      37.505  -8.915   2.925  1.00  0.00    -0.282 NA
HETATM   19  H   UNL     1      36.987  -9.198   2.096  1.00  0.00     0.126 HD
HETATM   20  H   UNL     1      38.054  -8.070   2.784  1.00  0.00     0.126 HD
ENDBRANCH  11  18
BRANCH   1  21
HETATM   21  C   UNL     1      40.673 -13.824   6.346  1.00  0.00    -0.007 A 
HETATM   22  C   UNL     1      40.052 -15.076   6.385  1.00  0.00     0.016 A 
HETATM   23  C   UNL     1      40.816 -16.243   6.468  1.00  0.00     0.037 A 
HETATM   24  C   UNL     1      42.209 -16.183   6.513  1.00  0.00     0.069 A 
HETATM   25  C   UNL     1      42.835 -14.937   6.508  1.00  0.00     0.037 A 
HETATM   26  C   UNL     1      42.071 -13.766   6.418  1.00  0.00     0.016 A 
BRANCH  24  27
HETATM   27  O   UNL     1      42.833 -17.398   6.562  1.00  0.00    -0.347 OA
BRANCH  27  28
HETATM   28  C   UNL     1      44.047 -17.534   5.823  1.00  0.00     0.214 C 
BRANCH  28  29
HETATM   29  C   UNL     1      43.855 -18.525   4.698  1.00  0.00    -0.034 A 
HETATM   30  C   UNL     1      43.532 -18.072   3.410  1.00  0.00     0.009 A 
HETATM   31  C   UNL     1      43.370 -18.976   2.358  1.00  0.00     0.001 A 
HETATM   32  C   UNL     1      43.540 -20.340   2.578  1.00  0.00     0.000 A 
HETATM   33  C   UNL     1      43.878 -20.803   3.848  1.00  0.00     0.001 A 
HETATM   34  C   UNL     1      44.040 -19.901   4.901  1.00  0.00     0.009 A 
ENDBRANCH  28  29
ENDBRANCH  27  28
ENDBRANCH  24  27
ENDBRANCH   1  21
TORSDOF 6
ENDMDL
MODEL 4
REMARK VINA RESULT:      -8.3      1.989      3.401
REMARK  6 active torsions:
REMARK  status: ('A' for Active; 'I' for Inactive)
REMARK    1  A    between atoms: C_4  and  C_5 
REMARK    2  A    between atoms: C_5  and  O_6 
REMARK    3  A    between atoms: O_6  and  C_7 
REMARK    4  A    between atoms: C_10  and  C_11 
REMARK    5  A    between atoms: C_17  and  C_18 
REMARK    6  A    between atoms: C_26  and  N_27 
ROOT
HETATM    1  C   UNL     1      40.172 -14.423   0.065  1.00  0.00     0.072 A 
HETATM    2  N   UNL     1      39.262 -15.076  -0.742  1.00  0.00    -0.274 N 
HETATM    3  H   UNL     1      38.888 -16.012  -0.619  1.00  0.00     0.189 HD
HETATM    4  N   UNL     1      38.856 -14.363  -1.811  1.00  0.00    -0.148 NA
HETATM    5  C   UNL     1      39.544 -13.237  -1.676  1.00  0.00     0.199 A 
HETATM    6  C   UNL     1      40.362 -13.195  -0.547  1.00  0.00     0.040 A 
HETATM    7  C   UNL     1      41.167 -11.981  -0.231  1.00  0.00     0.108 A 
HETATM    8  C   UNL     1      41.057 -10.959  -1.364  1.00  0.00     0.081 A 
HETATM    9  C   UNL     1      41.916  -9.822  -1.283  1.00  0.00     0.100 C 
HETATM   10  N   UNL     1      42.615  -8.900  -1.212  1.00  0.00    -0.191 NA
HETATM   11  C   UNL     1      40.232 -11.122  -2.432  1.00  0.00     0.140 A 
HETATM   12  O   UNL     1      39.417 -12.252  -2.582  1.00  0.00    -0.277 OA
ENDROOT
BRANCH   7  13
HETATM   13  C   UNL     1      40.766 -11.384   1.092  1.00  0.00    -0.020 A 
HETATM   14  C   UNL     1      41.575 -11.099   2.177  1.00  0.00     0.149 A 
HETATM   15  O   UNL     1      40.852 -10.571   3.197  1.00  0.00    -0.334 OA
HETATM   16  C   UNL     1      39.565 -10.508   2.776  1.00  0.00     0.142 A 
HETATM   17  C   UNL     1      39.455 -10.992   1.495  1.00  0.00     0.034 A 
ENDBRANCH   7  13
BRANCH  11  18
HETATM   18  N   UNL     1      40.100 -10.233  -3.477  1.00  0.00    -0.282 NA
HETATM   19  H   UNL     1      39.171 -10.162  -3.886  1.00  0.00     0.126 HD
HETATM   20  H   UNL     1      40.834 -10.348  -4.172  1.00  0.00     0.126 HD
ENDBRANCH  11  18
BRANCH   1  21
HETATM   21  C   UNL     1      40.723 -15.009   1.281  1.00  0.00    -0.007 A 
HETATM   22  C   UNL     1      39.878 -15.532   2.265  1.00  0.00     0.016 A 
HETATM   23  C   UNL     1      40.411 -16.129   3.411  1.00  0.00     0.037 A 
HETATM   24  C   UNL     1      41.791 -16.216   3.594  1.00  0.00     0.069 A 
HETATM   25  C   UNL     1      42.639 -15.668   2.634  1.00  0.00     0.037 A 
HETATM   26  C   UNL     1      42.107 -15.074   1.482  1.00  0.00     0.016 A 
BRANCH  24  27
HETATM   27  O   UNL     1      42.176 -16.851   4.742  1.00  0.00    -0.347 OA
BRANCH  27  28
HETATM   28  C   UNL     1      41.740 -16.282   5.977  1.00  0.00     0.214 C 
BRANCH  28  29
HETATM   29  C   UNL     1      42.278 -14.876   6.112  1.00  0.00    -0.034 A 
HETATM   30  C   UNL     1      41.425 -13.776   5.929  1.00  0.00     0.009 A 
HETATM   31  C   UNL     1      41.905 -12.473   6.069  1.00  0.00     0.001 A 
HETATM   32  C   UNL     1      43.238 -12.253   6.406  1.00  0.00     0.000 A 
HETATM   33  C   UNL     1      44.092 -13.335   6.608  1.00  0.00     0.001 A 
HETATM   34  C   UNL     1      43.614 -14.639   6.468  1.00  0.00     0.009 A 
ENDBRANCH  28  29
ENDBRANCH  27  28
ENDBRANCH  24  27
ENDBRANCH   1  21
TORSDOF 6
ENDMDL
MODEL 5
REMARK VINA RESULT:      -8.1      6.179      8.620
REMARK  6 active torsions:
REMARK  status: ('A' for Active; 'I' for Inactive)
REMARK    1  A    between atoms: C_4  and  C_5 
REMARK    2  A    between atoms: C_5  and  O_6 
REMARK    3  A    between atoms: O_6  and  C_7 
REMARK    4  A    between atoms: C_10  and  C_11 
REMARK    5  A    between atoms: C_17  and  C_18 
REMARK    6  A    between atoms: C_26  and  N_27 
ROOT
HETATM    1  C   UNL     1      43.686  -9.854   7.809  1.00  0.00     0.072 A 
HETATM    2  N   UNL     1      44.881  -9.184   7.642  1.00  0.00    -0.274 N 
HETATM    3  H   UNL     1      45.670  -9.461   7.065  1.00  0.00     0.189 HD
HETATM    4  N   UNL     1      44.980  -8.042   8.351  1.00  0.00    -0.148 NA
HETATM    5  C   UNL     1      43.820  -8.004   8.990  1.00  0.00     0.199 A 
HETATM    6  C   UNL     1      42.971  -9.073   8.701  1.00  0.00     0.040 A 
HETATM    7  C   UNL     1      41.612  -9.154   9.308  1.00  0.00     0.108 A 
HETATM    8  C   UNL     1      41.417  -8.035  10.333  1.00  0.00     0.081 A 
HETATM    9  C   UNL     1      40.231  -8.093  11.123  1.00  0.00     0.100 C 
HETATM   10  N   UNL     1      39.264  -8.144  11.762  1.00  0.00    -0.191 NA
HETATM   11  C   UNL     1      42.334  -7.052  10.540  1.00  0.00     0.140 A 
HETATM   12  O   UNL     1      43.540  -6.993   9.830  1.00  0.00    -0.277 OA
ENDROOT
BRANCH   7  13
HETATM   13  C   UNL     1      40.536  -9.129   8.253  1.00  0.00    -0.020 A 
HETATM   14  C   UNL     1      39.473 -10.002   8.101  1.00  0.00     0.149 A 
HETATM   15  O   UNL     1      38.716  -9.662   7.028  1.00  0.00    -0.334 OA
HETATM   16  C   UNL     1      39.284  -8.561   6.477  1.00  0.00     0.142 A 
HETATM   17  C   UNL     1      40.401  -8.191   7.187  1.00  0.00     0.034 A 
ENDBRANCH   7  13
BRANCH  11  18
HETATM   18  N   UNL     1      42.206  -6.027  11.452  1.00  0.00    -0.282 NA
HETATM   19  H   UNL     1      42.763  -5.196  11.267  1.00  0.00     0.126 HD
HETATM   20  H   UNL     1      42.287  -6.356  12.411  1.00  0.00     0.126 HD
ENDBRANCH  11  18
BRANCH   1  21
HETATM   21  C   UNL     1      43.367 -11.099   7.120  1.00  0.00    -0.007 A 
HETATM   22  C   UNL     1      43.987 -12.296   7.492  1.00  0.00     0.016 A 
HETATM   23  C   UNL     1      43.649 -13.494   6.857  1.00  0.00     0.037 A 
HETATM   24  C   UNL     1      42.691 -13.519   5.843  1.00  0.00     0.069 A 
HETATM   25  C   UNL     1      42.093 -12.325   5.444  1.00  0.00     0.037 A 
HETATM   26  C   UNL     1      42.425 -11.124   6.084  1.00  0.00     0.016 A 
BRANCH  24  27
HETATM   27  O   UNL     1      42.434 -14.760   5.330  1.00  0.00    -0.347 OA
BRANCH  27  28
HETATM   28  C   UNL     1      42.666 -14.946   3.933  1.00  0.00     0.214 C 
BRANCH  28  29
HETATM   29  C   UNL     1      43.126 -16.362   3.673  1.00  0.00    -0.034 A 
HETATM   30  C   UNL     1      43.876 -17.046   4.642  1.00  0.00     0.009 A 
HETATM   31  C   UNL     1      44.291 -18.361   4.423  1.00  0.00     0.001 A 
HETATM   32  C   UNL     1      43.952 -19.011   3.239  1.00  0.00     0.000 A 
HETATM   33  C   UNL     1      43.194 -18.349   2.275  1.00  0.00     0.001 A 
HETATM   34  C   UNL     1      42.778 -17.035   2.492  1.00  0.00     0.009 A 
ENDBRANCH  28  29
ENDBRANCH  27  28
ENDBRANCH  24  27
ENDBRANCH   1  21
TORSDOF 6
ENDMDL
MODEL 6
REMARK VINA RESULT:      -8.1     11.483     14.065
REMARK  6 active torsions:
REMARK  status: ('A' for Active; 'I' for Inactive)
REMARK    1  A    between atoms: C_4  and  C_5 
REMARK    2  A    between atoms: C_5  and  O_6 
REMARK    3  A    between atoms: O_6  and  C_7 
REMARK    4  A    between atoms: C_10  and  C_11 
REMARK    5  A    between atoms: C_17  and  C_18 
REMARK    6  A    between atoms: C_26  and  N_27 
ROOT
HETATM    1  C   UNL     1      42.995  -9.661  12.212  1.00  0.00     0.072 A 
HETATM    2  N   UNL     1      43.580 -10.896  12.408  1.00  0.00    -0.274 N 
HETATM    3  H   UNL     1      43.779 -11.351  13.293  1.00  0.00     0.189 HD
HETATM    4  N   UNL     1      43.922 -11.534  11.272  1.00  0.00    -0.148 NA
HETATM    5  C   UNL     1      43.554 -10.668  10.339  1.00  0.00     0.199 A 
HETATM    6  C   UNL     1      42.969  -9.503  10.837  1.00  0.00     0.040 A 
HETATM    7  C   UNL     1      42.463  -8.448   9.913  1.00  0.00     0.108 A 
HETATM    8  C   UNL     1      42.825  -8.786   8.466  1.00  0.00     0.081 A 
HETATM    9  C   UNL     1      42.562  -7.780   7.490  1.00  0.00     0.100 C 
HETATM   10  N   UNL     1      42.345  -6.958   6.701  1.00  0.00    -0.191 NA
HETATM   11  C   UNL     1      43.417  -9.956   8.105  1.00  0.00     0.140 A 
HETATM   12  O   UNL     1      43.749 -10.946   9.039  1.00  0.00    -0.277 OA
ENDROOT
BRANCH   7  13
HETATM   13  C   UNL     1      40.980  -8.239  10.076  1.00  0.00    -0.020 A 
HETATM   14  C   UNL     1      40.326  -7.121  10.562  1.00  0.00     0.149 A 
HETATM   15  O   UNL     1      38.982  -7.308  10.565  1.00  0.00    -0.334 OA
HETATM   16  C   UNL     1      38.755  -8.552  10.076  1.00  0.00     0.142 A 
HETATM   17  C   UNL     1      39.943  -9.167   9.760  1.00  0.00     0.034 A 
ENDBRANCH   7  13
BRANCH  11  18
HETATM   18  N   UNL     1      43.765 -10.305   6.817  1.00  0.00    -0.282 NA
HETATM   19  H   UNL     1      43.763  -9.549   6.136  1.00  0.00     0.126 HD
HETATM   20  H   UNL     1      43.265 -11.132   6.498  1.00  0.00     0.126 HD
ENDBRANCH  11  18
BRANCH   1  21
HETATM   21  C   UNL     1      42.534  -8.815  13.306  1.00  0.00    -0.007 A 
HETATM   22  C   UNL     1      41.385  -9.150  14.029  1.00  0.00     0.016 A 
HETATM   23  C   UNL     1      40.969  -8.359  15.103  1.00  0.00     0.037 A 
HETATM   24  C   UNL     1      41.688  -7.223  15.474  1.00  0.00     0.069 A 
HETATM   25  C   UNL     1      42.816  -6.863  14.737  1.00  0.00     0.037 A 
HETATM   26  C   UNL     1      43.238  -7.659  13.664  1.00  0.00     0.016 A 
BRANCH  24  27
HETATM   27  O   UNL     1      41.190  -6.559  16.559  1.00  0.00    -0.347 OA
BRANCH  27  28
HETATM   28  C   UNL     1      41.953  -6.619  17.765  1.00  0.00     0.214 C 
BRANCH  28  29
HETATM   29  C   UNL     1      41.310  -7.587  18.731  1.00  0.00    -0.034 A 
HETATM   30  C   UNL     1      39.916  -7.750  18.741  1.00  0.00     0.009 A 
HETATM   31  C   UNL     1      39.312  -8.654  19.615  1.00  0.00     0.001 A 
HETATM   32  C   UNL     1      40.092  -9.415  20.482  1.00  0.00     0.000 A 
HETATM   33  C   UNL     1      41.478  -9.276  20.472  1.00  0.00     0.001 A 
HETATM   34  C   UNL     1      42.085  -8.372  19.598  1.00  0.00     0.009 A 
ENDBRANCH  28  29
ENDBRANCH  27  28
ENDBRANCH  24  27
ENDBRANCH   1  21
TORSDOF 6
ENDMDL
MODEL 7
REMARK VINA RESULT:      -8.1      3.510      5.529
REMARK  6 active torsions:
REMARK  status: ('A' for Active; 'I' for Inactive)
REMARK    1  A    between atoms: C_4  and  C_5 
REMARK    2  A    between atoms: C_5  and  O_6 
REMARK    3  A    between atoms: O_6  and  C_7 
REMARK    4  A    between atoms: C_10  and  C_11 
REMARK    5  A    between atoms: C_17  and  C_18 
REMARK    6  A    between atoms: C_26  and  N_27 
ROOT
HETATM    1  C   UNL     1      40.779 -14.636   2.244  1.00  0.00     0.072 A 
HETATM    2  N   UNL     1      40.226 -15.890   2.081  1.00  0.00    -0.274 N 
HETATM    3  H   UNL     1      40.182 -16.639   2.765  1.00  0.00     0.189 HD
HETATM    4  N   UNL     1      39.708 -16.113   0.858  1.00  0.00    -0.148 NA
HETATM    5  C   UNL     1      39.956 -14.970   0.234  1.00  0.00     0.199 A 
HETATM    6  C   UNL     1      40.599 -14.014   1.020  1.00  0.00     0.040 A 
HETATM    7  C   UNL     1      40.911 -12.661   0.477  1.00  0.00     0.108 A 
HETATM    8  C   UNL     1      40.570 -12.594  -1.013  1.00  0.00     0.081 A 
HETATM    9  C   UNL     1      40.980 -11.418  -1.709  1.00  0.00     0.100 C 
HETATM   10  N   UNL     1      41.315 -10.459  -2.269  1.00  0.00    -0.191 NA
HETATM   11  C   UNL     1      39.955 -13.607  -1.680  1.00  0.00     0.140 A 
HETATM   12  O   UNL     1      39.590 -14.804  -1.049  1.00  0.00    -0.277 OA
ENDROOT
BRANCH   7  13
HETATM   13  C   UNL     1      40.205 -11.580   1.253  1.00  0.00    -0.020 A 
HETATM   14  C   UNL     1      40.760 -10.463   1.851  1.00  0.00     0.149 A 
HETATM   15  O   UNL     1      39.807  -9.719   2.469  1.00  0.00    -0.334 OA
HETATM   16  C   UNL     1      38.624 -10.352   2.271  1.00  0.00     0.142 A 
HETATM   17  C   UNL     1      38.809 -11.496   1.533  1.00  0.00     0.034 A 
ENDBRANCH   7  13
BRANCH  11  18
HETATM   18  N   UNL     1      39.630 -13.594  -3.019  1.00  0.00    -0.282 NA
HETATM   19  H   UNL     1      39.791 -14.463  -3.524  1.00  0.00     0.126 HD
HETATM   20  H   UNL     1      40.010 -12.779  -3.496  1.00  0.00     0.126 HD
ENDBRANCH  11  18
BRANCH   1  21
HETATM   21  C   UNL     1      41.377 -14.185   3.495  1.00  0.00    -0.007 A 
HETATM   22  C   UNL     1      42.625 -14.667   3.902  1.00  0.00     0.016 A 
HETATM   23  C   UNL     1      43.213 -14.202   5.082  1.00  0.00     0.037 A 
HETATM   24  C   UNL     1      42.569 -13.251   5.873  1.00  0.00     0.069 A 
HETATM   25  C   UNL     1      41.310 -12.789   5.491  1.00  0.00     0.037 A 
HETATM   26  C   UNL     1      40.722 -13.249   4.307  1.00  0.00     0.016 A 
BRANCH  24  27
HETATM   27  O   UNL     1      43.269 -12.861   6.981  1.00  0.00    -0.347 OA
BRANCH  27  28
HETATM   28  C   UNL     1      44.622 -12.449   6.783  1.00  0.00     0.214 C 
BRANCH  28  29
HETATM   29  C   UNL     1      44.833 -11.076   7.379  1.00  0.00    -0.034 A 
HETATM   30  C   UNL     1      43.731 -10.315   7.799  1.00  0.00     0.009 A 
HETATM   31  C   UNL     1      43.914  -9.054   8.369  1.00  0.00     0.001 A 
HETATM   32  C   UNL     1      45.198  -8.543   8.537  1.00  0.00     0.000 A 
HETATM   33  C   UNL     1      46.302  -9.295   8.140  1.00  0.00     0.001 A 
HETATM   34  C   UNL     1      46.122 -10.556   7.570  1.00  0.00     0.009 A 
ENDBRANCH  28  29
ENDBRANCH  27  28
ENDBRANCH  24  27
ENDBRANCH   1  21
TORSDOF 6
ENDMDL
MODEL 8
REMARK VINA RESULT:      -8.0      2.295      3.940
REMARK  6 active torsions:
REMARK  status: ('A' for Active; 'I' for Inactive)
REMARK    1  A    between atoms: C_4  and  C_5 
REMARK    2  A    between atoms: C_5  and  O_6 
REMARK    3  A    between atoms: O_6  and  C_7 
REMARK    4  A    between atoms: C_10  and  C_11 
REMARK    5  A    between atoms: C_17  and  C_18 
REMARK    6  A    between atoms: C_26  and  N_27 
ROOT
HETATM    1  C   UNL     1      39.865 -11.515   1.410  1.00  0.00     0.072 A 
HETATM    2  N   UNL     1      40.114 -10.417   2.209  1.00  0.00    -0.274 N 
HETATM    3  H   UNL     1      40.681 -10.381   3.050  1.00  0.00     0.189 HD
HETATM    4  N   UNL     1      39.507  -9.285   1.801  1.00  0.00    -0.148 NA
HETATM    5  C   UNL     1      38.849  -9.690   0.724  1.00  0.00     0.199 A 
HETATM    6  C   UNL     1      39.027 -11.039   0.416  1.00  0.00     0.040 A 
HETATM    7  C   UNL     1      38.386 -11.638  -0.790  1.00  0.00     0.108 A 
HETATM    8  C   UNL     1      37.457 -10.625  -1.459  1.00  0.00     0.081 A 
HETATM    9  C   UNL     1      36.639 -11.113  -2.521  1.00  0.00     0.100 C 
HETATM   10  N   UNL     1      35.978 -11.515  -3.385  1.00  0.00    -0.191 NA
HETATM   11  C   UNL     1      37.353  -9.331  -1.052  1.00  0.00     0.140 A 
HETATM   12  O   UNL     1      38.092  -8.826   0.026  1.00  0.00    -0.277 OA
ENDROOT
BRANCH   7  13
HETATM   13  C   UNL     1      39.416 -12.164  -1.756  1.00  0.00    -0.020 A 
HETATM   14  C   UNL     1      39.539 -13.451  -2.250  1.00  0.00     0.149 A 
HETATM   15  O   UNL     1      40.596 -13.546  -3.095  1.00  0.00    -0.334 OA
HETATM   16  C   UNL     1      41.165 -12.317  -3.156  1.00  0.00     0.142 A 
HETATM   17  C   UNL     1      40.482 -11.432  -2.356  1.00  0.00     0.034 A 
ENDBRANCH   7  13
BRANCH  11  18
HETATM   18  N   UNL     1      36.530  -8.383  -1.620  1.00  0.00    -0.282 NA
HETATM   19  H   UNL     1      36.995  -7.658  -2.162  1.00  0.00     0.126 HD
HETATM   20  H   UNL     1      35.856  -8.013  -0.952  1.00  0.00     0.126 HD
ENDBRANCH  11  18
BRANCH   1  21
HETATM   21  C   UNL     1      40.438 -12.831   1.664  1.00  0.00    -0.007 A 
HETATM   22  C   UNL     1      39.612 -13.948   1.823  1.00  0.00     0.016 A 
HETATM   23  C   UNL     1      40.166 -15.215   2.025  1.00  0.00     0.037 A 
HETATM   24  C   UNL     1      41.549 -15.390   2.072  1.00  0.00     0.069 A 
HETATM   25  C   UNL     1      42.379 -14.276   1.947  1.00  0.00     0.037 A 
HETATM   26  C   UNL     1      41.825 -13.007   1.738  1.00  0.00     0.016 A 
BRANCH  24  27
HETATM   27  O   UNL     1      41.956 -16.683   2.244  1.00  0.00    -0.347 OA
BRANCH  27  28
HETATM   28  C   UNL     1      43.336 -16.895   2.548  1.00  0.00     0.214 C 
BRANCH  28  29
HETATM   29  C   UNL     1      43.545 -18.315   3.020  1.00  0.00    -0.034 A 
HETATM   30  C   UNL     1      43.331 -19.387   2.140  1.00  0.00     0.009 A 
HETATM   31  C   UNL     1      43.539 -20.703   2.557  1.00  0.00     0.001 A 
HETATM   32  C   UNL     1      43.974 -20.963   3.854  1.00  0.00     0.000 A 
HETATM   33  C   UNL     1      44.208 -19.908   4.733  1.00  0.00     0.001 A 
HETATM   34  C   UNL     1      44.001 -18.591   4.318  1.00  0.00     0.009 A 
ENDBRANCH  28  29
ENDBRANCH  27  28
ENDBRANCH  24  27
ENDBRANCH   1  21
TORSDOF 6
ENDMDL
MODEL 9
REMARK VINA RESULT:      -7.9      5.108      7.373
REMARK  6 active torsions:
REMARK  status: ('A' for Active; 'I' for Inactive)
REMARK    1  A    between atoms: C_4  and  C_5 
REMARK    2  A    between atoms: C_5  and  O_6 
REMARK    3  A    between atoms: O_6  and  C_7 
REMARK    4  A    between atoms: C_10  and  C_11 
REMARK    5  A    between atoms: C_17  and  C_18 
REMARK    6  A    between atoms: C_26  and  N_27 
ROOT
HETATM    1  C   UNL     1      41.752 -13.790   5.011  1.00  0.00     0.072 A 
HETATM    2  N   UNL     1      41.361 -15.015   5.514  1.00  0.00    -0.274 N 
HETATM    3  H   UNL     1      41.531 -15.384   6.444  1.00  0.00     0.189 HD
HETATM    4  N   UNL     1      40.690 -15.786   4.635  1.00  0.00    -0.148 NA
HETATM    5  C   UNL     1      40.674 -15.028   3.548  1.00  0.00     0.199 A 
HETATM    6  C   UNL     1      41.294 -13.788   3.704  1.00  0.00     0.040 A 
HETATM    7  C   UNL     1      41.324 -12.803   2.586  1.00  0.00     0.108 A 
HETATM    8  C   UNL     1      40.744 -13.422   1.314  1.00  0.00     0.081 A 
HETATM    9  C   UNL     1      40.870 -12.656   0.116  1.00  0.00     0.100 C 
HETATM   10  N   UNL     1      40.974 -12.030  -0.854  1.00  0.00    -0.191 NA
HETATM   11  C   UNL     1      40.178 -14.658   1.282  1.00  0.00     0.140 A 
HETATM   12  O   UNL     1      40.089 -15.469   2.421  1.00  0.00    -0.277 OA
ENDROOT
BRANCH   7  13
HETATM   13  C   UNL     1      40.608 -11.530   2.956  1.00  0.00    -0.020 A 
HETATM   14  C   UNL     1      41.090 -10.234   2.898  1.00  0.00     0.149 A 
HETATM   15  O   UNL     1      40.153  -9.348   3.319  1.00  0.00    -0.334 OA
HETATM   16  C   UNL     1      39.052 -10.066   3.652  1.00  0.00     0.142 A 
HETATM   17  C   UNL     1      39.275 -11.407   3.449  1.00  0.00     0.034 A 
ENDBRANCH   7  13
BRANCH  11  18
HETATM   18  N   UNL     1      39.645 -15.260   0.162  1.00  0.00    -0.282 NA
HETATM   19  H   UNL     1      38.656 -15.090  -0.005  1.00  0.00     0.126 HD
HETATM   20  H   UNL     1      39.898 -16.244   0.100  1.00  0.00     0.126 HD
ENDBRANCH  11  18
BRANCH   1  21
HETATM   21  C   UNL     1      42.473 -12.799   5.800  1.00  0.00    -0.007 A 
HETATM   22  C   UNL     1      43.803 -13.016   6.174  1.00  0.00     0.016 A 
HETATM   23  C   UNL     1      44.503 -12.046   6.895  1.00  0.00     0.037 A 
HETATM   24  C   UNL     1      43.892 -10.845   7.256  1.00  0.00     0.069 A 
HETATM   25  C   UNL     1      42.556 -10.634   6.915  1.00  0.00     0.037 A 
HETATM   26  C   UNL     1      41.855 -11.603   6.187  1.00  0.00     0.016 A 
BRANCH  24  27
HETATM   27  O   UNL     1      44.698  -9.973   7.931  1.00  0.00    -0.347 OA
BRANCH  27  28
HETATM   28  C   UNL     1      45.214 -10.407   9.190  1.00  0.00     0.214 C 
BRANCH  28  29
HETATM   29  C   UNL     1      44.324  -9.913  10.307  1.00  0.00    -0.034 A 
HETATM   30  C   UNL     1      43.874 -10.804  11.293  1.00  0.00     0.009 A 
HETATM   31  C   UNL     1      43.067 -10.357  12.341  1.00  0.00     0.001 A 
HETATM   32  C   UNL     1      42.710  -9.014  12.422  1.00  0.00     0.000 A 
HETATM   33  C   UNL     1      43.163  -8.114  11.460  1.00  0.00     0.001 A 
HETATM   34  C   UNL     1      43.971  -8.559  10.412  1.00  0.00     0.009 A 
ENDBRANCH  28  29
ENDBRANCH  27  28
ENDBRANCH  24  27
ENDBRANCH   1  21
TORSDOF 6
ENDMDL
MODEL 10
REMARK VINA RESULT:      -7.9      5.491      8.863
REMARK  6 active torsions:
REMARK  status: ('A' for Active; 'I' for Inactive)
REMARK    1  A    between atoms: C_4  and  C_5 
REMARK    2  A    between atoms: C_5  and  O_6 
REMARK    3  A    between atoms: O_6  and  C_7 
REMARK    4  A    between atoms: C_10  and  C_11 
REMARK    5  A    between atoms: C_17  and  C_18 
REMARK    6  A    between atoms: C_26  and  N_27 
ROOT
HETATM    1  C   UNL     1      40.458 -11.172   5.264  1.00  0.00     0.072 A 
HETATM    2  N   UNL     1      39.474 -11.130   4.296  1.00  0.00    -0.274 N 
HETATM    3  H   UNL     1      38.813 -10.380   4.118  1.00  0.00     0.189 HD
HETATM    4  N   UNL     1      39.407 -12.234   3.526  1.00  0.00    -0.148 NA
HETATM    5  C   UNL     1      40.366 -12.993   4.036  1.00  0.00     0.199 A 
HETATM    6  C   UNL     1      41.060 -12.407   5.095  1.00  0.00     0.040 A 
HETATM    7  C   UNL     1      42.196 -13.116   5.750  1.00  0.00     0.108 A 
HETATM    8  C   UNL     1      42.328 -14.536   5.196  1.00  0.00     0.081 A 
HETATM    9  C   UNL     1      43.259 -15.394   5.855  1.00  0.00     0.100 C 
HETATM   10  N   UNL     1      44.018 -16.086   6.394  1.00  0.00    -0.191 NA
HETATM   11  C   UNL     1      41.574 -15.004   4.166  1.00  0.00     0.140 A 
HETATM   12  O   UNL     1      40.606 -14.216   3.530  1.00  0.00    -0.277 OA
ENDROOT
BRANCH   7  13
HETATM   13  C   UNL     1      43.483 -12.346   5.604  1.00  0.00    -0.020 A 
HETATM   14  C   UNL     1      44.025 -11.804   4.453  1.00  0.00     0.149 A 
HETATM   15  O   UNL     1      45.203 -11.186   4.715  1.00  0.00    -0.334 OA
HETATM   16  C   UNL     1      45.432 -11.321   6.045  1.00  0.00     0.142 A 
HETATM   17  C   UNL     1      44.411 -12.023   6.638  1.00  0.00     0.034 A 
ENDBRANCH   7  13
BRANCH  11  18
HETATM   18  N   UNL     1      41.655 -16.273   3.635  1.00  0.00    -0.282 NA
HETATM   19  H   UNL     1      40.777 -16.785   3.574  1.00  0.00     0.126 HD
HETATM   20  H   UNL     1      42.406 -16.816   4.056  1.00  0.00     0.126 HD
ENDBRANCH  11  18
BRANCH   1  21
HETATM   21  C   UNL     1      40.712 -10.074   6.189  1.00  0.00    -0.007 A 
HETATM   22  C   UNL     1      41.399  -8.932   5.767  1.00  0.00     0.016 A 
HETATM   23  C   UNL     1      41.605  -7.865   6.645  1.00  0.00     0.037 A 
HETATM   24  C   UNL     1      41.131  -7.918   7.956  1.00  0.00     0.069 A 
HETATM   25  C   UNL     1      40.473  -9.066   8.394  1.00  0.00     0.037 A 
HETATM   26  C   UNL     1      40.261 -10.134   7.513  1.00  0.00     0.016 A 
BRANCH  24  27
HETATM   27  O   UNL     1      41.373  -6.796   8.697  1.00  0.00    -0.347 OA
BRANCH  27  28
HETATM   28  C   UNL     1      42.738  -6.405   8.857  1.00  0.00     0.214 C 
BRANCH  28  29
HETATM   29  C   UNL     1      43.532  -7.545   9.453  1.00  0.00    -0.034 A 
HETATM   30  C   UNL     1      43.236  -8.007  10.744  1.00  0.00     0.009 A 
HETATM   31  C   UNL     1      43.949  -9.072  11.299  1.00  0.00     0.001 A 
HETATM   32  C   UNL     1      44.957  -9.693  10.567  1.00  0.00     0.000 A 
HETATM   33  C   UNL     1      45.251  -9.255   9.277  1.00  0.00     0.001 A 
HETATM   34  C   UNL     1      44.539  -8.191   8.720  1.00  0.00     0.009 A 
ENDBRANCH  28  29
ENDBRANCH  27  28
ENDBRANCH  24  27
ENDBRANCH   1  21
TORSDOF 6
ENDMDL
