MODEL 1
REMARK VINA RESULT:      -9.6      0.000      0.000
REMARK  3 active torsions:
REMARK  status: ('A' for Active; 'I' for Inactive)
REMARK    1  A    between atoms: C_6  and  O_7 
REMARK    2  A    between atoms: O_7  and  C_8 
REMARK       I    between atoms: N_10  and  C_11 
REMARK       I    between atoms: C_11  and  N_12 
REMARK    3  A    between atoms: N_12  and  C_13 
ROOT
HETATM    1  C   UNL     1      42.865 -15.865   5.333  1.00  0.00     0.148 C 
HETATM    2  C   UNL     1      41.491 -16.056   4.672  1.00  0.00     0.160 C 
HETATM    3  N   UNL     1      41.356 -14.922   3.762  1.00  0.00    -0.331 N 
HETATM    4  C   UNL     1      40.464 -14.978   2.707  1.00  0.00     0.323 C 
HETATM    5  N   UNL     1      40.583 -13.935   1.817  1.00  0.00    -0.309 N 
HETATM    6  O   UNL     1      39.667 -15.909   2.611  1.00  0.00    -0.247 OA
HETATM    7  C   UNL     1      42.373 -13.922   4.037  1.00  0.00     0.130 C 
HETATM    8  C   UNL     1      42.977 -14.339   5.371  1.00  0.00     0.054 C 
HETATM    9  H   UNL     1      41.276 -13.242   2.040  1.00  0.00     0.170 HD
ENDROOT
BRANCH   5  10
HETATM   10  C   UNL     1      39.902 -13.743   0.596  1.00  0.00     0.037 A 
HETATM   11  C   UNL     1      39.781 -14.726  -0.392  1.00  0.00     0.043 A 
HETATM   12  C   UNL     1      39.106 -14.429  -1.597  1.00  0.00    -0.006 A 
HETATM   13  C   UNL     1      38.568 -13.156  -1.775  1.00  0.00     0.042 A 
HETATM   14  C   UNL     1      38.816 -15.172  -2.775  1.00  0.00     0.030 A 
HETATM   15  N   UNL     1      37.980 -13.133  -3.019  1.00  0.00    -0.365 N 
HETATM   16  C   UNL     1      38.668 -12.156  -0.803  1.00  0.00     0.033 A 
HETATM   17  H   UNL     1      37.512 -12.331  -3.418  1.00  0.00     0.165 HD
HETATM   18  C   UNL     1      38.125 -14.349  -3.633  1.00  0.00     0.089 A 
HETATM   19  C   UNL     1      39.343 -12.476   0.381  1.00  0.00     0.032 A 
ENDBRANCH   5  10
BRANCH   1  20
HETATM   20  O   UNL     1      43.847 -16.436   4.459  1.00  0.00    -0.344 OA
BRANCH  20  21
HETATM   21  C   UNL     1      43.862 -17.785   4.258  1.00  0.00     0.070 A 
HETATM   22  C   UNL     1      43.763 -18.439   3.032  1.00  0.00     0.060 A 
HETATM   23  C   UNL     1      43.770 -19.837   2.994  1.00  0.00     0.036 A 
HETATM   24  C   UNL     1      43.881 -20.585   4.164  1.00  0.00     0.024 A 
HETATM   25 CL   UNL     1      43.630 -20.645   1.479  1.00  0.00    -0.084 Cl
HETATM   26  C   UNL     1      43.991 -19.932   5.389  1.00  0.00     0.004 A 
HETATM   27  C   UNL     1      43.982 -18.538   5.432  1.00  0.00     0.037 A 
ENDBRANCH  20  21
ENDBRANCH   1  20
TORSDOF 3
ENDMDL
MODEL 2
REMARK VINA RESULT:      -9.1      0.622      1.471
REMARK  3 active torsions:
REMARK  status: ('A' for Active; 'I' for Inactive)
REMARK    1  A    between atoms: C_6  and  O_7 
REMARK    2  A    between atoms: O_7  and  C_8 
REMARK       I    between atoms: N_10  and  C_11 
REMARK       I    between atoms: C_11  and  N_12 
REMARK    3  A    between atoms: N_12  and  C_13 
ROOT
HETATM    1  C   UNL     1      42.603 -15.906   5.306  1.00  0.00     0.148 C 
HETATM    2  C   UNL     1      41.258 -16.046   4.575  1.00  0.00     0.160 C 
HETATM    3  N   UNL     1      41.158 -14.846   3.750  1.00  0.00    -0.331 N 
HETATM    4  C   UNL     1      40.310 -14.820   2.658  1.00  0.00     0.323 C 
HETATM    5  N   UNL     1      40.463 -13.712   1.857  1.00  0.00    -0.309 N 
HETATM    6  O   UNL     1      39.521 -15.740   2.458  1.00  0.00    -0.247 OA
HETATM    7  C   UNL     1      42.160 -13.870   4.144  1.00  0.00     0.130 C 
HETATM    8  C   UNL     1      42.709 -14.388   5.466  1.00  0.00     0.054 C 
HETATM    9  H   UNL     1      41.144 -13.038   2.161  1.00  0.00     0.170 HD
ENDROOT
BRANCH   5  10
HETATM   10  C   UNL     1      39.833 -13.426   0.627  1.00  0.00     0.037 A 
HETATM   11  C   UNL     1      39.004 -12.319   0.414  1.00  0.00     0.043 A 
HETATM   12  C   UNL     1      38.392 -12.133  -0.845  1.00  0.00    -0.006 A 
HETATM   13  C   UNL     1      38.632 -13.061  -1.857  1.00  0.00     0.042 A 
HETATM   14  C   UNL     1      37.514 -11.150  -1.380  1.00  0.00     0.030 A 
HETATM   15  N   UNL     1      37.919 -12.651  -2.961  1.00  0.00    -0.365 N 
HETATM   16  C   UNL     1      39.460 -14.171  -1.676  1.00  0.00     0.033 A 
HETATM   17  H   UNL     1      37.902 -13.139  -3.846  1.00  0.00     0.165 HD
HETATM   18  C   UNL     1      37.239 -11.496  -2.683  1.00  0.00     0.089 A 
HETATM   19  C   UNL     1      40.053 -14.333  -0.418  1.00  0.00     0.032 A 
ENDBRANCH   5  10
BRANCH   1  20
HETATM   20  O   UNL     1      43.622 -16.408   4.432  1.00  0.00    -0.344 OA
BRANCH  20  21
HETATM   21  C   UNL     1      43.721 -17.752   4.219  1.00  0.00     0.070 A 
HETATM   22  C   UNL     1      43.651 -18.402   2.989  1.00  0.00     0.060 A 
HETATM   23  C   UNL     1      43.745 -19.796   2.938  1.00  0.00     0.036 A 
HETATM   24  C   UNL     1      43.914 -20.545   4.101  1.00  0.00     0.024 A 
HETATM   25 CL   UNL     1      43.642 -20.598   1.418  1.00  0.00    -0.084 Cl
HETATM   26  C   UNL     1      43.994 -19.896   5.330  1.00  0.00     0.004 A 
HETATM   27  C   UNL     1      43.898 -18.506   5.385  1.00  0.00     0.037 A 
ENDBRANCH  20  21
ENDBRANCH   1  20
TORSDOF 3
ENDMDL
MODEL 3
REMARK VINA RESULT:      -9.0      3.897      7.461
REMARK  3 active torsions:
REMARK  status: ('A' for Active; 'I' for Inactive)
REMARK    1  A    between atoms: C_6  and  O_7 
REMARK    2  A    between atoms: O_7  and  C_8 
REMARK       I    between atoms: N_10  and  C_11 
REMARK       I    between atoms: C_11  and  N_12 
REMARK    3  A    between atoms: N_12  and  C_13 
ROOT
HETATM    1  C   UNL     1      42.323 -16.057   2.601  1.00  0.00     0.148 C 
HETATM    2  C   UNL     1      42.562 -14.539   2.589  1.00  0.00     0.160 C 
HETATM    3  N   UNL     1      42.470 -14.139   3.991  1.00  0.00    -0.331 N 
HETATM    4  C   UNL     1      43.036 -12.951   4.414  1.00  0.00     0.323 C 
HETATM    5  N   UNL     1      43.055 -12.795   5.782  1.00  0.00    -0.309 N 
HETATM    6  O   UNL     1      43.484 -12.147   3.600  1.00  0.00    -0.247 OA
HETATM    7  C   UNL     1      41.906 -15.211   4.793  1.00  0.00     0.130 C 
HETATM    8  C   UNL     1      41.359 -16.208   3.780  1.00  0.00     0.054 C 
HETATM    9  H   UNL     1      42.637 -13.537   6.315  1.00  0.00     0.170 HD
ENDROOT
BRANCH   5  10
HETATM   10  C   UNL     1      43.641 -11.758   6.538  1.00  0.00     0.037 A 
HETATM   11  C   UNL     1      42.943 -10.633   6.991  1.00  0.00     0.043 A 
HETATM   12  C   UNL     1      43.624  -9.631   7.716  1.00  0.00    -0.006 A 
HETATM   13  C   UNL     1      44.985  -9.787   7.971  1.00  0.00     0.042 A 
HETATM   14  C   UNL     1      43.230  -8.394   8.299  1.00  0.00     0.030 A 
HETATM   15  N   UNL     1      45.396  -8.679   8.678  1.00  0.00    -0.365 N 
HETATM   16  C   UNL     1      45.706 -10.902   7.537  1.00  0.00     0.033 A 
HETATM   17  H   UNL     1      46.342  -8.521   8.996  1.00  0.00     0.165 HD
HETATM   18  C   UNL     1      44.341  -7.831   8.882  1.00  0.00     0.089 A 
HETATM   19  C   UNL     1      45.008 -11.880   6.819  1.00  0.00     0.032 A 
ENDBRANCH   5  10
BRANCH   1  20
HETATM   20  O   UNL     1      43.581 -16.689   2.875  1.00  0.00    -0.344 OA
BRANCH  20  21
HETATM   21  C   UNL     1      43.626 -18.039   3.062  1.00  0.00     0.070 A 
HETATM   22  C   UNL     1      43.999 -18.699   4.230  1.00  0.00     0.060 A 
HETATM   23  C   UNL     1      44.019 -20.097   4.257  1.00  0.00     0.036 A 
HETATM   24  C   UNL     1      43.664 -20.839   3.132  1.00  0.00     0.024 A 
HETATM   25 CL   UNL     1      44.496 -20.912   5.697  1.00  0.00    -0.084 Cl
HETATM   26  C   UNL     1      43.282 -20.181   1.967  1.00  0.00     0.004 A 
HETATM   27  C   UNL     1      43.263 -18.786   1.936  1.00  0.00     0.037 A 
ENDBRANCH  20  21
ENDBRANCH   1  20
TORSDOF 3
ENDMDL
MODEL 4
REMARK VINA RESULT:      -8.8      5.358      8.518
REMARK  3 active torsions:
REMARK  status: ('A' for Active; 'I' for Inactive)
REMARK    1  A    between atoms: C_6  and  O_7 
REMARK    2  A    between atoms: O_7  and  C_8 
REMARK       I    between atoms: N_10  and  C_11 
REMARK       I    between atoms: C_11  and  N_12 
REMARK    3  A    between atoms: N_12  and  C_13 
ROOT
HETATM    1  C   UNL     1      42.292 -11.186   5.798  1.00  0.00     0.148 C 
HETATM    2  C   UNL     1      41.478 -12.444   5.461  1.00  0.00     0.160 C 
HETATM    3  N   UNL     1      42.385 -13.273   4.672  1.00  0.00    -0.331 N 
HETATM    4  C   UNL     1      42.161 -14.632   4.552  1.00  0.00     0.323 C 
HETATM    5  N   UNL     1      43.194 -15.320   3.958  1.00  0.00    -0.309 N 
HETATM    6  O   UNL     1      41.120 -15.132   4.972  1.00  0.00    -0.247 OA
HETATM    7  C   UNL     1      43.546 -12.505   4.255  1.00  0.00     0.130 C 
HETATM    8  C   UNL     1      43.186 -11.058   4.562  1.00  0.00     0.054 C 
HETATM    9  H   UNL     1      43.976 -14.766   3.655  1.00  0.00     0.170 HD
ENDROOT
BRANCH   5  10
HETATM   10  C   UNL     1      43.328 -16.712   3.773  1.00  0.00     0.037 A 
HETATM   11  C   UNL     1      43.711 -17.600   4.785  1.00  0.00     0.043 A 
HETATM   12  C   UNL     1      43.848 -18.975   4.496  1.00  0.00    -0.006 A 
HETATM   13  C   UNL     1      43.593 -19.423   3.202  1.00  0.00     0.042 A 
HETATM   14  C   UNL     1      44.216 -20.114   5.267  1.00  0.00     0.030 A 
HETATM   15  N   UNL     1      43.805 -20.783   3.193  1.00  0.00    -0.365 N 
HETATM   16  C   UNL     1      43.203 -18.562   2.173  1.00  0.00     0.033 A 
HETATM   17  H   UNL     1      43.698 -21.375   2.381  1.00  0.00     0.165 HD
HETATM   18  C   UNL     1      44.182 -21.211   4.438  1.00  0.00     0.089 A 
HETATM   19  C   UNL     1      43.076 -17.203   2.486  1.00  0.00     0.032 A 
ENDBRANCH   5  10
BRANCH   1  20
HETATM   20  O   UNL     1      43.065 -11.474   6.970  1.00  0.00    -0.344 OA
BRANCH  20  21
HETATM   21  C   UNL     1      43.768 -10.472   7.573  1.00  0.00     0.070 A 
HETATM   22  C   UNL     1      43.254  -9.261   8.031  1.00  0.00     0.060 A 
HETATM   23  C   UNL     1      44.112  -8.321   8.608  1.00  0.00     0.036 A 
HETATM   24  C   UNL     1      45.475  -8.581   8.738  1.00  0.00     0.024 A 
HETATM   25 CL   UNL     1      43.478  -6.817   9.159  1.00  0.00    -0.084 Cl
HETATM   26  C   UNL     1      45.989  -9.795   8.290  1.00  0.00     0.004 A 
HETATM   27  C   UNL     1      45.136 -10.734   7.712  1.00  0.00     0.037 A 
ENDBRANCH  20  21
ENDBRANCH   1  20
TORSDOF 3
ENDMDL
MODEL 5
REMARK VINA RESULT:      -8.6      7.032     10.782
REMARK  3 active torsions:
REMARK  status: ('A' for Active; 'I' for Inactive)
REMARK    1  A    between atoms: C_6  and  O_7 
REMARK    2  A    between atoms: O_7  and  C_8 
REMARK       I    between atoms: N_10  and  C_11 
REMARK       I    between atoms: C_11  and  N_12 
REMARK    3  A    between atoms: N_12  and  C_13 
ROOT
HETATM    1  C   UNL     1      43.972 -12.131   6.095  1.00  0.00     0.148 C 
HETATM    2  C   UNL     1      44.663 -11.648   7.380  1.00  0.00     0.160 C 
HETATM    3  N   UNL     1      43.711 -10.720   7.986  1.00  0.00    -0.331 N 
HETATM    4  C   UNL     1      43.794 -10.417   9.332  1.00  0.00     0.323 C 
HETATM    5  N   UNL     1      42.724  -9.697   9.811  1.00  0.00    -0.309 N 
HETATM    6  O   UNL     1      44.753 -10.798  10.000  1.00  0.00    -0.247 OA
HETATM    7  C   UNL     1      42.662 -10.375   7.042  1.00  0.00     0.130 C 
HETATM    8  C   UNL     1      43.160 -10.895   5.700  1.00  0.00     0.054 C 
HETATM    9  H   UNL     1      42.022  -9.448   9.136  1.00  0.00     0.170 HD
ENDROOT
BRANCH   5  10
HETATM   10  C   UNL     1      42.450  -9.313  11.141  1.00  0.00     0.037 A 
HETATM   11  C   UNL     1      43.117  -8.279  11.808  1.00  0.00     0.043 A 
HETATM   12  C   UNL     1      42.794  -7.989  13.152  1.00  0.00    -0.006 A 
HETATM   13  C   UNL     1      41.809  -8.741  13.788  1.00  0.00     0.042 A 
HETATM   14  C   UNL     1      43.269  -7.038  14.098  1.00  0.00     0.030 A 
HETATM   15  N   UNL     1      41.699  -8.261  15.074  1.00  0.00    -0.365 N 
HETATM   16  C   UNL     1      41.121  -9.774  13.147  1.00  0.00     0.033 A 
HETATM   17  H   UNL     1      41.060  -8.624  15.768  1.00  0.00     0.165 HD
HETATM   18  C   UNL     1      42.578  -7.231  15.271  1.00  0.00     0.089 A 
HETATM   19  C   UNL     1      41.462 -10.042  11.815  1.00  0.00     0.032 A 
ENDBRANCH   5  10
BRANCH   1  20
HETATM   20  O   UNL     1      43.116 -13.224   6.451  1.00  0.00    -0.344 OA
BRANCH  20  21
HETATM   21  C   UNL     1      43.319 -14.448   5.883  1.00  0.00     0.070 A 
HETATM   22  C   UNL     1      42.820 -14.883   4.658  1.00  0.00     0.060 A 
HETATM   23  C   UNL     1      43.098 -16.183   4.223  1.00  0.00     0.036 A 
HETATM   24  C   UNL     1      43.873 -17.046   4.995  1.00  0.00     0.024 A 
HETATM   25 CL   UNL     1      42.467 -16.726   2.715  1.00  0.00    -0.084 Cl
HETATM   26  C   UNL     1      44.381 -16.608   6.214  1.00  0.00     0.004 A 
HETATM   27  C   UNL     1      44.103 -15.313   6.653  1.00  0.00     0.037 A 
ENDBRANCH  20  21
ENDBRANCH   1  20
TORSDOF 3
ENDMDL
MODEL 6
REMARK VINA RESULT:      -8.0      3.944      4.513
REMARK  3 active torsions:
REMARK  status: ('A' for Active; 'I' for Inactive)
REMARK    1  A    between atoms: C_6  and  O_7 
REMARK    2  A    between atoms: O_7  and  C_8 
REMARK       I    between atoms: N_10  and  C_11 
REMARK       I    between atoms: C_11  and  N_12 
REMARK    3  A    between atoms: N_12  and  C_13 
ROOT
HETATM    1  C   UNL     1      43.232 -16.531   6.439  1.00  0.00     0.148 C 
HETATM    2  C   UNL     1      41.851 -15.934   6.753  1.00  0.00     0.160 C 
HETATM    3  N   UNL     1      41.975 -14.518   6.420  1.00  0.00    -0.331 N 
HETATM    4  C   UNL     1      40.845 -13.760   6.172  1.00  0.00     0.323 C 
HETATM    5  N   UNL     1      41.112 -12.504   5.676  1.00  0.00    -0.309 N 
HETATM    6  O   UNL     1      39.725 -14.221   6.378  1.00  0.00    -0.247 OA
HETATM    7  C   UNL     1      43.369 -14.158   6.228  1.00  0.00     0.130 C 
HETATM    8  C   UNL     1      44.155 -15.351   6.754  1.00  0.00     0.054 C 
HETATM    9  H   UNL     1      42.083 -12.267   5.575  1.00  0.00     0.170 HD
ENDROOT
BRANCH   5  10
HETATM   10  C   UNL     1      40.198 -11.526   5.230  1.00  0.00     0.037 A 
HETATM   11  C   UNL     1      39.885 -11.307   3.884  1.00  0.00     0.043 A 
HETATM   12  C   UNL     1      38.979 -10.281   3.533  1.00  0.00    -0.006 A 
HETATM   13  C   UNL     1      38.410  -9.507   4.542  1.00  0.00     0.042 A 
HETATM   14  C   UNL     1      38.463  -9.802   2.297  1.00  0.00     0.030 A 
HETATM   15  N   UNL     1      37.583  -8.590   3.933  1.00  0.00    -0.365 N 
HETATM   16  C   UNL     1      38.698  -9.707   5.894  1.00  0.00     0.033 A 
HETATM   17  H   UNL     1      37.041  -7.893   4.423  1.00  0.00     0.165 HD
HETATM   18  C   UNL     1      37.608  -8.760   2.574  1.00  0.00     0.089 A 
HETATM   19  C   UNL     1      39.600 -10.729   6.215  1.00  0.00     0.032 A 
ENDBRANCH   5  10
BRANCH   1  20
HETATM   20  O   UNL     1      43.256 -16.850   5.042  1.00  0.00    -0.344 OA
BRANCH  20  21
HETATM   21  C   UNL     1      43.511 -18.132   4.651  1.00  0.00     0.070 A 
HETATM   22  C   UNL     1      43.540 -18.606   3.342  1.00  0.00     0.060 A 
HETATM   23  C   UNL     1      43.794 -19.960   3.104  1.00  0.00     0.036 A 
HETATM   24  C   UNL     1      44.025 -20.841   4.159  1.00  0.00     0.024 A 
HETATM   25 CL   UNL     1      43.812 -20.549   1.486  1.00  0.00    -0.084 Cl
HETATM   26  C   UNL     1      44.007 -20.366   5.467  1.00  0.00     0.004 A 
HETATM   27  C   UNL     1      43.752 -19.016   5.708  1.00  0.00     0.037 A 
ENDBRANCH  20  21
ENDBRANCH   1  20
TORSDOF 3
ENDMDL
MODEL 7
REMARK VINA RESULT:      -7.9      6.716      9.521
REMARK  3 active torsions:
REMARK  status: ('A' for Active; 'I' for Inactive)
REMARK    1  A    between atoms: C_6  and  O_7 
REMARK    2  A    between atoms: O_7  and  C_8 
REMARK       I    between atoms: N_10  and  C_11 
REMARK       I    between atoms: C_11  and  N_12 
REMARK    3  A    between atoms: N_12  and  C_13 
ROOT
HETATM    1  C   UNL     1      44.232  -8.725   9.451  1.00  0.00     0.148 C 
HETATM    2  C   UNL     1      43.195  -9.173   8.409  1.00  0.00     0.160 C 
HETATM    3  N   UNL     1      43.880 -10.191   7.618  1.00  0.00    -0.331 N 
HETATM    4  C   UNL     1      43.152 -11.105   6.879  1.00  0.00     0.323 C 
HETATM    5  N   UNL     1      43.909 -12.126   6.349  1.00  0.00    -0.309 N 
HETATM    6  O   UNL     1      41.937 -10.981   6.753  1.00  0.00    -0.247 OA
HETATM    7  C   UNL     1      45.307 -10.176   7.891  1.00  0.00     0.130 C 
HETATM    8  C   UNL     1      45.539  -8.890   8.673  1.00  0.00     0.054 C 
HETATM    9  H   UNL     1      44.897 -12.082   6.530  1.00  0.00     0.170 HD
ENDROOT
BRANCH   5  10
HETATM   10  C   UNL     1      43.472 -13.262   5.636  1.00  0.00     0.037 A 
HETATM   11  C   UNL     1      43.063 -13.234   4.298  1.00  0.00     0.043 A 
HETATM   12  C   UNL     1      42.612 -14.419   3.678  1.00  0.00    -0.006 A 
HETATM   13  C   UNL     1      42.587 -15.601   4.416  1.00  0.00     0.042 A 
HETATM   14  C   UNL     1      42.134 -14.731   2.375  1.00  0.00     0.030 A 
HETATM   15  N   UNL     1      42.105 -16.589   3.586  1.00  0.00    -0.365 N 
HETATM   16  C   UNL     1      42.994 -15.662   5.750  1.00  0.00     0.033 A 
HETATM   17  H   UNL     1      41.975 -17.553   3.857  1.00  0.00     0.165 HD
HETATM   18  C   UNL     1      41.828 -16.072   2.348  1.00  0.00     0.089 A 
HETATM   19  C   UNL     1      43.436 -14.472   6.342  1.00  0.00     0.032 A 
ENDBRANCH   5  10
BRANCH   1  20
HETATM   20  O   UNL     1      44.161  -9.641  10.550  1.00  0.00    -0.344 OA
BRANCH  20  21
HETATM   21  C   UNL     1      43.279  -9.407  11.564  1.00  0.00     0.070 A 
HETATM   22  C   UNL     1      42.106 -10.113  11.819  1.00  0.00     0.060 A 
HETATM   23  C   UNL     1      41.290  -9.733  12.888  1.00  0.00     0.036 A 
HETATM   24  C   UNL     1      41.637  -8.660  13.707  1.00  0.00     0.024 A 
HETATM   25 CL   UNL     1      39.831 -10.597  13.192  1.00  0.00    -0.084 Cl
HETATM   26  C   UNL     1      42.814  -7.960  13.460  1.00  0.00     0.004 A 
HETATM   27  C   UNL     1      43.629  -8.335  12.392  1.00  0.00     0.037 A 
ENDBRANCH  20  21
ENDBRANCH   1  20
TORSDOF 3
ENDMDL
MODEL 8
REMARK VINA RESULT:      -7.9      3.938      9.108
REMARK  3 active torsions:
REMARK  status: ('A' for Active; 'I' for Inactive)
REMARK    1  A    between atoms: C_6  and  O_7 
REMARK    2  A    between atoms: O_7  and  C_8 
REMARK       I    between atoms: N_10  and  C_11 
REMARK       I    between atoms: C_11  and  N_12 
REMARK    3  A    between atoms: N_12  and  C_13 
ROOT
HETATM    1  C   UNL     1      39.510 -12.271  -1.171  1.00  0.00     0.148 C 
HETATM    2  C   UNL     1      39.596 -12.451   0.353  1.00  0.00     0.160 C 
HETATM    3  N   UNL     1      39.972 -13.849   0.540  1.00  0.00    -0.331 N 
HETATM    4  C   UNL     1      40.545 -14.263   1.728  1.00  0.00     0.323 C 
HETATM    5  N   UNL     1      41.034 -15.550   1.696  1.00  0.00    -0.309 N 
HETATM    6  O   UNL     1      40.604 -13.503   2.692  1.00  0.00    -0.247 OA
HETATM    7  C   UNL     1      39.824 -14.589  -0.702  1.00  0.00     0.130 C 
HETATM    8  C   UNL     1      39.043 -13.657  -1.619  1.00  0.00     0.054 C 
HETATM    9  H   UNL     1      40.898 -16.051   0.835  1.00  0.00     0.170 HD
ENDROOT
BRANCH   5  10
HETATM   10  C   UNL     1      41.756 -16.238   2.693  1.00  0.00     0.037 A 
HETATM   11  C   UNL     1      41.546 -16.069   4.066  1.00  0.00     0.043 A 
HETATM   12  C   UNL     1      42.342 -16.781   4.990  1.00  0.00    -0.006 A 
HETATM   13  C   UNL     1      43.324 -17.645   4.512  1.00  0.00     0.042 A 
HETATM   14  C   UNL     1      42.394 -16.835   6.411  1.00  0.00     0.030 A 
HETATM   15  N   UNL     1      43.948 -18.197   5.608  1.00  0.00    -0.365 N 
HETATM   16  C   UNL     1      43.553 -17.840   3.148  1.00  0.00     0.033 A 
HETATM   17  H   UNL     1      44.708 -18.861   5.560  1.00  0.00     0.165 HD
HETATM   18  C   UNL     1      43.392 -17.714   6.762  1.00  0.00     0.089 A 
HETATM   19  C   UNL     1      42.751 -17.121   2.252  1.00  0.00     0.032 A 
ENDBRANCH   5  10
BRANCH   1  20
HETATM   20  O   UNL     1      40.833 -11.989  -1.646  1.00  0.00    -0.344 OA
BRANCH  20  21
HETATM   21  C   UNL     1      41.136 -10.733  -2.083  1.00  0.00     0.070 A 
HETATM   22  C   UNL     1      41.869  -9.771  -1.391  1.00  0.00     0.060 A 
HETATM   23  C   UNL     1      42.074  -8.514  -1.967  1.00  0.00     0.036 A 
HETATM   24  C   UNL     1      41.561  -8.211  -3.227  1.00  0.00     0.024 A 
HETATM   25 CL   UNL     1      42.966  -7.320  -1.103  1.00  0.00    -0.084 Cl
HETATM   26  C   UNL     1      40.837  -9.175  -3.924  1.00  0.00     0.004 A 
HETATM   27  C   UNL     1      40.628 -10.430  -3.352  1.00  0.00     0.037 A 
ENDBRANCH  20  21
ENDBRANCH   1  20
TORSDOF 3
ENDMDL
MODEL 9
REMARK VINA RESULT:      -7.9      2.622      3.401
REMARK  3 active torsions:
REMARK  status: ('A' for Active; 'I' for Inactive)
REMARK    1  A    between atoms: C_6  and  O_7 
REMARK    2  A    between atoms: O_7  and  C_8 
REMARK       I    between atoms: N_10  and  C_11 
REMARK       I    between atoms: C_11  and  N_12 
REMARK    3  A    between atoms: N_12  and  C_13 
ROOT
HETATM    1  C   UNL     1      40.932 -15.654   3.418  1.00  0.00     0.148 C 
HETATM    2  C   UNL     1      40.278 -15.495   2.036  1.00  0.00     0.160 C 
HETATM    3  N   UNL     1      40.391 -14.070   1.735  1.00  0.00    -0.331 N 
HETATM    4  C   UNL     1      40.301 -13.626   0.428  1.00  0.00     0.323 C 
HETATM    5  N   UNL     1      40.625 -12.298   0.266  1.00  0.00    -0.309 N 
HETATM    6  O   UNL     1      39.973 -14.395  -0.472  1.00  0.00    -0.247 OA
HETATM    7  C   UNL     1      40.772 -13.325   2.922  1.00  0.00     0.130 C 
HETATM    8  C   UNL     1      40.601 -14.310   4.071  1.00  0.00     0.054 C 
HETATM    9  H   UNL     1      40.862 -11.796   1.103  1.00  0.00     0.170 HD
ENDROOT
BRANCH   5  10
HETATM   10  C   UNL     1      40.731 -11.563  -0.934  1.00  0.00     0.037 A 
HETATM   11  C   UNL     1      40.643 -10.168  -1.004  1.00  0.00     0.043 A 
HETATM   12  C   UNL     1      40.729  -9.522  -2.257  1.00  0.00    -0.006 A 
HETATM   13  C   UNL     1      40.906 -10.293  -3.404  1.00  0.00     0.042 A 
HETATM   14  C   UNL     1      40.674  -8.162  -2.672  1.00  0.00     0.030 A 
HETATM   15  N   UNL     1      40.950  -9.426  -4.473  1.00  0.00    -0.365 N 
HETATM   16  C   UNL     1      41.004 -11.685  -3.365  1.00  0.00     0.033 A 
HETATM   17  H   UNL     1      41.067  -9.709  -5.436  1.00  0.00     0.165 HD
HETATM   18  C   UNL     1      40.811  -8.134  -4.041  1.00  0.00     0.089 A 
HETATM   19  C   UNL     1      40.914 -12.301  -2.110  1.00  0.00     0.032 A 
ENDBRANCH   5  10
BRANCH   1  20
HETATM   20  O   UNL     1      42.343 -15.798   3.213  1.00  0.00    -0.344 OA
BRANCH  20  21
HETATM   21  C   UNL     1      42.925 -17.020   3.387  1.00  0.00     0.070 A 
HETATM   22  C   UNL     1      43.001 -18.041   2.443  1.00  0.00     0.060 A 
HETATM   23  C   UNL     1      43.612 -19.252   2.784  1.00  0.00     0.036 A 
HETATM   24  C   UNL     1      44.152 -19.448   4.053  1.00  0.00     0.024 A 
HETATM   25 CL   UNL     1      43.690 -20.520   1.621  1.00  0.00    -0.084 Cl
HETATM   26  C   UNL     1      44.086 -18.425   4.994  1.00  0.00     0.004 A 
HETATM   27  C   UNL     1      43.475 -17.216   4.658  1.00  0.00     0.037 A 
ENDBRANCH  20  21
ENDBRANCH   1  20
TORSDOF 3
ENDMDL
MODEL 10
REMARK VINA RESULT:      -7.7      3.896      4.874
REMARK  3 active torsions:
REMARK  status: ('A' for Active; 'I' for Inactive)
REMARK    1  A    between atoms: C_6  and  O_7 
REMARK    2  A    between atoms: O_7  and  C_8 
REMARK       I    between atoms: N_10  and  C_11 
REMARK       I    between atoms: C_11  and  N_12 
REMARK    3  A    between atoms: N_12  and  C_13 
ROOT
HETATM    1  C   UNL     1      40.683 -15.085   1.479  1.00  0.00     0.148 C 
HETATM    2  C   UNL     1      40.496 -14.568   0.044  1.00  0.00     0.160 C 
HETATM    3  N   UNL     1      40.492 -13.114   0.172  1.00  0.00    -0.331 N 
HETATM    4  C   UNL     1      40.766 -12.318  -0.925  1.00  0.00     0.323 C 
HETATM    5  N   UNL     1      40.929 -10.985  -0.622  1.00  0.00    -0.309 N 
HETATM    6  O   UNL     1      40.863 -12.810  -2.046  1.00  0.00    -0.247 OA
HETATM    7  C   UNL     1      40.355 -12.723   1.565  1.00  0.00     0.130 C 
HETATM    8  C   UNL     1      39.966 -14.004   2.291  1.00  0.00     0.054 C 
HETATM    9  H   UNL     1      40.805 -10.733   0.343  1.00  0.00     0.170 HD
ENDROOT
BRANCH   5  10
HETATM   10  C   UNL     1      41.309  -9.931  -1.480  1.00  0.00     0.037 A 
HETATM   11  C   UNL     1      40.729  -9.698  -2.733  1.00  0.00     0.043 A 
HETATM   12  C   UNL     1      41.199  -8.635  -3.535  1.00  0.00    -0.006 A 
HETATM   13  C   UNL     1      42.233  -7.832  -3.057  1.00  0.00     0.042 A 
HETATM   14  C   UNL     1      40.847  -8.140  -4.822  1.00  0.00     0.030 A 
HETATM   15  N   UNL     1      42.497  -6.891  -4.026  1.00  0.00    -0.365 N 
HETATM   16  C   UNL     1      42.826  -8.037  -1.809  1.00  0.00     0.033 A 
HETATM   17  H   UNL     1      43.207  -6.176  -3.951  1.00  0.00     0.165 HD
HETATM   18  C   UNL     1      41.664  -7.068  -5.098  1.00  0.00     0.089 A 
HETATM   19  C   UNL     1      42.343  -9.098  -1.034  1.00  0.00     0.032 A 
ENDBRANCH   5  10
BRANCH   1  20
HETATM   20  O   UNL     1      42.089 -15.095   1.754  1.00  0.00    -0.344 OA
BRANCH  20  21
HETATM   21  C   UNL     1      42.638 -16.159   2.408  1.00  0.00     0.070 A 
HETATM   22  C   UNL     1      42.814 -17.442   1.896  1.00  0.00     0.060 A 
HETATM   23  C   UNL     1      43.372 -18.437   2.704  1.00  0.00     0.036 A 
HETATM   24  C   UNL     1      43.761 -18.161   4.014  1.00  0.00     0.024 A 
HETATM   25 CL   UNL     1      43.574 -20.028   2.076  1.00  0.00    -0.084 Cl
HETATM   26  C   UNL     1      43.595 -16.876   4.523  1.00  0.00     0.004 A 
HETATM   27  C   UNL     1      43.036 -15.882   3.721  1.00  0.00     0.037 A 
ENDBRANCH  20  21
ENDBRANCH   1  20
TORSDOF 3
ENDMDL
