MODEL 1
REMARK VINA RESULT:      -7.9      0.000      0.000
REMARK  5 active torsions:
REMARK  status: ('A' for Active; 'I' for Inactive)
REMARK    1  A    between atoms: C_6  and  C_7 
REMARK    2  A    between atoms: C_12  and  C_13 
REMARK    3  A    between atoms: C_13  and  N_14 
REMARK    4  A    between atoms: C_17  and  O_18 
REMARK    5  A    between atoms: C_17  and  C_19 
ROOT
HETATM    1  C   UNL     1      43.661 -16.966   5.467  1.00  0.00     0.096 A 
HETATM    2  N   UNL     1      44.656 -16.469   6.210  1.00  0.00    -0.174 NA
HETATM    3  N   UNL     1      44.285 -15.217   6.502  1.00  0.00    -0.288 N 
HETATM    4  H   UNL     1      44.885 -14.665   7.111  1.00  0.00     0.188 HD
HETATM    5  C   UNL     1      43.121 -14.852   5.892  1.00  0.00     0.120 A 
HETATM    6  C   UNL     1      42.678 -15.961   5.194  1.00  0.00     0.016 A 
ENDROOT
BRANCH   6   7
HETATM    7  C   UNL     1      41.465 -16.062   4.344  1.00  0.00     0.277 C 
BRANCH   7   8
HETATM    8  N   UNL     1      41.685 -15.511   2.954  1.00  0.00    -0.064 N 
HETATM    9  H   UNL     1      42.692 -15.593   2.758  1.00  0.00     0.280 HD
HETATM   10  C   UNL     1      41.289 -14.038   2.801  1.00  0.00     0.282 C 
HETATM   11  C   UNL     1      40.045 -14.074   1.916  1.00  0.00     0.180 C 
HETATM   12  C   UNL     1      40.362 -15.217   0.963  1.00  0.00     0.076 C 
HETATM   13  C   UNL     1      40.927 -16.282   1.891  1.00  0.00     0.238 C 
BRANCH  11  14
HETATM   14  O   UNL     1      38.910 -14.474   2.718  1.00  0.00    -0.379 OA
HETATM   15  H   UNL     1      38.096 -14.112   2.306  1.00  0.00     0.211 HD
ENDBRANCH  11  14
BRANCH  11  16
HETATM   16  C   UNL     1      39.858 -12.726   1.231  1.00  0.00     0.419 C 
HETATM   17  F   UNL     1      41.041 -12.214   0.837  1.00  0.00    -0.168 F 
HETATM   18  F   UNL     1      39.069 -12.861   0.146  1.00  0.00    -0.168 F 
HETATM   19  F   UNL     1      39.278 -11.844   2.068  1.00  0.00    -0.168 F 
ENDBRANCH  11  16
ENDBRANCH   7   8
ENDBRANCH   6   7
BRANCH   1  20
HETATM   20  C   UNL     1      43.714 -18.345   4.988  1.00  0.00    -0.003 A 
HETATM   21  C   UNL     1      43.717 -18.631   3.619  1.00  0.00     0.037 A 
HETATM   22  C   UNL     1      43.808 -19.953   3.183  1.00  0.00     0.035 A 
HETATM   23  C   UNL     1      43.878 -21.000   4.098  1.00  0.00     0.024 A 
HETATM   24 CL   UNL     1      43.854 -20.285   1.496  1.00  0.00    -0.084 Cl
HETATM   25  C   UNL     1      43.848 -20.724   5.465  1.00  0.00     0.003 A 
HETATM   26  C   UNL     1      43.766 -19.402   5.908  1.00  0.00     0.014 A 
ENDBRANCH   1  20
TORSDOF 5
ENDMDL
MODEL 2
REMARK VINA RESULT:      -7.9      2.064      2.798
REMARK  5 active torsions:
REMARK  status: ('A' for Active; 'I' for Inactive)
REMARK    1  A    between atoms: C_6  and  C_7 
REMARK    2  A    between atoms: C_12  and  C_13 
REMARK    3  A    between atoms: C_13  and  N_14 
REMARK    4  A    between atoms: C_17  and  O_18 
REMARK    5  A    between atoms: C_17  and  C_19 
ROOT
HETATM    1  C   UNL     1      43.228 -15.754   4.570  1.00  0.00     0.096 A 
HETATM    2  N   UNL     1      43.482 -15.535   5.865  1.00  0.00    -0.174 NA
HETATM    3  N   UNL     1      43.199 -14.243   6.065  1.00  0.00    -0.288 N 
HETATM    4  H   UNL     1      43.278 -13.872   7.009  1.00  0.00     0.188 HD
HETATM    5  C   UNL     1      42.859 -13.591   4.917  1.00  0.00     0.120 A 
HETATM    6  C   UNL     1      42.872 -14.536   3.908  1.00  0.00     0.016 A 
ENDROOT
BRANCH   6   7
HETATM    7  C   UNL     1      42.597 -14.316   2.465  1.00  0.00     0.277 C 
BRANCH   7   8
HETATM    8  N   UNL     1      41.124 -14.387   2.139  1.00  0.00    -0.064 N 
HETATM    9  H   UNL     1      40.687 -14.969   2.868  1.00  0.00     0.280 HD
HETATM   10  C   UNL     1      40.819 -15.022   0.777  1.00  0.00     0.282 C 
HETATM   11  C   UNL     1      40.315 -13.858  -0.074  1.00  0.00     0.180 C 
HETATM   12  C   UNL     1      39.533 -13.035   0.938  1.00  0.00     0.076 C 
HETATM   13  C   UNL     1      40.454 -13.027   2.150  1.00  0.00     0.238 C 
BRANCH  11  14
HETATM   14  O   UNL     1      41.447 -13.066  -0.503  1.00  0.00    -0.379 OA
HETATM   15  H   UNL     1      41.320 -12.832  -1.448  1.00  0.00     0.211 HD
ENDBRANCH  11  14
BRANCH  11  16
HETATM   16  C   UNL     1      39.473 -14.389  -1.229  1.00  0.00     0.419 C 
HETATM   17  F   UNL     1      38.356 -13.653  -1.391  1.00  0.00    -0.168 F 
HETATM   18  F   UNL     1      40.181 -14.350  -2.376  1.00  0.00    -0.168 F 
HETATM   19  F   UNL     1      39.106 -15.665  -1.002  1.00  0.00    -0.168 F 
ENDBRANCH  11  16
ENDBRANCH   7   8
ENDBRANCH   6   7
BRANCH   1  20
HETATM   20  C   UNL     1      43.398 -17.088   3.999  1.00  0.00    -0.003 A 
HETATM   21  C   UNL     1      43.907 -18.140   4.768  1.00  0.00     0.037 A 
HETATM   22  C   UNL     1      44.025 -19.415   4.214  1.00  0.00     0.035 A 
HETATM   23  C   UNL     1      43.656 -19.653   2.892  1.00  0.00     0.024 A 
HETATM   24 CL   UNL     1      44.613 -20.707   5.186  1.00  0.00    -0.084 Cl
HETATM   25  C   UNL     1      43.173 -18.603   2.112  1.00  0.00     0.003 A 
HETATM   26  C   UNL     1      43.045 -17.326   2.663  1.00  0.00     0.014 A 
ENDBRANCH   1  20
TORSDOF 5
ENDMDL
MODEL 3
REMARK VINA RESULT:      -7.7      4.440      5.909
REMARK  5 active torsions:
REMARK  status: ('A' for Active; 'I' for Inactive)
REMARK    1  A    between atoms: C_6  and  C_7 
REMARK    2  A    between atoms: C_12  and  C_13 
REMARK    3  A    between atoms: C_13  and  N_14 
REMARK    4  A    between atoms: C_17  and  O_18 
REMARK    5  A    between atoms: C_17  and  C_19 
ROOT
HETATM    1  C   UNL     1      42.809 -14.889   2.990  1.00  0.00     0.096 A 
HETATM    2  N   UNL     1      42.315 -14.759   1.754  1.00  0.00    -0.174 NA
HETATM    3  N   UNL     1      42.055 -13.454   1.615  1.00  0.00    -0.288 N 
HETATM    4  H   UNL     1      41.712 -13.123   0.716  1.00  0.00     0.188 HD
HETATM    5  C   UNL     1      42.277 -12.744   2.758  1.00  0.00     0.120 A 
HETATM    6  C   UNL     1      42.762 -13.642   3.691  1.00  0.00     0.016 A 
ENDROOT
BRANCH   6   7
HETATM    7  C   UNL     1      43.129 -13.361   5.103  1.00  0.00     0.277 C 
BRANCH   7   8
HETATM    8  N   UNL     1      43.510 -11.916   5.326  1.00  0.00    -0.064 N 
HETATM    9  H   UNL     1      43.624 -11.493   4.394  1.00  0.00     0.280 HD
HETATM   10  C   UNL     1      44.823 -11.733   6.096  1.00  0.00     0.282 C 
HETATM   11  C   UNL     1      44.388 -11.179   7.450  1.00  0.00     0.180 C 
HETATM   12  C   UNL     1      43.219 -10.283   7.071  1.00  0.00     0.076 C 
HETATM   13  C   UNL     1      42.448 -11.138   6.077  1.00  0.00     0.238 C 
BRANCH  11  14
HETATM   14  O   UNL     1      43.868 -12.262   8.255  1.00  0.00    -0.379 OA
HETATM   15  H   UNL     1      42.958 -12.467   7.948  1.00  0.00     0.211 HD
ENDBRANCH  11  14
BRANCH  11  16
HETATM   16  C   UNL     1      45.551 -10.441   8.105  1.00  0.00     0.419 C 
HETATM   17  F   UNL     1      46.731 -10.860   7.609  1.00  0.00    -0.168 F 
HETATM   18  F   UNL     1      45.442  -9.115   7.888  1.00  0.00    -0.168 F 
HETATM   19  F   UNL     1      45.557 -10.652   9.436  1.00  0.00    -0.168 F 
ENDBRANCH  11  16
ENDBRANCH   7   8
ENDBRANCH   6   7
BRANCH   1  20
HETATM   20  C   UNL     1      43.239 -16.196   3.481  1.00  0.00    -0.003 A 
HETATM   21  C   UNL     1      43.185 -17.326   2.658  1.00  0.00     0.037 A 
HETATM   22  C   UNL     1      43.638 -18.557   3.134  1.00  0.00     0.035 A 
HETATM   23  C   UNL     1      44.129 -18.681   4.431  1.00  0.00     0.024 A 
HETATM   24 CL   UNL     1      43.605 -19.928   2.095  1.00  0.00    -0.084 Cl
HETATM   25  C   UNL     1      44.160 -17.564   5.266  1.00  0.00     0.003 A 
HETATM   26  C   UNL     1      43.717 -16.328   4.793  1.00  0.00     0.014 A 
ENDBRANCH   1  20
TORSDOF 5
ENDMDL
MODEL 4
REMARK VINA RESULT:      -7.6      3.614      5.085
REMARK  5 active torsions:
REMARK  status: ('A' for Active; 'I' for Inactive)
REMARK    1  A    between atoms: C_6  and  C_7 
REMARK    2  A    between atoms: C_12  and  C_13 
REMARK    3  A    between atoms: C_13  and  N_14 
REMARK    4  A    between atoms: C_17  and  O_18 
REMARK    5  A    between atoms: C_17  and  C_19 
ROOT
HETATM    1  C   UNL     1      41.261 -15.946   2.725  1.00  0.00     0.096 A 
HETATM    2  N   UNL     1      40.527 -16.120   1.621  1.00  0.00    -0.174 NA
HETATM    3  N   UNL     1      39.736 -15.044   1.551  1.00  0.00    -0.288 N 
HETATM    4  H   UNL     1      39.120 -14.948   0.747  1.00  0.00     0.188 HD
HETATM    5  C   UNL     1      39.865 -14.220   2.630  1.00  0.00     0.120 A 
HETATM    6  C   UNL     1      40.846 -14.773   3.432  1.00  0.00     0.016 A 
ENDROOT
BRANCH   6   7
HETATM    7  C   UNL     1      41.332 -14.262   4.739  1.00  0.00     0.277 C 
BRANCH   7   8
HETATM    8  N   UNL     1      42.603 -13.456   4.610  1.00  0.00    -0.064 N 
HETATM    9  H   UNL     1      43.204 -13.956   3.940  1.00  0.00     0.280 HD
HETATM   10  C   UNL     1      43.379 -13.303   5.923  1.00  0.00     0.282 C 
HETATM   11  C   UNL     1      43.217 -11.829   6.284  1.00  0.00     0.180 C 
HETATM   12  C   UNL     1      43.253 -11.158   4.920  1.00  0.00     0.076 C 
HETATM   13  C   UNL     1      42.359 -12.057   4.079  1.00  0.00     0.238 C 
BRANCH  11  14
HETATM   14  O   UNL     1      41.898 -11.623   6.840  1.00  0.00    -0.379 OA
HETATM   15  H   UNL     1      41.910 -11.908   7.779  1.00  0.00     0.211 HD
ENDBRANCH  11  14
BRANCH  11  16
HETATM   16  C   UNL     1      44.343 -11.399   7.219  1.00  0.00     0.419 C 
HETATM   17  F   UNL     1      44.031 -11.660   8.504  1.00  0.00    -0.168 F 
HETATM   18  F   UNL     1      45.479 -12.057   6.912  1.00  0.00    -0.168 F 
HETATM   19  F   UNL     1      44.576 -10.077   7.105  1.00  0.00    -0.168 F 
ENDBRANCH  11  16
ENDBRANCH   7   8
ENDBRANCH   6   7
BRANCH   1  20
HETATM   20  C   UNL     1      42.273 -16.930   3.103  1.00  0.00    -0.003 A 
HETATM   21  C   UNL     1      42.491 -18.072   2.326  1.00  0.00     0.037 A 
HETATM   22  C   UNL     1      43.490 -18.978   2.684  1.00  0.00     0.035 A 
HETATM   23  C   UNL     1      44.267 -18.768   3.820  1.00  0.00     0.024 A 
HETATM   24 CL   UNL     1      43.773 -20.356   1.694  1.00  0.00    -0.084 Cl
HETATM   25  C   UNL     1      44.037 -17.645   4.614  1.00  0.00     0.003 A 
HETATM   26  C   UNL     1      43.045 -16.730   4.257  1.00  0.00     0.014 A 
ENDBRANCH   1  20
TORSDOF 5
ENDMDL
MODEL 5
REMARK VINA RESULT:      -7.6      4.634      6.669
REMARK  5 active torsions:
REMARK  status: ('A' for Active; 'I' for Inactive)
REMARK    1  A    between atoms: C_6  and  C_7 
REMARK    2  A    between atoms: C_12  and  C_13 
REMARK    3  A    between atoms: C_13  and  N_14 
REMARK    4  A    between atoms: C_17  and  O_18 
REMARK    5  A    between atoms: C_17  and  C_19 
ROOT
HETATM    1  C   UNL     1      41.159 -14.230   4.380  1.00  0.00     0.096 A 
HETATM    2  N   UNL     1      40.379 -13.520   5.203  1.00  0.00    -0.174 NA
HETATM    3  N   UNL     1      41.020 -13.516   6.377  1.00  0.00    -0.288 N 
HETATM    4  H   UNL     1      40.619 -12.982   7.145  1.00  0.00     0.188 HD
HETATM    5  C   UNL     1      42.148 -14.283   6.369  1.00  0.00     0.120 A 
HETATM    6  C   UNL     1      42.276 -14.779   5.085  1.00  0.00     0.016 A 
ENDROOT
BRANCH   6   7
HETATM    7  C   UNL     1      43.332 -15.692   4.575  1.00  0.00     0.277 C 
BRANCH   7   8
HETATM    8  N   UNL     1      42.779 -17.029   4.138  1.00  0.00    -0.064 N 
HETATM    9  H   UNL     1      41.758 -16.920   4.071  1.00  0.00     0.280 HD
HETATM   10  C   UNL     1      43.073 -18.172   5.116  1.00  0.00     0.282 C 
HETATM   11  C   UNL     1      44.082 -19.048   4.378  1.00  0.00     0.180 C 
HETATM   12  C   UNL     1      43.600 -18.949   2.938  1.00  0.00     0.076 C 
HETATM   13  C   UNL     1      43.303 -17.465   2.783  1.00  0.00     0.238 C 
BRANCH  11  14
HETATM   14  O   UNL     1      45.385 -18.424   4.448  1.00  0.00    -0.379 OA
HETATM   15  H   UNL     1      45.709 -18.487   5.372  1.00  0.00     0.211 HD
ENDBRANCH  11  14
BRANCH  11  16
HETATM   16  C   UNL     1      44.055 -20.462   4.947  1.00  0.00     0.419 C 
HETATM   17  F   UNL     1      45.299 -20.890   5.237  1.00  0.00    -0.168 F 
HETATM   18  F   UNL     1      43.317 -20.495   6.075  1.00  0.00    -0.168 F 
HETATM   19  F   UNL     1      43.511 -21.320   4.062  1.00  0.00    -0.168 F 
ENDBRANCH  11  16
ENDBRANCH   7   8
ENDBRANCH   6   7
BRANCH   1  20
HETATM   20  C   UNL     1      40.780 -14.417   2.981  1.00  0.00    -0.003 A 
HETATM   21  C   UNL     1      41.021 -13.419   2.031  1.00  0.00     0.037 A 
HETATM   22  C   UNL     1      40.687 -13.634   0.694  1.00  0.00     0.035 A 
HETATM   23  C   UNL     1      40.097 -14.830   0.292  1.00  0.00     0.024 A 
HETATM   24 CL   UNL     1      41.029 -12.413  -0.469  1.00  0.00    -0.084 Cl
HETATM   25  C   UNL     1      39.829 -15.819   1.238  1.00  0.00     0.003 A 
HETATM   26  C   UNL     1      40.169 -15.613   2.577  1.00  0.00     0.014 A 
ENDBRANCH   1  20
TORSDOF 5
ENDMDL
MODEL 6
REMARK VINA RESULT:      -7.5      3.138      4.372
REMARK  5 active torsions:
REMARK  status: ('A' for Active; 'I' for Inactive)
REMARK    1  A    between atoms: C_6  and  C_7 
REMARK    2  A    between atoms: C_12  and  C_13 
REMARK    3  A    between atoms: C_13  and  N_14 
REMARK    4  A    between atoms: C_17  and  O_18 
REMARK    5  A    between atoms: C_17  and  C_19 
ROOT
HETATM    1  C   UNL     1      42.777 -13.230   2.939  1.00  0.00     0.096 A 
HETATM    2  N   UNL     1      43.737 -12.395   3.352  1.00  0.00    -0.174 NA
HETATM    3  N   UNL     1      43.239 -11.167   3.167  1.00  0.00    -0.288 N 
HETATM    4  H   UNL     1      43.796 -10.370   3.467  1.00  0.00     0.188 HD
HETATM    5  C   UNL     1      42.019 -11.176   2.557  1.00  0.00     0.120 A 
HETATM    6  C   UNL     1      41.678 -12.503   2.378  1.00  0.00     0.016 A 
ENDROOT
BRANCH   6   7
HETATM    7  C   UNL     1      40.453 -13.037   1.730  1.00  0.00     0.277 C 
BRANCH   7   8
HETATM    8  N   UNL     1      40.735 -13.662   0.384  1.00  0.00    -0.064 N 
HETATM    9  H   UNL     1      41.729 -13.928   0.383  1.00  0.00     0.280 HD
HETATM   10  C   UNL     1      40.494 -12.720  -0.801  1.00  0.00     0.282 C 
HETATM   11  C   UNL     1      39.258 -13.293  -1.490  1.00  0.00     0.180 C 
HETATM   12  C   UNL     1      39.460 -14.791  -1.319  1.00  0.00     0.076 C 
HETATM   13  C   UNL     1      39.907 -14.907   0.130  1.00  0.00     0.238 C 
BRANCH  11  14
HETATM   14  O   UNL     1      38.083 -12.920  -0.733  1.00  0.00    -0.379 OA
HETATM   15  H   UNL     1      38.136 -13.345   0.151  1.00  0.00     0.211 HD
ENDBRANCH  11  14
BRANCH  11  16
HETATM   16  C   UNL     1      39.214 -12.832  -2.942  1.00  0.00     0.419 C 
HETATM   17  F   UNL     1      38.685 -13.783  -3.736  1.00  0.00    -0.168 F 
HETATM   18  F   UNL     1      38.466 -11.716  -3.054  1.00  0.00    -0.168 F 
HETATM   19  F   UNL     1      40.455 -12.555  -3.390  1.00  0.00    -0.168 F 
ENDBRANCH  11  16
ENDBRANCH   7   8
ENDBRANCH   6   7
BRANCH   1  20
HETATM   20  C   UNL     1      42.966 -14.676   3.026  1.00  0.00    -0.003 A 
HETATM   21  C   UNL     1      42.906 -15.335   4.258  1.00  0.00     0.037 A 
HETATM   22  C   UNL     1      43.050 -16.722   4.314  1.00  0.00     0.035 A 
HETATM   23  C   UNL     1      43.272 -17.461   3.155  1.00  0.00     0.024 A 
HETATM   24 CL   UNL     1      42.931 -17.523   5.832  1.00  0.00    -0.084 Cl
HETATM   25  C   UNL     1      43.360 -16.807   1.927  1.00  0.00     0.003 A 
HETATM   26  C   UNL     1      43.208 -15.420   1.863  1.00  0.00     0.014 A 
ENDBRANCH   1  20
TORSDOF 5
ENDMDL
MODEL 7
REMARK VINA RESULT:      -7.3      3.702      5.216
REMARK  5 active torsions:
REMARK  status: ('A' for Active; 'I' for Inactive)
REMARK    1  A    between atoms: C_6  and  C_7 
REMARK    2  A    between atoms: C_12  and  C_13 
REMARK    3  A    between atoms: C_13  and  N_14 
REMARK    4  A    between atoms: C_17  and  O_18 
REMARK    5  A    between atoms: C_17  and  C_19 
ROOT
HETATM    1  C   UNL     1      41.470 -15.667   2.300  1.00  0.00     0.096 A 
HETATM    2  N   UNL     1      40.281 -16.049   1.820  1.00  0.00    -0.174 NA
HETATM    3  N   UNL     1      39.773 -14.961   1.232  1.00  0.00    -0.288 N 
HETATM    4  H   UNL     1      38.880 -15.044   0.751  1.00  0.00     0.188 HD
HETATM    5  C   UNL     1      40.554 -13.855   1.397  1.00  0.00     0.120 A 
HETATM    6  C   UNL     1      41.672 -14.264   2.099  1.00  0.00     0.016 A 
ENDROOT
BRANCH   6   7
HETATM    7  C   UNL     1      42.809 -13.421   2.551  1.00  0.00     0.277 C 
BRANCH   7   8
HETATM    8  N   UNL     1      42.387 -12.368   3.548  1.00  0.00    -0.064 N 
HETATM    9  H   UNL     1      41.946 -11.609   3.010  1.00  0.00     0.280 HD
HETATM   10  C   UNL     1      43.550 -11.769   4.349  1.00  0.00     0.282 C 
HETATM   11  C   UNL     1      43.344 -12.303   5.764  1.00  0.00     0.180 C 
HETATM   12  C   UNL     1      41.828 -12.304   5.890  1.00  0.00     0.076 C 
HETATM   13  C   UNL     1      41.380 -12.884   4.557  1.00  0.00     0.238 C 
BRANCH  11  14
HETATM   14  O   UNL     1      43.789 -13.678   5.817  1.00  0.00    -0.379 OA
HETATM   15  H   UNL     1      44.339 -13.795   6.622  1.00  0.00     0.211 HD
ENDBRANCH  11  14
BRANCH  11  16
HETATM   16  C   UNL     1      44.051 -11.398   6.767  1.00  0.00     0.419 C 
HETATM   17  F   UNL     1      43.963 -11.897   8.015  1.00  0.00    -0.168 F 
HETATM   18  F   UNL     1      45.355 -11.277   6.445  1.00  0.00    -0.168 F 
HETATM   19  F   UNL     1      43.500 -10.169   6.767  1.00  0.00    -0.168 F 
ENDBRANCH  11  16
ENDBRANCH   7   8
ENDBRANCH   6   7
BRANCH   1  20
HETATM   20  C   UNL     1      42.332 -16.625   2.989  1.00  0.00    -0.003 A 
HETATM   21  C   UNL     1      42.440 -16.621   4.384  1.00  0.00     0.037 A 
HETATM   22  C   UNL     1      43.238 -17.570   5.023  1.00  0.00     0.035 A 
HETATM   23  C   UNL     1      43.947 -18.516   4.287  1.00  0.00     0.024 A 
HETATM   24 CL   UNL     1      43.327 -17.579   6.741  1.00  0.00    -0.084 Cl
HETATM   25  C   UNL     1      43.865 -18.508   2.895  1.00  0.00     0.003 A 
HETATM   26  C   UNL     1      43.061 -17.566   2.249  1.00  0.00     0.014 A 
ENDBRANCH   1  20
TORSDOF 5
ENDMDL
MODEL 8
REMARK VINA RESULT:      -7.3      4.778      6.524
REMARK  5 active torsions:
REMARK  status: ('A' for Active; 'I' for Inactive)
REMARK    1  A    between atoms: C_6  and  C_7 
REMARK    2  A    between atoms: C_12  and  C_13 
REMARK    3  A    between atoms: C_13  and  N_14 
REMARK    4  A    between atoms: C_17  and  O_18 
REMARK    5  A    between atoms: C_17  and  C_19 
ROOT
HETATM    1  C   UNL     1      42.956 -15.807   4.569  1.00  0.00     0.096 A 
HETATM    2  N   UNL     1      43.747 -16.841   4.263  1.00  0.00    -0.174 NA
HETATM    3  N   UNL     1      44.489 -17.050   5.356  1.00  0.00    -0.288 N 
HETATM    4  H   UNL     1      45.137 -17.836   5.357  1.00  0.00     0.188 HD
HETATM    5  C   UNL     1      44.272 -16.123   6.331  1.00  0.00     0.120 A 
HETATM    6  C   UNL     1      43.282 -15.281   5.859  1.00  0.00     0.016 A 
ENDROOT
BRANCH   6   7
HETATM    7  C   UNL     1      42.712 -14.091   6.543  1.00  0.00     0.277 C 
BRANCH   7   8
HETATM    8  N   UNL     1      43.350 -12.800   6.086  1.00  0.00    -0.064 N 
HETATM    9  H   UNL     1      43.531 -12.899   5.077  1.00  0.00     0.280 HD
HETATM   10  C   UNL     1      44.681 -12.485   6.779  1.00  0.00     0.282 C 
HETATM   11  C   UNL     1      44.364 -11.288   7.672  1.00  0.00     0.180 C 
HETATM   12  C   UNL     1      43.372 -10.507   6.823  1.00  0.00     0.076 C 
HETATM   13  C   UNL     1      42.451 -11.597   6.294  1.00  0.00     0.238 C 
BRANCH  11  14
HETATM   14  O   UNL     1      43.663 -11.752   8.849  1.00  0.00    -0.379 OA
HETATM   15  H   UNL     1      42.699 -11.645   8.698  1.00  0.00     0.211 HD
ENDBRANCH  11  14
BRANCH  11  16
HETATM   16  C   UNL     1      45.646 -10.526   7.990  1.00  0.00     0.419 C 
HETATM   17  F   UNL     1      46.688 -11.018   7.291  1.00  0.00    -0.168 F 
HETATM   18  F   UNL     1      45.501  -9.222   7.681  1.00  0.00    -0.168 F 
HETATM   19  F   UNL     1      45.940 -10.620   9.301  1.00  0.00    -0.168 F 
ENDBRANCH  11  16
ENDBRANCH   7   8
ENDBRANCH   6   7
BRANCH   1  20
HETATM   20  C   UNL     1      41.974 -15.316   3.604  1.00  0.00    -0.003 A 
HETATM   21  C   UNL     1      42.151 -14.086   2.962  1.00  0.00     0.037 A 
HETATM   22  C   UNL     1      41.221 -13.655   2.014  1.00  0.00     0.035 A 
HETATM   23  C   UNL     1      40.105 -14.429   1.710  1.00  0.00     0.024 A 
HETATM   24 CL   UNL     1      41.475 -12.160   1.202  1.00  0.00    -0.084 Cl
HETATM   25  C   UNL     1      39.908 -15.644   2.366  1.00  0.00     0.003 A 
HETATM   26  C   UNL     1      40.839 -16.085   3.309  1.00  0.00     0.014 A 
ENDBRANCH   1  20
TORSDOF 5
ENDMDL
MODEL 9
REMARK VINA RESULT:      -7.2      2.816      4.300
REMARK  5 active torsions:
REMARK  status: ('A' for Active; 'I' for Inactive)
REMARK    1  A    between atoms: C_6  and  C_7 
REMARK    2  A    between atoms: C_12  and  C_13 
REMARK    3  A    between atoms: C_13  and  N_14 
REMARK    4  A    between atoms: C_17  and  O_18 
REMARK    5  A    between atoms: C_17  and  C_19 
ROOT
HETATM    1  C   UNL     1      41.268 -15.870   2.746  1.00  0.00     0.096 A 
HETATM    2  N   UNL     1      39.969 -16.190   2.770  1.00  0.00    -0.174 NA
HETATM    3  N   UNL     1      39.331 -15.101   2.326  1.00  0.00    -0.288 N 
HETATM    4  H   UNL     1      38.320 -15.144   2.217  1.00  0.00     0.188 HD
HETATM    5  C   UNL     1      40.169 -14.048   2.104  1.00  0.00     0.120 A 
HETATM    6  C   UNL     1      41.448 -14.499   2.374  1.00  0.00     0.016 A 
ENDROOT
BRANCH   6   7
HETATM    7  C   UNL     1      42.709 -13.718   2.308  1.00  0.00     0.277 C 
BRANCH   7   8
HETATM    8  N   UNL     1      43.099 -13.133   3.645  1.00  0.00    -0.064 N 
HETATM    9  H   UNL     1      43.772 -13.787   4.070  1.00  0.00     0.280 HD
HETATM   10  C   UNL     1      41.925 -12.962   4.615  1.00  0.00     0.282 C 
HETATM   11  C   UNL     1      41.734 -11.450   4.709  1.00  0.00     0.180 C 
HETATM   12  C   UNL     1      43.166 -10.941   4.639  1.00  0.00     0.076 C 
HETATM   13  C   UNL     1      43.767 -11.778   3.520  1.00  0.00     0.238 C 
BRANCH  11  14
HETATM   14  O   UNL     1      41.047 -10.988   3.523  1.00  0.00    -0.379 OA
HETATM   15  H   UNL     1      40.656 -11.766   3.069  1.00  0.00     0.211 HD
ENDBRANCH  11  14
BRANCH  11  16
HETATM   16  C   UNL     1      41.011 -11.099   6.004  1.00  0.00     0.419 C 
HETATM   17  F   UNL     1      40.196 -10.040   5.832  1.00  0.00    -0.168 F 
HETATM   18  F   UNL     1      40.270 -12.146   6.422  1.00  0.00    -0.168 F 
HETATM   19  F   UNL     1      41.895 -10.795   6.974  1.00  0.00    -0.168 F 
ENDBRANCH  11  16
ENDBRANCH   7   8
ENDBRANCH   6   7
BRANCH   1  20
HETATM   20  C   UNL     1      42.277 -16.849   3.142  1.00  0.00    -0.003 A 
HETATM   21  C   UNL     1      42.516 -17.989   2.367  1.00  0.00     0.037 A 
HETATM   22  C   UNL     1      43.512 -18.890   2.742  1.00  0.00     0.035 A 
HETATM   23  C   UNL     1      44.266 -18.679   3.894  1.00  0.00     0.024 A 
HETATM   24 CL   UNL     1      43.822 -20.265   1.755  1.00  0.00    -0.084 Cl
HETATM   25  C   UNL     1      44.015 -17.559   4.686  1.00  0.00     0.003 A 
HETATM   26  C   UNL     1      43.025 -16.648   4.311  1.00  0.00     0.014 A 
ENDBRANCH   1  20
TORSDOF 5
ENDMDL
MODEL 10
REMARK VINA RESULT:      -7.2      4.552      6.696
REMARK  5 active torsions:
REMARK  status: ('A' for Active; 'I' for Inactive)
REMARK    1  A    between atoms: C_6  and  C_7 
REMARK    2  A    between atoms: C_12  and  C_13 
REMARK    3  A    between atoms: C_13  and  N_14 
REMARK    4  A    between atoms: C_17  and  O_18 
REMARK    5  A    between atoms: C_17  and  C_19 
ROOT
HETATM    1  C   UNL     1      42.190 -11.584   6.018  1.00  0.00     0.096 A 
HETATM    2  N   UNL     1      41.460 -10.613   5.458  1.00  0.00    -0.174 NA
HETATM    3  N   UNL     1      40.312 -11.199   5.100  1.00  0.00    -0.288 N 
HETATM    4  H   UNL     1      39.581 -10.620   4.692  1.00  0.00     0.188 HD
HETATM    5  C   UNL     1      40.310 -12.544   5.324  1.00  0.00     0.120 A 
HETATM    6  C   UNL     1      41.522 -12.846   5.916  1.00  0.00     0.016 A 
ENDROOT
BRANCH   6   7
HETATM    7  C   UNL     1      42.012 -14.186   6.327  1.00  0.00     0.277 C 
BRANCH   7   8
HETATM    8  N   UNL     1      43.123 -14.695   5.438  1.00  0.00    -0.064 N 
HETATM    9  H   UNL     1      43.957 -14.133   5.656  1.00  0.00     0.280 HD
HETATM   10  C   UNL     1      42.832 -14.555   3.940  1.00  0.00     0.282 C 
HETATM   11  C   UNL     1      42.634 -15.991   3.461  1.00  0.00     0.180 C 
HETATM   12  C   UNL     1      43.646 -16.753   4.303  1.00  0.00     0.076 C 
HETATM   13  C   UNL     1      43.452 -16.154   5.688  1.00  0.00     0.238 C 
BRANCH  11  14
HETATM   14  O   UNL     1      41.315 -16.438   3.850  1.00  0.00    -0.379 OA
HETATM   15  H   UNL     1      41.404 -17.013   4.641  1.00  0.00     0.211 HD
ENDBRANCH  11  14
BRANCH  11  16
HETATM   16  C   UNL     1      42.884 -16.075   1.959  1.00  0.00     0.419 C 
HETATM   17  F   UNL     1      43.859 -15.225   1.582  1.00  0.00    -0.168 F 
HETATM   18  F   UNL     1      43.253 -17.327   1.619  1.00  0.00    -0.168 F 
HETATM   19  F   UNL     1      41.767 -15.763   1.274  1.00  0.00    -0.168 F 
ENDBRANCH  11  16
ENDBRANCH   7   8
ENDBRANCH   6   7
BRANCH   1  20
HETATM   20  C   UNL     1      43.514 -11.293   6.562  1.00  0.00    -0.003 A 
HETATM   21  C   UNL     1      43.664 -10.799   7.862  1.00  0.00     0.037 A 
HETATM   22  C   UNL     1      44.941 -10.566   8.376  1.00  0.00     0.035 A 
HETATM   23  C   UNL     1      46.073 -10.802   7.602  1.00  0.00     0.024 A 
HETATM   24 CL   UNL     1      45.110  -9.999   9.991  1.00  0.00    -0.084 Cl
HETATM   25  C   UNL     1      45.930 -11.269   6.295  1.00  0.00     0.003 A 
HETATM   26  C   UNL     1      44.656 -11.513   5.778  1.00  0.00     0.014 A 
ENDBRANCH   1  20
TORSDOF 5
ENDMDL
