MODEL 1
REMARK VINA RESULT:      -9.5      0.000      0.000
REMARK  7 active torsions:
REMARK  status: ('A' for Active; 'I' for Inactive)
REMARK    1  A    between atoms: C_4  and  N_5 
REMARK       I    between atoms: N_5  and  C_6 
REMARK       I    between atoms: C_6  and  N_7 
REMARK    2  A    between atoms: N_7  and  N_8 
REMARK       I    between atoms: N_8  and  C_9 
REMARK    3  A    between atoms: C_9  and  C_10 
REMARK    4  A    between atoms: C_10  and  N_11 
REMARK    5  A    between atoms: C_10  and  C_19 
REMARK       I    between atoms: N_11  and  C_12 
REMARK    6  A    between atoms: C_12  and  C_13 
REMARK    7  A    between atoms: C_19  and  C_20 
ROOT
HETATM    1  C   UNL     1      42.051 -14.011   6.051  1.00  0.00     0.183 C 
ENDROOT
BRANCH   1   2
HETATM    2  C   UNL     1      40.692 -13.432   5.602  1.00  0.00     0.259 C 
HETATM    3  N   UNL     1      40.605 -13.065   4.272  1.00  0.00    -0.264 N 
HETATM    4  H   UNL     1      41.281 -13.471   3.614  1.00  0.00     0.190 HD
HETATM    5  O   UNL     1      39.709 -13.440   6.345  1.00  0.00    -0.269 OA
BRANCH   3   6
HETATM    6  N   UNL     1      39.337 -12.769   3.755  1.00  0.00    -0.249 N 
HETATM    7  C   UNL     1      39.091 -12.671   2.399  1.00  0.00     0.339 C 
HETATM    8  N   UNL     1      40.168 -13.032   1.624  1.00  0.00    -0.308 N 
HETATM    9  O   UNL     1      37.993 -12.289   2.009  1.00  0.00    -0.245 OA
HETATM   10  H   UNL     1      41.013 -13.179   2.155  1.00  0.00     0.170 HD
HETATM   11  H   UNL     1      38.664 -12.325   4.377  1.00  0.00     0.192 HD
BRANCH   8  12
HETATM   12  C   UNL     1      40.257 -13.087   0.222  1.00  0.00     0.036 A 
HETATM   13  C   UNL     1      39.764 -14.143  -0.546  1.00  0.00     0.029 A 
HETATM   14  C   UNL     1      39.889 -14.125  -1.938  1.00  0.00     0.002 A 
HETATM   15  C   UNL     1      40.506 -13.051  -2.574  1.00  0.00     0.000 A 
HETATM   16  C   UNL     1      41.007 -11.995  -1.817  1.00  0.00     0.002 A 
HETATM   17  C   UNL     1      40.886 -12.016  -0.425  1.00  0.00     0.029 A 
ENDBRANCH   8  12
ENDBRANCH   3   6
ENDBRANCH   1   2
BRANCH   1  18
HETATM   18  N   UNL     1      42.894 -13.076   6.814  1.00  0.00    -0.343 N 
HETATM   19  C   UNL     1      43.451 -11.922   6.315  1.00  0.00     0.259 C 
HETATM   20  O   UNL     1      43.135 -11.508   5.200  1.00  0.00    -0.267 OA
HETATM   21  H   UNL     1      43.301 -13.430   7.674  1.00  0.00     0.163 HD
BRANCH  19  22
HETATM   22  C   UNL     1      44.370 -11.206   7.186  1.00  0.00     0.072 A 
HETATM   23  S   UNL     1      43.877 -10.511   8.672  1.00  0.00    -0.097 SA
HETATM   24  C   UNL     1      45.436  -9.878   8.975  1.00  0.00     0.050 A 
HETATM   25  C   UNL     1      46.326 -10.199   7.976  1.00  0.00     0.009 A 
HETATM   26  C   UNL     1      45.711 -10.967   6.945  1.00  0.00     0.025 A 
ENDBRANCH  19  22
ENDBRANCH   1  18
BRANCH   1  27
HETATM   27  C   UNL     1      42.746 -14.663   4.844  1.00  0.00     0.076 C 
BRANCH  27  28
HETATM   28  C   UNL     1      43.228 -16.055   5.127  1.00  0.00    -0.028 A 
HETATM   29  C   UNL     1      43.331 -17.142   4.200  1.00  0.00    -0.002 A 
HETATM   30  C   UNL     1      43.817 -18.245   4.904  1.00  0.00     0.042 A 
HETATM   31  C   UNL     1      43.049 -17.297   2.828  1.00  0.00     0.014 A 
HETATM   32  C   UNL     1      44.044 -19.489   4.302  1.00  0.00     0.030 A 
HETATM   33  N   UNL     1      43.989 -17.851   6.209  1.00  0.00    -0.365 N 
HETATM   34  C   UNL     1      43.766 -19.611   2.939  1.00  0.00     0.002 A 
HETATM   35  C   UNL     1      43.274 -18.532   2.209  1.00  0.00     0.001 A 
HETATM   36  H   UNL     1      44.316 -18.454   6.952  1.00  0.00     0.165 HD
HETATM   37  C   UNL     1      43.642 -16.536   6.355  1.00  0.00     0.096 A 
ENDBRANCH  27  28
ENDBRANCH   1  27
TORSDOF 7
ENDMDL
MODEL 2
REMARK VINA RESULT:      -9.4      2.859      7.304
REMARK  7 active torsions:
REMARK  status: ('A' for Active; 'I' for Inactive)
REMARK    1  A    between atoms: C_4  and  N_5 
REMARK       I    between atoms: N_5  and  C_6 
REMARK       I    between atoms: C_6  and  N_7 
REMARK    2  A    between atoms: N_7  and  N_8 
REMARK       I    between atoms: N_8  and  C_9 
REMARK    3  A    between atoms: C_9  and  C_10 
REMARK    4  A    between atoms: C_10  and  N_11 
REMARK    5  A    between atoms: C_10  and  C_19 
REMARK       I    between atoms: N_11  and  C_12 
REMARK    6  A    between atoms: C_12  and  C_13 
REMARK    7  A    between atoms: C_19  and  C_20 
ROOT
HETATM    1  C   UNL     1      40.459 -14.438   2.037  1.00  0.00     0.183 C 
ENDROOT
BRANCH   1   2
HETATM    2  C   UNL     1      40.375 -13.061   2.733  1.00  0.00     0.259 C 
HETATM    3  N   UNL     1      41.506 -12.272   2.641  1.00  0.00    -0.264 N 
HETATM    4  H   UNL     1      42.177 -12.474   1.892  1.00  0.00     0.190 HD
HETATM    5  O   UNL     1      39.318 -12.641   3.206  1.00  0.00    -0.269 OA
BRANCH   3   6
HETATM    6  N   UNL     1      41.402 -10.930   3.035  1.00  0.00    -0.249 N 
HETATM    7  C   UNL     1      42.030 -10.436   4.162  1.00  0.00     0.339 C 
HETATM    8  N   UNL     1      42.869 -11.347   4.759  1.00  0.00    -0.308 N 
HETATM    9  O   UNL     1      41.804  -9.287   4.525  1.00  0.00    -0.245 OA
HETATM   10  H   UNL     1      42.795 -12.275   4.373  1.00  0.00     0.170 HD
HETATM   11  H   UNL     1      40.622 -10.389   2.669  1.00  0.00     0.192 HD
BRANCH   8  12
HETATM   12  C   UNL     1      43.685 -11.171   5.891  1.00  0.00     0.036 A 
HETATM   13  C   UNL     1      43.196 -10.854   7.159  1.00  0.00     0.029 A 
HETATM   14  C   UNL     1      44.072 -10.696   8.237  1.00  0.00     0.002 A 
HETATM   15  C   UNL     1      45.443 -10.854   8.057  1.00  0.00     0.000 A 
HETATM   16  C   UNL     1      45.943 -11.164   6.794  1.00  0.00     0.002 A 
HETATM   17  C   UNL     1      45.068 -11.317   5.715  1.00  0.00     0.029 A 
ENDBRANCH   8  12
ENDBRANCH   3   6
ENDBRANCH   1   2
BRANCH   1  18
HETATM   18  N   UNL     1      39.780 -14.509   0.734  1.00  0.00    -0.343 N 
HETATM   19  C   UNL     1      40.003 -13.660  -0.324  1.00  0.00     0.259 C 
HETATM   20  O   UNL     1      40.934 -12.855  -0.294  1.00  0.00    -0.267 OA
HETATM   21  H   UNL     1      38.918 -15.044   0.700  1.00  0.00     0.163 HD
BRANCH  19  22
HETATM   22  C   UNL     1      39.129 -13.804  -1.478  1.00  0.00     0.072 A 
HETATM   23  S   UNL     1      37.857 -12.707  -1.812  1.00  0.00    -0.097 SA
HETATM   24  C   UNL     1      37.359 -13.591  -3.187  1.00  0.00     0.050 A 
HETATM   25  C   UNL     1      38.152 -14.695  -3.406  1.00  0.00     0.009 A 
HETATM   26  C   UNL     1      39.175 -14.815  -2.421  1.00  0.00     0.025 A 
ENDBRANCH  19  22
ENDBRANCH   1  18
BRANCH   1  27
HETATM   27  C   UNL     1      40.049 -15.534   3.036  1.00  0.00     0.076 C 
BRANCH  27  28
HETATM   28  C   UNL     1      41.189 -16.002   3.891  1.00  0.00    -0.028 A 
HETATM   29  C   UNL     1      42.181 -16.980   3.555  1.00  0.00    -0.002 A 
HETATM   30  C   UNL     1      43.035 -17.102   4.652  1.00  0.00     0.042 A 
HETATM   31  C   UNL     1      42.429 -17.782   2.423  1.00  0.00     0.014 A 
HETATM   32  C   UNL     1      44.129 -17.976   4.669  1.00  0.00     0.030 A 
HETATM   33  N   UNL     1      42.575 -16.244   5.623  1.00  0.00    -0.365 N 
HETATM   34  C   UNL     1      44.358 -18.751   3.529  1.00  0.00     0.002 A 
HETATM   35  C   UNL     1      43.521 -18.658   2.420  1.00  0.00     0.001 A 
HETATM   36  H   UNL     1      42.993 -16.136   6.537  1.00  0.00     0.165 HD
HETATM   37  C   UNL     1      41.468 -15.575   5.176  1.00  0.00     0.096 A 
ENDBRANCH  27  28
ENDBRANCH   1  27
TORSDOF 7
ENDMDL
MODEL 3
REMARK VINA RESULT:      -9.4      2.439      7.115
REMARK  7 active torsions:
REMARK  status: ('A' for Active; 'I' for Inactive)
REMARK    1  A    between atoms: C_4  and  N_5 
REMARK       I    between atoms: N_5  and  C_6 
REMARK       I    between atoms: C_6  and  N_7 
REMARK    2  A    between atoms: N_7  and  N_8 
REMARK       I    between atoms: N_8  and  C_9 
REMARK    3  A    between atoms: C_9  and  C_10 
REMARK    4  A    between atoms: C_10  and  N_11 
REMARK    5  A    between atoms: C_10  and  C_19 
REMARK       I    between atoms: N_11  and  C_12 
REMARK    6  A    between atoms: C_12  and  C_13 
REMARK    7  A    between atoms: C_19  and  C_20 
ROOT
HETATM    1  C   UNL     1      40.954 -14.217   4.731  1.00  0.00     0.183 C 
ENDROOT
BRANCH   1   2
HETATM    2  C   UNL     1      40.526 -13.023   5.612  1.00  0.00     0.259 C 
HETATM    3  N   UNL     1      41.335 -11.904   5.543  1.00  0.00    -0.264 N 
HETATM    4  H   UNL     1      41.944 -11.799   4.724  1.00  0.00     0.190 HD
HETATM    5  O   UNL     1      39.451 -13.020   6.216  1.00  0.00    -0.269 OA
BRANCH   3   6
HETATM    6  N   UNL     1      40.864 -10.718   6.123  1.00  0.00    -0.249 N 
HETATM    7  C   UNL     1      41.514 -10.093   7.169  1.00  0.00     0.339 C 
HETATM    8  N   UNL     1      42.725 -10.667   7.476  1.00  0.00    -0.308 N 
HETATM    9  O   UNL     1      40.991  -9.129   7.716  1.00  0.00    -0.245 OA
HETATM   10  H   UNL     1      42.892 -11.535   6.991  1.00  0.00     0.170 HD
HETATM   11  H   UNL     1      39.884 -10.479   5.982  1.00  0.00     0.192 HD
BRANCH   8  12
HETATM   12  C   UNL     1      43.658 -10.270   8.450  1.00  0.00     0.036 A 
HETATM   13  C   UNL     1      43.487 -10.481   9.819  1.00  0.00     0.029 A 
HETATM   14  C   UNL     1      44.461 -10.058  10.728  1.00  0.00     0.002 A 
HETATM   15  C   UNL     1      45.614  -9.421  10.276  1.00  0.00     0.000 A 
HETATM   16  C   UNL     1      45.791  -9.199   8.912  1.00  0.00     0.002 A 
HETATM   17  C   UNL     1      44.815  -9.618   8.005  1.00  0.00     0.029 A 
ENDBRANCH   8  12
ENDBRANCH   3   6
ENDBRANCH   1   2
BRANCH   1  18
HETATM   18  N   UNL     1      40.435 -14.181   3.354  1.00  0.00    -0.343 N 
HETATM   19  C   UNL     1      41.169 -13.854   2.238  1.00  0.00     0.259 C 
HETATM   20  O   UNL     1      42.390 -13.719   2.311  1.00  0.00    -0.267 OA
HETATM   21  H   UNL     1      39.426 -14.139   3.251  1.00  0.00     0.163 HD
BRANCH  19  22
HETATM   22  C   UNL     1      40.441 -13.737   0.985  1.00  0.00     0.072 A 
HETATM   23  S   UNL     1      39.688 -12.279   0.490  1.00  0.00    -0.097 SA
HETATM   24  C   UNL     1      39.072 -12.996  -0.934  1.00  0.00     0.050 A 
HETATM   25  C   UNL     1      39.441 -14.317  -1.047  1.00  0.00     0.009 A 
HETATM   26  C   UNL     1      40.233 -14.743   0.058  1.00  0.00     0.025 A 
ENDBRANCH  19  22
ENDBRANCH   1  18
BRANCH   1  27
HETATM   27  C   UNL     1      40.677 -15.527   5.487  1.00  0.00     0.076 C 
BRANCH  27  28
HETATM   28  C   UNL     1      41.885 -16.411   5.588  1.00  0.00    -0.028 A 
HETATM   29  C   UNL     1      42.530 -17.124   4.525  1.00  0.00    -0.002 A 
HETATM   30  C   UNL     1      43.604 -17.820   5.081  1.00  0.00     0.042 A 
HETATM   31  C   UNL     1      42.295 -17.251   3.141  1.00  0.00     0.014 A 
HETATM   32  C   UNL     1      44.460 -18.627   4.322  1.00  0.00     0.030 A 
HETATM   33  N   UNL     1      43.606 -17.554   6.430  1.00  0.00    -0.365 N 
HETATM   34  C   UNL     1      44.211 -18.725   2.950  1.00  0.00     0.002 A 
HETATM   35  C   UNL     1      43.144 -18.049   2.365  1.00  0.00     0.001 A 
HETATM   36  H   UNL     1      44.268 -17.942   7.089  1.00  0.00     0.165 HD
HETATM   37  C   UNL     1      42.580 -16.706   6.746  1.00  0.00     0.096 A 
ENDBRANCH  27  28
ENDBRANCH   1  27
TORSDOF 7
ENDMDL
MODEL 4
REMARK VINA RESULT:      -9.3      2.011      6.104
REMARK  7 active torsions:
REMARK  status: ('A' for Active; 'I' for Inactive)
REMARK    1  A    between atoms: C_4  and  N_5 
REMARK       I    between atoms: N_5  and  C_6 
REMARK       I    between atoms: C_6  and  N_7 
REMARK    2  A    between atoms: N_7  and  N_8 
REMARK       I    between atoms: N_8  and  C_9 
REMARK    3  A    between atoms: C_9  and  C_10 
REMARK    4  A    between atoms: C_10  and  N_11 
REMARK    5  A    between atoms: C_10  and  C_19 
REMARK       I    between atoms: N_11  and  C_12 
REMARK    6  A    between atoms: C_12  and  C_13 
REMARK    7  A    between atoms: C_19  and  C_20 
ROOT
HETATM    1  C   UNL     1      42.914 -13.557   5.403  1.00  0.00     0.183 C 
ENDROOT
BRANCH   1   2
HETATM    2  C   UNL     1      41.436 -13.172   5.176  1.00  0.00     0.259 C 
HETATM    3  N   UNL     1      41.181 -12.396   4.061  1.00  0.00    -0.264 N 
HETATM    4  H   UNL     1      41.878 -12.390   3.308  1.00  0.00     0.190 HD
HETATM    5  O   UNL     1      40.531 -13.653   5.862  1.00  0.00    -0.269 OA
BRANCH   3   6
HETATM    6  N   UNL     1      39.845 -12.225   3.673  1.00  0.00    -0.249 N 
HETATM    7  C   UNL     1      39.428 -12.366   2.363  1.00  0.00     0.339 C 
HETATM    8  N   UNL     1      40.417 -12.827   1.526  1.00  0.00    -0.308 N 
HETATM    9  O   UNL     1      38.274 -12.085   2.062  1.00  0.00    -0.245 OA
HETATM   10  H   UNL     1      41.327 -12.859   1.958  1.00  0.00     0.170 HD
HETATM   11  H   UNL     1      39.235 -11.699   4.295  1.00  0.00     0.192 HD
BRANCH   8  12
HETATM   12  C   UNL     1      40.333 -13.118   0.152  1.00  0.00     0.036 A 
HETATM   13  C   UNL     1      39.768 -14.287  -0.360  1.00  0.00     0.029 A 
HETATM   14  C   UNL     1      39.720 -14.505  -1.740  1.00  0.00     0.002 A 
HETATM   15  C   UNL     1      40.234 -13.556  -2.619  1.00  0.00     0.000 A 
HETATM   16  C   UNL     1      40.806 -12.388  -2.118  1.00  0.00     0.002 A 
HETATM   17  C   UNL     1      40.858 -12.173  -0.738  1.00  0.00     0.029 A 
ENDBRANCH   8  12
ENDBRANCH   3   6
ENDBRANCH   1   2
BRANCH   1  18
HETATM   18  N   UNL     1      43.256 -14.935   5.012  1.00  0.00    -0.343 N 
HETATM   19  C   UNL     1      43.108 -15.460   3.749  1.00  0.00     0.259 C 
HETATM   20  O   UNL     1      42.815 -14.733   2.800  1.00  0.00    -0.267 OA
HETATM   21  H   UNL     1      43.359 -15.607   5.764  1.00  0.00     0.163 HD
BRANCH  19  22
HETATM   22  C   UNL     1      43.368 -16.883   3.596  1.00  0.00     0.072 A 
HETATM   23  S   UNL     1      44.009 -17.843   4.862  1.00  0.00    -0.097 SA
HETATM   24  C   UNL     1      44.044 -19.242   3.879  1.00  0.00     0.050 A 
HETATM   25  C   UNL     1      43.563 -18.995   2.614  1.00  0.00     0.009 A 
HETATM   26  C   UNL     1      43.171 -17.635   2.452  1.00  0.00     0.025 A 
ENDBRANCH  19  22
ENDBRANCH   1  18
BRANCH   1  27
HETATM   27  C   UNL     1      43.320 -13.178   6.837  1.00  0.00     0.076 C 
BRANCH  27  28
HETATM   28  C   UNL     1      44.391 -12.128   6.883  1.00  0.00    -0.028 A 
HETATM   29  C   UNL     1      44.603 -11.151   7.909  1.00  0.00    -0.002 A 
HETATM   30  C   UNL     1      45.704 -10.381   7.530  1.00  0.00     0.042 A 
HETATM   31  C   UNL     1      43.956 -10.840   9.122  1.00  0.00     0.014 A 
HETATM   32  C   UNL     1      46.196  -9.325   8.308  1.00  0.00     0.030 A 
HETATM   33  N   UNL     1      46.136 -10.860   6.317  1.00  0.00    -0.365 N 
HETATM   34  C   UNL     1      45.543  -9.047   9.511  1.00  0.00     0.002 A 
HETATM   35  C   UNL     1      44.437  -9.791   9.915  1.00  0.00     0.001 A 
HETATM   36  H   UNL     1      46.913 -10.478   5.794  1.00  0.00     0.165 HD
HETATM   37  C   UNL     1      45.358 -11.912   5.919  1.00  0.00     0.096 A 
ENDBRANCH  27  28
ENDBRANCH   1  27
TORSDOF 7
ENDMDL
MODEL 5
REMARK VINA RESULT:      -9.3      3.590      8.264
REMARK  7 active torsions:
REMARK  status: ('A' for Active; 'I' for Inactive)
REMARK    1  A    between atoms: C_4  and  N_5 
REMARK       I    between atoms: N_5  and  C_6 
REMARK       I    between atoms: C_6  and  N_7 
REMARK    2  A    between atoms: N_7  and  N_8 
REMARK       I    between atoms: N_8  and  C_9 
REMARK    3  A    between atoms: C_9  and  C_10 
REMARK    4  A    between atoms: C_10  and  N_11 
REMARK    5  A    between atoms: C_10  and  C_19 
REMARK       I    between atoms: N_11  and  C_12 
REMARK    6  A    between atoms: C_12  and  C_13 
REMARK    7  A    between atoms: C_19  and  C_20 
ROOT
HETATM    1  C   UNL     1      43.125 -13.024   5.262  1.00  0.00     0.183 C 
ENDROOT
BRANCH   1   2
HETATM    2  C   UNL     1      41.722 -12.378   5.259  1.00  0.00     0.259 C 
HETATM    3  N   UNL     1      41.043 -12.410   6.463  1.00  0.00    -0.264 N 
HETATM    4  H   UNL     1      41.589 -12.548   7.321  1.00  0.00     0.190 HD
HETATM    5  O   UNL     1      41.305 -11.746   4.287  1.00  0.00    -0.269 OA
BRANCH   3   6
HETATM    6  N   UNL     1      39.885 -11.630   6.582  1.00  0.00    -0.249 N 
HETATM    7  C   UNL     1      39.856 -10.446   7.293  1.00  0.00     0.339 C 
HETATM    8  N   UNL     1      41.095 -10.049   7.737  1.00  0.00    -0.308 N 
HETATM    9  O   UNL     1      38.787  -9.870   7.467  1.00  0.00    -0.245 OA
HETATM   10  H   UNL     1      41.812 -10.744   7.600  1.00  0.00     0.170 HD
HETATM   11  H   UNL     1      38.989 -12.082   6.407  1.00  0.00     0.192 HD
BRANCH   8  12
HETATM   12  C   UNL     1      41.436  -8.887   8.452  1.00  0.00     0.036 A 
HETATM   13  C   UNL     1      40.920  -8.571   9.710  1.00  0.00     0.029 A 
HETATM   14  C   UNL     1      41.308  -7.396  10.360  1.00  0.00     0.002 A 
HETATM   15  C   UNL     1      42.216  -6.528   9.759  1.00  0.00     0.000 A 
HETATM   16  C   UNL     1      42.732  -6.830   8.501  1.00  0.00     0.002 A 
HETATM   17  C   UNL     1      42.340  -8.003   7.850  1.00  0.00     0.029 A 
ENDBRANCH   8  12
ENDBRANCH   3   6
ENDBRANCH   1   2
BRANCH   1  18
HETATM   18  N   UNL     1      43.214 -14.302   4.538  1.00  0.00    -0.343 N 
HETATM   19  C   UNL     1      42.592 -15.471   4.911  1.00  0.00     0.259 C 
HETATM   20  O   UNL     1      41.766 -15.474   5.823  1.00  0.00    -0.267 OA
HETATM   21  H   UNL     1      43.979 -14.397   3.878  1.00  0.00     0.163 HD
BRANCH  19  22
HETATM   22  C   UNL     1      42.918 -16.662   4.144  1.00  0.00     0.072 A 
HETATM   23  S   UNL     1      43.975 -17.875   4.732  1.00  0.00    -0.097 SA
HETATM   24  C   UNL     1      43.847 -18.786   3.291  1.00  0.00     0.050 A 
HETATM   25  C   UNL     1      43.004 -18.193   2.379  1.00  0.00     0.009 A 
HETATM   26  C   UNL     1      42.466 -16.969   2.873  1.00  0.00     0.025 A 
ENDBRANCH  19  22
ENDBRANCH   1  18
BRANCH   1  27
HETATM   27  C   UNL     1      43.658 -13.065   6.705  1.00  0.00     0.076 C 
BRANCH  27  28
HETATM   28  C   UNL     1      44.570 -11.918   7.025  1.00  0.00    -0.028 A 
HETATM   29  C   UNL     1      44.602 -11.146   8.231  1.00  0.00    -0.002 A 
HETATM   30  C   UNL     1      45.600 -10.182   8.083  1.00  0.00     0.042 A 
HETATM   31  C   UNL     1      43.870 -11.170   9.436  1.00  0.00     0.014 A 
HETATM   32  C   UNL     1      45.908  -9.249   9.081  1.00  0.00     0.030 A 
HETATM   33  N   UNL     1      46.144 -10.349   6.832  1.00  0.00    -0.365 N 
HETATM   34  C   UNL     1      45.174  -9.303  10.268  1.00  0.00     0.002 A 
HETATM   35  C   UNL     1      44.168 -10.248  10.446  1.00  0.00     0.001 A 
HETATM   36  H   UNL     1      46.880  -9.774   6.446  1.00  0.00     0.165 HD
HETATM   37  C   UNL     1      45.535 -11.391   6.187  1.00  0.00     0.096 A 
ENDBRANCH  27  28
ENDBRANCH   1  27
TORSDOF 7
ENDMDL
MODEL 6
REMARK VINA RESULT:      -9.0      2.768      7.257
REMARK  7 active torsions:
REMARK  status: ('A' for Active; 'I' for Inactive)
REMARK    1  A    between atoms: C_4  and  N_5 
REMARK       I    between atoms: N_5  and  C_6 
REMARK       I    between atoms: C_6  and  N_7 
REMARK    2  A    between atoms: N_7  and  N_8 
REMARK       I    between atoms: N_8  and  C_9 
REMARK    3  A    between atoms: C_9  and  C_10 
REMARK    4  A    between atoms: C_10  and  N_11 
REMARK    5  A    between atoms: C_10  and  C_19 
REMARK       I    between atoms: N_11  and  C_12 
REMARK    6  A    between atoms: C_12  and  C_13 
REMARK    7  A    between atoms: C_19  and  C_20 
ROOT
HETATM    1  C   UNL     1      40.309 -14.312   2.329  1.00  0.00     0.183 C 
ENDROOT
BRANCH   1   2
HETATM    2  C   UNL     1      39.932 -13.068   3.163  1.00  0.00     0.259 C 
HETATM    3  N   UNL     1      39.641 -13.303   4.494  1.00  0.00    -0.264 N 
HETATM    4  H   UNL     1      39.985 -14.172   4.918  1.00  0.00     0.190 HD
HETATM    5  O   UNL     1      40.034 -11.929   2.705  1.00  0.00    -0.269 OA
BRANCH   3   6
HETATM    6  N   UNL     1      39.536 -12.196   5.347  1.00  0.00    -0.249 N 
HETATM    7  C   UNL     1      40.629 -11.645   5.987  1.00  0.00     0.339 C 
HETATM    8  N   UNL     1      41.825 -12.195   5.591  1.00  0.00    -0.308 N 
HETATM    9  O   UNL     1      40.461 -10.757   6.816  1.00  0.00    -0.245 OA
HETATM   10  H   UNL     1      41.718 -13.007   5.002  1.00  0.00     0.170 HD
HETATM   11  H   UNL     1      38.620 -11.984   5.738  1.00  0.00     0.192 HD
BRANCH   8  12
HETATM   12  C   UNL     1      43.124 -11.853   6.005  1.00  0.00     0.036 A 
HETATM   13  C   UNL     1      44.187 -11.640   5.126  1.00  0.00     0.029 A 
HETATM   14  C   UNL     1      45.453 -11.300   5.614  1.00  0.00     0.002 A 
HETATM   15  C   UNL     1      45.665 -11.170   6.984  1.00  0.00     0.000 A 
HETATM   16  C   UNL     1      44.613 -11.387   7.870  1.00  0.00     0.002 A 
HETATM   17  C   UNL     1      43.349 -11.731   7.382  1.00  0.00     0.029 A 
ENDBRANCH   8  12
ENDBRANCH   3   6
ENDBRANCH   1   2
BRANCH   1  18
HETATM   18  N   UNL     1      39.640 -14.399   1.020  1.00  0.00    -0.343 N 
HETATM   19  C   UNL     1      40.054 -13.761  -0.126  1.00  0.00     0.259 C 
HETATM   20  O   UNL     1      41.140 -13.183  -0.161  1.00  0.00    -0.267 OA
HETATM   21  H   UNL     1      38.682 -14.732   1.022  1.00  0.00     0.163 HD
BRANCH  19  22
HETATM   22  C   UNL     1      39.179 -13.858  -1.283  1.00  0.00     0.072 A 
HETATM   23  S   UNL     1      37.952 -12.707  -1.607  1.00  0.00    -0.097 SA
HETATM   24  C   UNL     1      37.424 -13.555  -2.995  1.00  0.00     0.050 A 
HETATM   25  C   UNL     1      38.175 -14.686  -3.225  1.00  0.00     0.009 A 
HETATM   26  C   UNL     1      39.189 -14.858  -2.238  1.00  0.00     0.025 A 
ENDBRANCH  19  22
ENDBRANCH   1  18
BRANCH   1  27
HETATM   27  C   UNL     1      40.169 -15.569   3.205  1.00  0.00     0.076 C 
BRANCH  27  28
HETATM   28  C   UNL     1      41.470 -16.289   3.406  1.00  0.00    -0.028 A 
HETATM   29  C   UNL     1      42.344 -16.200   4.538  1.00  0.00    -0.002 A 
HETATM   30  C   UNL     1      43.435 -17.033   4.288  1.00  0.00     0.042 A 
HETATM   31  C   UNL     1      42.316 -15.481   5.751  1.00  0.00     0.014 A 
HETATM   32  C   UNL     1      44.493 -17.191   5.193  1.00  0.00     0.030 A 
HETATM   33  N   UNL     1      43.242 -17.595   3.049  1.00  0.00    -0.365 N 
HETATM   34  C   UNL     1      44.433 -16.476   6.392  1.00  0.00     0.002 A 
HETATM   35  C   UNL     1      43.361 -15.631   6.669  1.00  0.00     0.001 A 
HETATM   36  H   UNL     1      43.888 -18.232   2.602  1.00  0.00     0.165 HD
HETATM   37  C   UNL     1      42.063 -17.158   2.511  1.00  0.00     0.096 A 
ENDBRANCH  27  28
ENDBRANCH   1  27
TORSDOF 7
ENDMDL
MODEL 7
REMARK VINA RESULT:      -8.8      2.765      7.621
REMARK  7 active torsions:
REMARK  status: ('A' for Active; 'I' for Inactive)
REMARK    1  A    between atoms: C_4  and  N_5 
REMARK       I    between atoms: N_5  and  C_6 
REMARK       I    between atoms: C_6  and  N_7 
REMARK    2  A    between atoms: N_7  and  N_8 
REMARK       I    between atoms: N_8  and  C_9 
REMARK    3  A    between atoms: C_9  and  C_10 
REMARK    4  A    between atoms: C_10  and  N_11 
REMARK    5  A    between atoms: C_10  and  C_19 
REMARK       I    between atoms: N_11  and  C_12 
REMARK    6  A    between atoms: C_12  and  C_13 
REMARK    7  A    between atoms: C_19  and  C_20 
ROOT
HETATM    1  C   UNL     1      42.848 -13.201   4.466  1.00  0.00     0.183 C 
ENDROOT
BRANCH   1   2
HETATM    2  C   UNL     1      43.792 -12.056   4.893  1.00  0.00     0.259 C 
HETATM    3  N   UNL     1      44.321 -12.156   6.166  1.00  0.00    -0.264 N 
HETATM    4  H   UNL     1      44.332 -13.079   6.614  1.00  0.00     0.190 HD
HETATM    5  O   UNL     1      44.164 -11.194   4.094  1.00  0.00    -0.269 OA
BRANCH   3   6
HETATM    6  N   UNL     1      45.365 -11.287   6.512  1.00  0.00    -0.249 N 
HETATM    7  C   UNL     1      45.305 -10.454   7.613  1.00  0.00     0.339 C 
HETATM    8  N   UNL     1      44.198 -10.672   8.398  1.00  0.00    -0.308 N 
HETATM    9  O   UNL     1      46.193  -9.629   7.796  1.00  0.00    -0.245 OA
HETATM   10  H   UNL     1      43.529 -11.303   7.984  1.00  0.00     0.170 HD
HETATM   11  H   UNL     1      46.038 -11.043   5.788  1.00  0.00     0.192 HD
BRANCH   8  12
HETATM   12  C   UNL     1      43.842 -10.037   9.601  1.00  0.00     0.036 A 
HETATM   13  C   UNL     1      43.683 -10.708  10.815  1.00  0.00     0.029 A 
HETATM   14  C   UNL     1      43.328 -10.007  11.971  1.00  0.00     0.002 A 
HETATM   15  C   UNL     1      43.130  -8.629  11.924  1.00  0.00     0.000 A 
HETATM   16  C   UNL     1      43.281  -7.950  10.717  1.00  0.00     0.002 A 
HETATM   17  C   UNL     1      43.631  -8.653   9.560  1.00  0.00     0.029 A 
ENDBRANCH   8  12
ENDBRANCH   3   6
ENDBRANCH   1   2
BRANCH   1  18
HETATM   18  N   UNL     1      41.612 -12.761   3.799  1.00  0.00    -0.343 N 
HETATM   19  C   UNL     1      41.386 -12.798   2.443  1.00  0.00     0.259 C 
HETATM   20  O   UNL     1      42.178 -13.371   1.694  1.00  0.00    -0.267 OA
HETATM   21  H   UNL     1      40.997 -12.158   4.336  1.00  0.00     0.163 HD
BRANCH  19  22
HETATM   22  C   UNL     1      40.157 -12.186   1.965  1.00  0.00     0.072 A 
HETATM   23  S   UNL     1      39.911 -11.779   0.319  1.00  0.00    -0.097 SA
HETATM   24  C   UNL     1      38.369 -11.116   0.639  1.00  0.00     0.050 A 
HETATM   25  C   UNL     1      38.032 -11.213   1.970  1.00  0.00     0.009 A 
HETATM   26  C   UNL     1      39.063 -11.834   2.734  1.00  0.00     0.025 A 
ENDBRANCH  19  22
ENDBRANCH   1  18
BRANCH   1  27
HETATM   27  C   UNL     1      42.632 -14.147   5.660  1.00  0.00     0.076 C 
BRANCH  27  28
HETATM   28  C   UNL     1      43.332 -15.464   5.497  1.00  0.00    -0.028 A 
HETATM   29  C   UNL     1      43.188 -16.395   4.418  1.00  0.00    -0.002 A 
HETATM   30  C   UNL     1      44.022 -17.480   4.689  1.00  0.00     0.042 A 
HETATM   31  C   UNL     1      42.417 -16.423   3.238  1.00  0.00     0.014 A 
HETATM   32  C   UNL     1      44.133 -18.585   3.836  1.00  0.00     0.030 A 
HETATM   33  N   UNL     1      44.640 -17.228   5.891  1.00  0.00    -0.365 N 
HETATM   34  C   UNL     1      43.367 -18.581   2.667  1.00  0.00     0.002 A 
HETATM   35  C   UNL     1      42.519 -17.517   2.370  1.00  0.00     0.001 A 
HETATM   36  H   UNL     1      45.290 -17.855   6.344  1.00  0.00     0.165 HD
HETATM   37  C   UNL     1      44.235 -16.017   6.385  1.00  0.00     0.096 A 
ENDBRANCH  27  28
ENDBRANCH   1  27
TORSDOF 7
ENDMDL
MODEL 8
REMARK VINA RESULT:      -8.7      3.135      6.081
REMARK  7 active torsions:
REMARK  status: ('A' for Active; 'I' for Inactive)
REMARK    1  A    between atoms: C_4  and  N_5 
REMARK       I    between atoms: N_5  and  C_6 
REMARK       I    between atoms: C_6  and  N_7 
REMARK    2  A    between atoms: N_7  and  N_8 
REMARK       I    between atoms: N_8  and  C_9 
REMARK    3  A    between atoms: C_9  and  C_10 
REMARK    4  A    between atoms: C_10  and  N_11 
REMARK    5  A    between atoms: C_10  and  C_19 
REMARK       I    between atoms: N_11  and  C_12 
REMARK    6  A    between atoms: C_12  and  C_13 
REMARK    7  A    between atoms: C_19  and  C_20 
ROOT
HETATM    1  C   UNL     1      40.929 -14.977   2.201  1.00  0.00     0.183 C 
ENDROOT
BRANCH   1   2
HETATM    2  C   UNL     1      39.969 -15.311   1.038  1.00  0.00     0.259 C 
HETATM    3  N   UNL     1      39.727 -14.283   0.146  1.00  0.00    -0.264 N 
HETATM    4  H   UNL     1      40.400 -13.509   0.105  1.00  0.00     0.190 HD
HETATM    5  O   UNL     1      39.571 -16.460   0.839  1.00  0.00    -0.269 OA
BRANCH   3   6
HETATM    6  N   UNL     1      39.069 -14.596  -1.052  1.00  0.00    -0.249 N 
HETATM    7  C   UNL     1      38.887 -13.673  -2.063  1.00  0.00     0.339 C 
HETATM    8  N   UNL     1      39.535 -12.482  -1.834  1.00  0.00    -0.308 N 
HETATM    9  O   UNL     1      38.198 -13.967  -3.034  1.00  0.00    -0.245 OA
HETATM   10  H   UNL     1      39.927 -12.410  -0.908  1.00  0.00     0.170 HD
HETATM   11  H   UNL     1      38.457 -15.410  -1.057  1.00  0.00     0.192 HD
BRANCH   8  12
HETATM   12  C   UNL     1      39.595 -11.347  -2.662  1.00  0.00     0.036 A 
HETATM   13  C   UNL     1      40.781 -10.833  -3.189  1.00  0.00     0.029 A 
HETATM   14  C   UNL     1      40.760  -9.699  -4.006  1.00  0.00     0.002 A 
HETATM   15  C   UNL     1      39.554  -9.070  -4.304  1.00  0.00     0.000 A 
HETATM   16  C   UNL     1      38.365  -9.571  -3.778  1.00  0.00     0.002 A 
HETATM   17  C   UNL     1      38.387 -10.702  -2.957  1.00  0.00     0.029 A 
ENDBRANCH   8  12
ENDBRANCH   3   6
ENDBRANCH   1   2
BRANCH   1  18
HETATM   18  N   UNL     1      41.636 -16.139   2.765  1.00  0.00    -0.343 N 
HETATM   19  C   UNL     1      42.790 -16.687   2.259  1.00  0.00     0.259 C 
HETATM   20  O   UNL     1      43.409 -16.119   1.359  1.00  0.00    -0.267 OA
HETATM   21  H   UNL     1      41.107 -16.725   3.403  1.00  0.00     0.163 HD
BRANCH  19  22
HETATM   22  C   UNL     1      43.257 -17.920   2.874  1.00  0.00     0.072 A 
HETATM   23  S   UNL     1      43.925 -17.966   4.451  1.00  0.00    -0.097 SA
HETATM   24  C   UNL     1      44.231 -19.644   4.350  1.00  0.00     0.050 A 
HETATM   25  C   UNL     1      43.820 -20.172   3.147  1.00  0.00     0.009 A 
HETATM   26  C   UNL     1      43.255 -19.177   2.297  1.00  0.00     0.025 A 
ENDBRANCH  19  22
ENDBRANCH   1  18
BRANCH   1  27
HETATM   27  C   UNL     1      40.187 -14.113   3.235  1.00  0.00     0.076 C 
BRANCH  27  28
HETATM   28  C   UNL     1      40.990 -13.870   4.479  1.00  0.00    -0.028 A 
HETATM   29  C   UNL     1      42.159 -13.053   4.610  1.00  0.00    -0.002 A 
HETATM   30  C   UNL     1      42.574 -13.129   5.941  1.00  0.00     0.042 A 
HETATM   31  C   UNL     1      42.912 -12.260   3.720  1.00  0.00     0.014 A 
HETATM   32  C   UNL     1      43.695 -12.445   6.427  1.00  0.00     0.030 A 
HETATM   33  N   UNL     1      41.702 -13.970   6.590  1.00  0.00    -0.365 N 
HETATM   34  C   UNL     1      44.415 -11.658   5.526  1.00  0.00     0.002 A 
HETATM   35  C   UNL     1      44.033 -11.565   4.190  1.00  0.00     0.001 A 
HETATM   36  H   UNL     1      41.772 -14.224   7.566  1.00  0.00     0.165 HD
HETATM   37  C   UNL     1      40.744 -14.420   5.723  1.00  0.00     0.096 A 
ENDBRANCH  27  28
ENDBRANCH   1  27
TORSDOF 7
ENDMDL
MODEL 9
REMARK VINA RESULT:      -8.6      3.409      8.600
REMARK  7 active torsions:
REMARK  status: ('A' for Active; 'I' for Inactive)
REMARK    1  A    between atoms: C_4  and  N_5 
REMARK       I    between atoms: N_5  and  C_6 
REMARK       I    between atoms: C_6  and  N_7 
REMARK    2  A    between atoms: N_7  and  N_8 
REMARK       I    between atoms: N_8  and  C_9 
REMARK    3  A    between atoms: C_9  and  C_10 
REMARK    4  A    between atoms: C_10  and  N_11 
REMARK    5  A    between atoms: C_10  and  C_19 
REMARK       I    between atoms: N_11  and  C_12 
REMARK    6  A    between atoms: C_12  and  C_13 
REMARK    7  A    between atoms: C_19  and  C_20 
ROOT
HETATM    1  C   UNL     1      42.436 -13.470   6.373  1.00  0.00     0.183 C 
ENDROOT
BRANCH   1   2
HETATM    2  C   UNL     1      43.616 -12.613   6.882  1.00  0.00     0.259 C 
HETATM    3  N   UNL     1      43.286 -11.594   7.756  1.00  0.00    -0.264 N 
HETATM    4  H   UNL     1      42.390 -11.655   8.252  1.00  0.00     0.190 HD
HETATM    5  O   UNL     1      44.786 -12.919   6.641  1.00  0.00    -0.269 OA
BRANCH   3   6
HETATM    6  N   UNL     1      44.330 -10.950   8.435  1.00  0.00    -0.249 N 
HETATM    7  C   UNL     1      44.124 -10.210   9.583  1.00  0.00     0.339 C 
HETATM    8  N   UNL     1      42.836 -10.294  10.059  1.00  0.00    -0.308 N 
HETATM    9  O   UNL     1      45.051  -9.569  10.064  1.00  0.00    -0.245 OA
HETATM   10  H   UNL     1      42.205 -10.764   9.429  1.00  0.00     0.170 HD
HETATM   11  H   UNL     1      45.189 -10.770   7.921  1.00  0.00     0.192 HD
BRANCH   8  12
HETATM   12  C   UNL     1      42.292  -9.705  11.214  1.00  0.00     0.036 A 
HETATM   13  C   UNL     1      42.717 -10.003  12.510  1.00  0.00     0.029 A 
HETATM   14  C   UNL     1      42.127  -9.374  13.611  1.00  0.00     0.002 A 
HETATM   15  C   UNL     1      41.109  -8.441  13.425  1.00  0.00     0.000 A 
HETATM   16  C   UNL     1      40.674  -8.142  12.136  1.00  0.00     0.002 A 
HETATM   17  C   UNL     1      41.260  -8.774  11.037  1.00  0.00     0.029 A 
ENDBRANCH   8  12
ENDBRANCH   3   6
ENDBRANCH   1   2
BRANCH   1  18
HETATM   18  N   UNL     1      42.827 -14.639   5.570  1.00  0.00    -0.343 N 
HETATM   19  C   UNL     1      42.310 -15.906   5.708  1.00  0.00     0.259 C 
HETATM   20  O   UNL     1      41.338 -16.107   6.437  1.00  0.00    -0.267 OA
HETATM   21  H   UNL     1      43.707 -14.570   5.068  1.00  0.00     0.163 HD
BRANCH  19  22
HETATM   22  C   UNL     1      42.929 -16.958   4.918  1.00  0.00     0.072 A 
HETATM   23  S   UNL     1      43.739 -18.289   5.629  1.00  0.00    -0.097 SA
HETATM   24  C   UNL     1      44.169 -18.933   4.106  1.00  0.00     0.050 A 
HETATM   25  C   UNL     1      43.695 -18.164   3.068  1.00  0.00     0.009 A 
HETATM   26  C   UNL     1      42.978 -17.026   3.537  1.00  0.00     0.025 A 
ENDBRANCH  19  22
ENDBRANCH   1  18
BRANCH   1  27
HETATM   27  C   UNL     1      41.397 -12.551   5.707  1.00  0.00     0.076 C 
BRANCH  27  28
HETATM   28  C   UNL     1      41.598 -12.420   4.226  1.00  0.00    -0.028 A 
HETATM   29  C   UNL     1      41.075 -13.274   3.201  1.00  0.00    -0.002 A 
HETATM   30  C   UNL     1      41.524 -12.777   1.976  1.00  0.00     0.042 A 
HETATM   31  C   UNL     1      40.269 -14.430   3.198  1.00  0.00     0.014 A 
HETATM   32  C   UNL     1      41.198 -13.372   0.750  1.00  0.00     0.030 A 
HETATM   33  N   UNL     1      42.299 -11.675   2.244  1.00  0.00    -0.365 N 
HETATM   34  C   UNL     1      40.388 -14.510   0.777  1.00  0.00     0.002 A 
HETATM   35  C   UNL     1      39.930 -15.035   1.982  1.00  0.00     0.001 A 
HETATM   36  H   UNL     1      42.771 -11.122   1.541  1.00  0.00     0.165 HD
HETATM   37  C   UNL     1      42.349 -11.448   3.592  1.00  0.00     0.096 A 
ENDBRANCH  27  28
ENDBRANCH   1  27
TORSDOF 7
ENDMDL
MODEL 10
REMARK VINA RESULT:      -8.6      3.625      9.090
REMARK  7 active torsions:
REMARK  status: ('A' for Active; 'I' for Inactive)
REMARK    1  A    between atoms: C_4  and  N_5 
REMARK       I    between atoms: N_5  and  C_6 
REMARK       I    between atoms: C_6  and  N_7 
REMARK    2  A    between atoms: N_7  and  N_8 
REMARK       I    between atoms: N_8  and  C_9 
REMARK    3  A    between atoms: C_9  and  C_10 
REMARK    4  A    between atoms: C_10  and  N_11 
REMARK    5  A    between atoms: C_10  and  C_19 
REMARK       I    between atoms: N_11  and  C_12 
REMARK    6  A    between atoms: C_12  and  C_13 
REMARK    7  A    between atoms: C_19  and  C_20 
ROOT
HETATM    1  C   UNL     1      41.625 -12.275   5.571  1.00  0.00     0.183 C 
ENDROOT
BRANCH   1   2
HETATM    2  C   UNL     1      40.447 -11.804   6.453  1.00  0.00     0.259 C 
HETATM    3  N   UNL     1      40.700 -10.708   7.256  1.00  0.00    -0.264 N 
HETATM    4  H   UNL     1      41.485 -10.097   7.007  1.00  0.00     0.190 HD
HETATM    5  O   UNL     1      39.318 -12.282   6.331  1.00  0.00    -0.269 OA
BRANCH   3   6
HETATM    6  N   UNL     1      39.609 -10.092   7.885  1.00  0.00    -0.249 N 
HETATM    7  C   UNL     1      39.697  -9.532   9.144  1.00  0.00     0.339 C 
HETATM    8  N   UNL     1      40.978  -9.514   9.643  1.00  0.00    -0.308 N 
HETATM    9  O   UNL     1      38.682  -9.117   9.694  1.00  0.00    -0.245 OA
HETATM   10  H   UNL     1      41.635 -10.034   9.081  1.00  0.00     0.170 HD
HETATM   11  H   UNL     1      38.676 -10.323   7.549  1.00  0.00     0.192 HD
BRANCH   8  12
HETATM   12  C   UNL     1      41.432  -8.991  10.866  1.00  0.00     0.036 A 
HETATM   13  C   UNL     1      41.939  -7.699  11.017  1.00  0.00     0.029 A 
HETATM   14  C   UNL     1      42.372  -7.249  12.268  1.00  0.00     0.002 A 
HETATM   15  C   UNL     1      42.299  -8.085  13.379  1.00  0.00     0.000 A 
HETATM   16  C   UNL     1      41.801  -9.378  13.238  1.00  0.00     0.002 A 
HETATM   17  C   UNL     1      41.374  -9.830  11.987  1.00  0.00     0.029 A 
ENDBRANCH   8  12
ENDBRANCH   3   6
ENDBRANCH   1   2
BRANCH   1  18
HETATM   18  N   UNL     1      41.238 -13.131   4.437  1.00  0.00    -0.343 N 
HETATM   19  C   UNL     1      41.658 -12.965   3.138  1.00  0.00     0.259 C 
HETATM   20  O   UNL     1      42.541 -12.151   2.867  1.00  0.00    -0.267 OA
HETATM   21  H   UNL     1      40.418 -13.714   4.568  1.00  0.00     0.163 HD
BRANCH  19  22
HETATM   22  C   UNL     1      41.053 -13.829   2.137  1.00  0.00     0.072 A 
HETATM   23  S   UNL     1      40.771 -13.315   0.527  1.00  0.00    -0.097 SA
HETATM   24  C   UNL     1      40.043 -14.802   0.104  1.00  0.00     0.050 A 
HETATM   25  C   UNL     1      40.025 -15.686   1.159  1.00  0.00     0.009 A 
HETATM   26  C   UNL     1      40.610 -15.125   2.331  1.00  0.00     0.025 A 
ENDBRANCH  19  22
ENDBRANCH   1  18
BRANCH   1  27
HETATM   27  C   UNL     1      42.727 -12.860   6.471  1.00  0.00     0.076 C 
BRANCH  27  28
HETATM   28  C   UNL     1      43.970 -12.021   6.492  1.00  0.00    -0.028 A 
HETATM   29  C   UNL     1      44.440 -11.194   7.564  1.00  0.00    -0.002 A 
HETATM   30  C   UNL     1      45.627 -10.596   7.139  1.00  0.00     0.042 A 
HETATM   31  C   UNL     1      43.963 -10.890   8.855  1.00  0.00     0.014 A 
HETATM   32  C   UNL     1      46.365  -9.718   7.943  1.00  0.00     0.030 A 
HETATM   33  N   UNL     1      45.864 -11.028   5.856  1.00  0.00    -0.365 N 
HETATM   34  C   UNL     1      45.875  -9.444   9.222  1.00  0.00     0.002 A 
HETATM   35  C   UNL     1      44.690 -10.019   9.674  1.00  0.00     0.001 A 
HETATM   36  H   UNL     1      46.651 -10.740   5.290  1.00  0.00     0.165 HD
HETATM   37  C   UNL     1      44.877 -11.888   5.457  1.00  0.00     0.096 A 
ENDBRANCH  27  28
ENDBRANCH   1  27
TORSDOF 7
ENDMDL
