MODEL 1
REMARK VINA RESULT:      -9.8      0.000      0.000
REMARK  8 active torsions:
REMARK  status: ('A' for Active; 'I' for Inactive)
REMARK    1  A    between atoms: N_9  and  N_10 
REMARK    2  A    between atoms: C_11  and  C_12 
REMARK    3  A    between atoms: C_14  and  O_15 
REMARK    4  A    between atoms: C_19  and  N_20 
REMARK    5  A    between atoms: C_21  and  C_22 
REMARK       I    between atoms: C_22  and  N_23 
REMARK    6  A    between atoms: N_23  and  C_24 
REMARK    7  A    between atoms: C_24  and  C_25 
REMARK    8  A    between atoms: C_25  and  C_26 
ROOT
HETATM    1  C   UNL     1      44.485 -18.695   4.105  1.00  0.00     0.002 A 
HETATM    2  C   UNL     1      44.323 -17.443   4.701  1.00  0.00     0.034 A 
HETATM    3  C   UNL     1      43.377 -16.532   4.241  1.00  0.00     0.086 A 
HETATM    4  C   UNL     1      42.563 -16.888   3.132  1.00  0.00     0.088 A 
HETATM    5  N   UNL     1      41.627 -16.071   2.625  1.00  0.00    -0.225 NA
HETATM    6  C   UNL     1      41.519 -14.901   3.300  1.00  0.00     0.183 A 
HETATM    7  C   UNL     1      42.295 -14.539   4.396  1.00  0.00     0.125 A 
HETATM    8  N   UNL     1      43.274 -15.350   4.872  1.00  0.00    -0.242 NA
HETATM    9  N   UNL     1      40.657 -13.853   3.026  1.00  0.00    -0.197 N 
HETATM   10  C   UNL     1      40.845 -12.866   3.997  1.00  0.00     0.143 A 
HETATM   11  C   UNL     1      41.892 -13.253   4.818  1.00  0.00     0.110 A 
HETATM   12  C   UNL     1      42.738 -18.137   2.549  1.00  0.00     0.034 A 
HETATM   13  C   UNL     1      43.688 -19.043   3.023  1.00  0.00     0.002 A 
ENDROOT
BRANCH  11  14
HETATM   14  C   UNL     1      42.494 -12.372   5.793  1.00  0.00     0.257 C 
HETATM   15  N   UNL     1      43.875 -12.418   5.776  1.00  0.00    -0.356 N 
HETATM   16  H   UNL     1      44.308 -13.095   5.161  1.00  0.00     0.162 HD
HETATM   17  O   UNL     1      41.854 -11.526   6.408  1.00  0.00    -0.267 OA
BRANCH  15  18
HETATM   18  C   UNL     1      44.632 -11.226   6.111  1.00  0.00     0.127 C 
BRANCH  18  19
HETATM   19  C   UNL     1      45.188 -11.288   7.556  1.00  0.00     0.053 C 
BRANCH  19  20
HETATM   20  C   UNL     1      44.767 -10.246   8.581  1.00  0.00    -0.082 C 
HETATM   21  C   UNL     1      43.956  -9.100   8.004  1.00  0.00     0.034 C 
HETATM   22  C   UNL     1      43.825  -7.893   8.938  1.00  0.00     0.005 C 
HETATM   23  C   UNL     1      43.500  -8.331  10.358  1.00  0.00     0.004 C 
HETATM   24  C   UNL     1      44.574  -9.272  10.898  1.00  0.00     0.027 C 
HETATM   25  C   UNL     1      45.032 -10.297   9.899  1.00  0.00    -0.024 C 
ENDBRANCH  19  20
ENDBRANCH  18  19
ENDBRANCH  15  18
ENDBRANCH  11  14
BRANCH  10  26
HETATM   26  N   UNL     1      40.160 -11.688   3.987  1.00  0.00    -0.383 N 
HETATM   27  H   UNL     1      39.548 -11.443   4.764  1.00  0.00     0.157 HD
HETATM   28  H   UNL     1      39.833 -11.310   3.094  1.00  0.00     0.157 HD
ENDBRANCH  10  26
BRANCH   9  29
HETATM   29  N   UNL     1      39.954 -13.680   1.861  1.00  0.00    -0.176 NA
HETATM   30  C   UNL     1      40.696 -13.393   0.840  1.00  0.00     0.150 C 
BRANCH  30  31
HETATM   31  C   UNL     1      40.177 -13.528  -0.535  1.00  0.00    -0.014 A 
HETATM   32  C   UNL     1      39.432 -14.660  -0.886  1.00  0.00     0.049 A 
HETATM   33  C   UNL     1      39.094 -14.859  -2.218  1.00  0.00     0.066 A 
HETATM   34  C   UNL     1      39.469 -13.942  -3.193  1.00  0.00     0.036 A 
HETATM   35  C   UNL     1      40.197 -12.806  -2.836  1.00  0.00     0.004 A 
HETATM   36  C   UNL     1      40.562 -12.600  -1.504  1.00  0.00     0.013 A 
BRANCH  33  37
HETATM   37  O   UNL     1      38.411 -15.971  -2.617  1.00  0.00    -0.361 OA
HETATM   38  H   UNL     1      37.646 -16.094  -2.031  1.00  0.00     0.217 HD
ENDBRANCH  33  37
ENDBRANCH  30  31
ENDBRANCH   9  29
TORSDOF 8
ENDMDL
MODEL 2
REMARK VINA RESULT:      -9.8      2.222      8.259
REMARK  8 active torsions:
REMARK  status: ('A' for Active; 'I' for Inactive)
REMARK    1  A    between atoms: N_9  and  N_10 
REMARK    2  A    between atoms: C_11  and  C_12 
REMARK    3  A    between atoms: C_14  and  O_15 
REMARK    4  A    between atoms: C_19  and  N_20 
REMARK    5  A    between atoms: C_21  and  C_22 
REMARK       I    between atoms: C_22  and  N_23 
REMARK    6  A    between atoms: N_23  and  C_24 
REMARK    7  A    between atoms: C_24  and  C_25 
REMARK    8  A    between atoms: C_25  and  C_26 
ROOT
HETATM    1  C   UNL     1      43.902 -10.662   7.027  1.00  0.00     0.002 A 
HETATM    2  C   UNL     1      43.072 -10.560   5.909  1.00  0.00     0.034 A 
HETATM    3  C   UNL     1      42.565 -11.688   5.271  1.00  0.00     0.086 A 
HETATM    4  C   UNL     1      42.910 -12.973   5.771  1.00  0.00     0.088 A 
HETATM    5  N   UNL     1      42.466 -14.112   5.217  1.00  0.00    -0.225 NA
HETATM    6  C   UNL     1      41.633 -13.905   4.168  1.00  0.00     0.183 A 
HETATM    7  C   UNL     1      41.271 -12.657   3.673  1.00  0.00     0.125 A 
HETATM    8  N   UNL     1      41.765 -11.510   4.207  1.00  0.00    -0.242 NA
HETATM    9  N   UNL     1      41.016 -14.867   3.387  1.00  0.00    -0.197 N 
HETATM   10  C   UNL     1      40.209 -14.217   2.449  1.00  0.00     0.143 A 
HETATM   11  C   UNL     1      40.399 -12.851   2.579  1.00  0.00     0.110 A 
HETATM   12  C   UNL     1      43.739 -13.057   6.883  1.00  0.00     0.034 A 
HETATM   13  C   UNL     1      44.237 -11.917   7.516  1.00  0.00     0.002 A 
ENDROOT
BRANCH  11  14
HETATM   14  C   UNL     1      39.885 -11.892   1.628  1.00  0.00     0.257 C 
HETATM   15  N   UNL     1      40.886 -11.186   0.987  1.00  0.00    -0.356 N 
HETATM   16  H   UNL     1      41.837 -11.349   1.292  1.00  0.00     0.162 HD
HETATM   17  O   UNL     1      38.711 -11.866   1.277  1.00  0.00    -0.267 OA
BRANCH  15  18
HETATM   18  C   UNL     1      40.681 -10.740  -0.380  1.00  0.00     0.127 C 
BRANCH  18  19
HETATM   19  C   UNL     1      41.036 -11.848  -1.402  1.00  0.00     0.053 C 
BRANCH  19  20
HETATM   20  C   UNL     1      39.953 -12.779  -1.926  1.00  0.00    -0.082 C 
HETATM   21  C   UNL     1      38.694 -12.069  -2.389  1.00  0.00     0.034 C 
HETATM   22  C   UNL     1      37.491 -12.995  -2.589  1.00  0.00     0.005 C 
HETATM   23  C   UNL     1      37.890 -14.261  -3.332  1.00  0.00     0.004 C 
HETATM   24  C   UNL     1      38.985 -15.013  -2.580  1.00  0.00     0.027 C 
HETATM   25  C   UNL     1      40.056 -14.118  -2.025  1.00  0.00    -0.024 C 
ENDBRANCH  19  20
ENDBRANCH  18  19
ENDBRANCH  15  18
ENDBRANCH  11  14
BRANCH  10  26
HETATM   26  N   UNL     1      39.487 -14.893   1.510  1.00  0.00    -0.383 N 
HETATM   27  H   UNL     1      39.838 -14.982   0.559  1.00  0.00     0.157 HD
HETATM   28  H   UNL     1      38.465 -14.861   1.552  1.00  0.00     0.157 HD
ENDBRANCH  10  26
BRANCH   9  29
HETATM   29  N   UNL     1      41.348 -16.197   3.345  1.00  0.00    -0.176 NA
HETATM   30  C   UNL     1      42.573 -16.418   2.989  1.00  0.00     0.150 C 
BRANCH  30  31
HETATM   31  C   UNL     1      43.207 -17.729   3.233  1.00  0.00    -0.014 A 
HETATM   32  C   UNL     1      43.177 -18.709   2.234  1.00  0.00     0.049 A 
HETATM   33  C   UNL     1      43.624 -19.990   2.531  1.00  0.00     0.066 A 
HETATM   34  C   UNL     1      44.113 -20.298   3.795  1.00  0.00     0.036 A 
HETATM   35  C   UNL     1      44.157 -19.313   4.784  1.00  0.00     0.004 A 
HETATM   36  C   UNL     1      43.694 -18.025   4.507  1.00  0.00     0.013 A 
BRANCH  33  37
HETATM   37  O   UNL     1      43.570 -20.991   1.607  1.00  0.00    -0.361 OA
HETATM   38  H   UNL     1      44.421 -21.029   1.138  1.00  0.00     0.217 HD
ENDBRANCH  33  37
ENDBRANCH  30  31
ENDBRANCH   9  29
TORSDOF 8
ENDMDL
MODEL 3
REMARK VINA RESULT:      -9.4      1.733      8.587
REMARK  8 active torsions:
REMARK  status: ('A' for Active; 'I' for Inactive)
REMARK    1  A    between atoms: N_9  and  N_10 
REMARK    2  A    between atoms: C_11  and  C_12 
REMARK    3  A    between atoms: C_14  and  O_15 
REMARK    4  A    between atoms: C_19  and  N_20 
REMARK    5  A    between atoms: C_21  and  C_22 
REMARK       I    between atoms: C_22  and  N_23 
REMARK    6  A    between atoms: N_23  and  C_24 
REMARK    7  A    between atoms: C_24  and  C_25 
REMARK    8  A    between atoms: C_25  and  C_26 
ROOT
HETATM    1  C   UNL     1      43.561 -19.649   2.777  1.00  0.00     0.002 A 
HETATM    2  C   UNL     1      42.828 -18.592   2.233  1.00  0.00     0.034 A 
HETATM    3  C   UNL     1      42.815 -17.333   2.825  1.00  0.00     0.086 A 
HETATM    4  C   UNL     1      43.561 -17.126   4.017  1.00  0.00     0.088 A 
HETATM    5  N   UNL     1      43.603 -15.944   4.653  1.00  0.00    -0.225 NA
HETATM    6  C   UNL     1      42.897 -14.975   4.023  1.00  0.00     0.183 A 
HETATM    7  C   UNL     1      42.172 -15.153   2.849  1.00  0.00     0.125 A 
HETATM    8  N   UNL     1      42.093 -16.363   2.239  1.00  0.00    -0.242 NA
HETATM    9  N   UNL     1      42.740 -13.659   4.423  1.00  0.00    -0.197 N 
HETATM   10  C   UNL     1      41.976 -12.996   3.459  1.00  0.00     0.143 A 
HETATM   11  C   UNL     1      41.573 -13.920   2.508  1.00  0.00     0.110 A 
HETATM   12  C   UNL     1      44.283 -18.189   4.547  1.00  0.00     0.034 A 
HETATM   13  C   UNL     1      44.291 -19.446   3.940  1.00  0.00     0.002 A 
ENDROOT
BRANCH  11  14
HETATM   14  C   UNL     1      40.594 -13.621   1.487  1.00  0.00     0.257 C 
HETATM   15  N   UNL     1      40.917 -14.170   0.260  1.00  0.00    -0.356 N 
HETATM   16  H   UNL     1      41.810 -14.642   0.183  1.00  0.00     0.162 HD
HETATM   17  O   UNL     1      39.502 -13.125   1.738  1.00  0.00    -0.267 OA
BRANCH  15  18
HETATM   18  C   UNL     1      39.854 -14.585  -0.637  1.00  0.00     0.127 C 
BRANCH  18  19
HETATM   19  C   UNL     1      40.142 -14.162  -2.099  1.00  0.00     0.053 C 
BRANCH  19  20
HETATM   20  C   UNL     1      40.016 -12.703  -2.511  1.00  0.00    -0.082 C 
HETATM   21  C   UNL     1      38.641 -12.107  -2.273  1.00  0.00     0.034 C 
HETATM   22  C   UNL     1      38.403 -10.774  -2.987  1.00  0.00     0.005 C 
HETATM   23  C   UNL     1      39.600  -9.848  -2.831  1.00  0.00     0.004 C 
HETATM   24  C   UNL     1      40.868 -10.496  -3.382  1.00  0.00     0.027 C 
HETATM   25  C   UNL     1      41.008 -11.947  -3.017  1.00  0.00    -0.024 C 
ENDBRANCH  19  20
ENDBRANCH  18  19
ENDBRANCH  15  18
ENDBRANCH  11  14
BRANCH  10  26
HETATM   26  N   UNL     1      41.621 -11.685   3.579  1.00  0.00    -0.383 N 
HETATM   27  H   UNL     1      41.854 -11.022   2.843  1.00  0.00     0.157 HD
HETATM   28  H   UNL     1      41.609 -11.257   4.508  1.00  0.00     0.157 HD
ENDBRANCH  10  26
BRANCH   9  29
HETATM   29  N   UNL     1      43.029 -13.163   5.668  1.00  0.00    -0.176 NA
HETATM   30  C   UNL     1      44.236 -12.709   5.782  1.00  0.00     0.150 C 
BRANCH  30  31
HETATM   31  C   UNL     1      44.609 -11.824   6.904  1.00  0.00    -0.014 A 
HETATM   32  C   UNL     1      43.688 -11.581   7.929  1.00  0.00     0.049 A 
HETATM   33  C   UNL     1      43.983 -10.619   8.887  1.00  0.00     0.066 A 
HETATM   34  C   UNL     1      45.183  -9.918   8.847  1.00  0.00     0.036 A 
HETATM   35  C   UNL     1      46.106 -10.176   7.832  1.00  0.00     0.004 A 
HETATM   36  C   UNL     1      45.817 -11.126   6.850  1.00  0.00     0.013 A 
BRANCH  33  37
HETATM   37  O   UNL     1      43.098 -10.311   9.878  1.00  0.00    -0.361 OA
HETATM   38  H   UNL     1      42.448  -9.677   9.530  1.00  0.00     0.217 HD
ENDBRANCH  33  37
ENDBRANCH  30  31
ENDBRANCH   9  29
TORSDOF 8
ENDMDL
MODEL 4
REMARK VINA RESULT:      -9.3      4.213      7.888
REMARK  8 active torsions:
REMARK  status: ('A' for Active; 'I' for Inactive)
REMARK    1  A    between atoms: N_9  and  N_10 
REMARK    2  A    between atoms: C_11  and  C_12 
REMARK    3  A    between atoms: C_14  and  O_15 
REMARK    4  A    between atoms: C_19  and  N_20 
REMARK    5  A    between atoms: C_21  and  C_22 
REMARK       I    between atoms: C_22  and  N_23 
REMARK    6  A    between atoms: N_23  and  C_24 
REMARK    7  A    between atoms: C_24  and  C_25 
REMARK    8  A    between atoms: C_25  and  C_26 
ROOT
HETATM    1  C   UNL     1      38.672 -15.403  -2.618  1.00  0.00     0.002 A 
HETATM    2  C   UNL     1      39.360 -15.289  -1.408  1.00  0.00     0.034 A 
HETATM    3  C   UNL     1      39.798 -14.058  -0.930  1.00  0.00     0.086 A 
HETATM    4  C   UNL     1      39.541 -12.892  -1.701  1.00  0.00     0.088 A 
HETATM    5  N   UNL     1      39.928 -11.666  -1.315  1.00  0.00    -0.225 NA
HETATM    6  C   UNL     1      40.547 -11.657  -0.110  1.00  0.00     0.183 A 
HETATM    7  C   UNL     1      40.794 -12.784   0.666  1.00  0.00     0.125 A 
HETATM    8  N   UNL     1      40.446 -14.027   0.246  1.00  0.00    -0.242 NA
HETATM    9  N   UNL     1      41.064 -10.561   0.558  1.00  0.00    -0.197 N 
HETATM   10  C   UNL     1      41.570 -10.994   1.787  1.00  0.00     0.143 A 
HETATM   11  C   UNL     1      41.459 -12.374   1.843  1.00  0.00     0.110 A 
HETATM   12  C   UNL     1      38.858 -13.022  -2.904  1.00  0.00     0.034 A 
HETATM   13  C   UNL     1      38.420 -14.264  -3.369  1.00  0.00     0.002 A 
ENDROOT
BRANCH  11  14
HETATM   14  C   UNL     1      42.078 -13.170   2.879  1.00  0.00     0.257 C 
HETATM   15  N   UNL     1      41.725 -14.505   2.810  1.00  0.00    -0.356 N 
HETATM   16  H   UNL     1      41.034 -14.766   2.118  1.00  0.00     0.162 HD
HETATM   17  O   UNL     1      42.980 -12.747   3.593  1.00  0.00    -0.267 OA
BRANCH  15  18
HETATM   18  C   UNL     1      42.676 -15.516   3.233  1.00  0.00     0.127 C 
BRANCH  18  19
HETATM   19  C   UNL     1      42.678 -16.734   2.276  1.00  0.00     0.053 C 
BRANCH  19  20
HETATM   20  C   UNL     1      43.189 -18.083   2.759  1.00  0.00    -0.082 C 
HETATM   21  C   UNL     1      43.678 -18.084   4.196  1.00  0.00     0.034 C 
HETATM   22  C   UNL     1      44.499 -19.319   4.578  1.00  0.00     0.005 C 
HETATM   23  C   UNL     1      43.845 -20.593   4.064  1.00  0.00     0.004 C 
HETATM   24  C   UNL     1      43.678 -20.547   2.547  1.00  0.00     0.027 C 
HETATM   25  C   UNL     1      43.202 -19.218   2.035  1.00  0.00    -0.024 C 
ENDBRANCH  19  20
ENDBRANCH  18  19
ENDBRANCH  15  18
ENDBRANCH  11  14
BRANCH  10  26
HETATM   26  N   UNL     1      42.175 -10.149   2.669  1.00  0.00    -0.383 N 
HETATM   27  H   UNL     1      42.155  -9.144   2.513  1.00  0.00     0.157 HD
HETATM   28  H   UNL     1      43.026 -10.457   3.149  1.00  0.00     0.157 HD
ENDBRANCH  10  26
BRANCH   9  29
HETATM   29  N   UNL     1      41.301  -9.327   0.006  1.00  0.00    -0.176 NA
HETATM   30  C   UNL     1      42.308  -9.303  -0.807  1.00  0.00     0.150 C 
BRANCH  30  31
HETATM   31  C   UNL     1      42.489  -8.186  -1.754  1.00  0.00    -0.014 A 
HETATM   32  C   UNL     1      43.241  -7.069  -1.372  1.00  0.00     0.049 A 
HETATM   33  C   UNL     1      43.265  -5.955  -2.201  1.00  0.00     0.066 A 
HETATM   34  C   UNL     1      42.570  -5.947  -3.405  1.00  0.00     0.036 A 
HETATM   35  C   UNL     1      41.834  -7.069  -3.790  1.00  0.00     0.004 A 
HETATM   36  C   UNL     1      41.784  -8.191  -2.959  1.00  0.00     0.013 A 
BRANCH  33  37
HETATM   37  O   UNL     1      43.944  -4.825  -1.850  1.00  0.00    -0.361 OA
HETATM   38  H   UNL     1      44.815  -5.080  -1.503  1.00  0.00     0.217 HD
ENDBRANCH  33  37
ENDBRANCH  30  31
ENDBRANCH   9  29
TORSDOF 8
ENDMDL
MODEL 5
REMARK VINA RESULT:      -9.2      2.894      7.234
REMARK  8 active torsions:
REMARK  status: ('A' for Active; 'I' for Inactive)
REMARK    1  A    between atoms: N_9  and  N_10 
REMARK    2  A    between atoms: C_11  and  C_12 
REMARK    3  A    between atoms: C_14  and  O_15 
REMARK    4  A    between atoms: C_19  and  N_20 
REMARK    5  A    between atoms: C_21  and  C_22 
REMARK       I    between atoms: C_22  and  N_23 
REMARK    6  A    between atoms: N_23  and  C_24 
REMARK    7  A    between atoms: C_24  and  C_25 
REMARK    8  A    between atoms: C_25  and  C_26 
ROOT
HETATM    1  C   UNL     1      45.550  -8.885   8.361  1.00  0.00     0.002 A 
HETATM    2  C   UNL     1      44.190  -9.034   8.083  1.00  0.00     0.034 A 
HETATM    3  C   UNL     1      43.701 -10.144   7.402  1.00  0.00     0.086 A 
HETATM    4  C   UNL     1      44.615 -11.144   6.974  1.00  0.00     0.088 A 
HETATM    5  N   UNL     1      44.229 -12.247   6.311  1.00  0.00    -0.225 NA
HETATM    6  C   UNL     1      42.887 -12.318   6.131  1.00  0.00     0.183 A 
HETATM    7  C   UNL     1      41.975 -11.357   6.555  1.00  0.00     0.125 A 
HETATM    8  N   UNL     1      42.378 -10.221   7.180  1.00  0.00    -0.242 NA
HETATM    9  N   UNL     1      42.181 -13.318   5.487  1.00  0.00    -0.197 N 
HETATM   10  C   UNL     1      40.819 -13.018   5.572  1.00  0.00     0.143 A 
HETATM   11  C   UNL     1      40.681 -11.782   6.183  1.00  0.00     0.110 A 
HETATM   12  C   UNL     1      45.965 -10.981   7.255  1.00  0.00     0.034 A 
HETATM   13  C   UNL     1      46.442  -9.864   7.944  1.00  0.00     0.002 A 
ENDROOT
BRANCH  11  14
HETATM   14  C   UNL     1      39.424 -11.069   6.239  1.00  0.00     0.257 C 
HETATM   15  N   UNL     1      39.489  -9.823   5.646  1.00  0.00    -0.356 N 
HETATM   16  H   UNL     1      40.395  -9.514   5.314  1.00  0.00     0.162 HD
HETATM   17  O   UNL     1      38.373 -11.601   6.579  1.00  0.00    -0.267 OA
BRANCH  15  18
HETATM   18  C   UNL     1      38.310  -9.279   4.998  1.00  0.00     0.127 C 
BRANCH  18  19
HETATM   19  C   UNL     1      38.452  -9.284   3.455  1.00  0.00     0.053 C 
BRANCH  19  20
HETATM   20  C   UNL     1      39.394 -10.269   2.779  1.00  0.00    -0.082 C 
HETATM   21  C   UNL     1      40.816  -9.761   2.624  1.00  0.00     0.034 C 
HETATM   22  C   UNL     1      41.672 -10.582   1.655  1.00  0.00     0.005 C 
HETATM   23  C   UNL     1      41.486 -12.074   1.888  1.00  0.00     0.004 C 
HETATM   24  C   UNL     1      40.021 -12.473   1.729  1.00  0.00     0.027 C 
HETATM   25  C   UNL     1      39.062 -11.505   2.362  1.00  0.00    -0.024 C 
ENDBRANCH  19  20
ENDBRANCH  18  19
ENDBRANCH  15  18
ENDBRANCH  11  14
BRANCH  10  26
HETATM   26  N   UNL     1      39.858 -13.802   5.006  1.00  0.00    -0.383 N 
HETATM   27  H   UNL     1      39.026 -13.381   4.598  1.00  0.00     0.157 HD
HETATM   28  H   UNL     1      39.679 -14.730   5.400  1.00  0.00     0.157 HD
ENDBRANCH  10  26
BRANCH   9  29
HETATM   29  N   UNL     1      42.721 -14.277   4.667  1.00  0.00    -0.176 NA
HETATM   30  C   UNL     1      42.935 -15.409   5.257  1.00  0.00     0.150 C 
BRANCH  30  31
HETATM   31  C   UNL     1      43.163 -16.639   4.474  1.00  0.00    -0.014 A 
HETATM   32  C   UNL     1      43.719 -17.763   5.096  1.00  0.00     0.049 A 
HETATM   33  C   UNL     1      44.085 -18.853   4.317  1.00  0.00     0.066 A 
HETATM   34  C   UNL     1      43.887 -18.845   2.941  1.00  0.00     0.036 A 
HETATM   35  C   UNL     1      43.317 -17.729   2.327  1.00  0.00     0.004 A 
HETATM   36  C   UNL     1      42.961 -16.616   3.092  1.00  0.00     0.013 A 
BRANCH  33  37
HETATM   37  O   UNL     1      44.675 -19.952   4.870  1.00  0.00    -0.361 OA
HETATM   38  H   UNL     1      44.190 -20.193   5.677  1.00  0.00     0.217 HD
ENDBRANCH  33  37
ENDBRANCH  30  31
ENDBRANCH   9  29
TORSDOF 8
ENDMDL
MODEL 6
REMARK VINA RESULT:      -9.1      3.526      6.326
REMARK  8 active torsions:
REMARK  status: ('A' for Active; 'I' for Inactive)
REMARK    1  A    between atoms: N_9  and  N_10 
REMARK    2  A    between atoms: C_11  and  C_12 
REMARK    3  A    between atoms: C_14  and  O_15 
REMARK    4  A    between atoms: C_19  and  N_20 
REMARK    5  A    between atoms: C_21  and  C_22 
REMARK       I    between atoms: C_22  and  N_23 
REMARK    6  A    between atoms: N_23  and  C_24 
REMARK    7  A    between atoms: C_24  and  C_25 
REMARK    8  A    between atoms: C_25  and  C_26 
ROOT
HETATM    1  C   UNL     1      38.800  -8.471   4.587  1.00  0.00     0.002 A 
HETATM    2  C   UNL     1      39.887  -8.693   5.435  1.00  0.00     0.034 A 
HETATM    3  C   UNL     1      40.561  -9.910   5.455  1.00  0.00     0.086 A 
HETATM    4  C   UNL     1      40.123 -10.952   4.593  1.00  0.00     0.088 A 
HETATM    5  N   UNL     1      40.715 -12.156   4.548  1.00  0.00    -0.225 NA
HETATM    6  C   UNL     1      41.785 -12.254   5.374  1.00  0.00     0.183 A 
HETATM    7  C   UNL     1      42.239 -11.242   6.214  1.00  0.00     0.125 A 
HETATM    8  N   UNL     1      41.604 -10.044   6.291  1.00  0.00    -0.242 NA
HETATM    9  N   UNL     1      42.600 -13.357   5.561  1.00  0.00    -0.197 N 
HETATM   10  C   UNL     1      43.608 -13.010   6.464  1.00  0.00     0.143 A 
HETATM   11  C   UNL     1      43.365 -11.723   6.917  1.00  0.00     0.110 A 
HETATM   12  C   UNL     1      39.038 -10.716   3.758  1.00  0.00     0.034 A 
HETATM   13  C   UNL     1      38.373  -9.489   3.745  1.00  0.00     0.002 A 
ENDROOT
BRANCH  11  14
HETATM   14  C   UNL     1      44.088 -11.127   8.018  1.00  0.00     0.257 C 
HETATM   15  N   UNL     1      43.254 -10.677   9.024  1.00  0.00    -0.356 N 
HETATM   16  H   UNL     1      42.257 -10.735   8.860  1.00  0.00     0.162 HD
HETATM   17  O   UNL     1      45.305 -11.213   8.139  1.00  0.00    -0.267 OA
BRANCH  15  18
HETATM   18  C   UNL     1      43.716 -10.705  10.400  1.00  0.00     0.127 C 
BRANCH  18  19
HETATM   19  C   UNL     1      43.906  -9.277  10.969  1.00  0.00     0.053 C 
BRANCH  19  20
HETATM   20  C   UNL     1      43.189  -8.862  12.245  1.00  0.00    -0.082 C 
HETATM   21  C   UNL     1      42.116  -9.835  12.698  1.00  0.00     0.034 C 
HETATM   22  C   UNL     1      41.169  -9.272  13.762  1.00  0.00     0.005 C 
HETATM   23  C   UNL     1      41.940  -8.531  14.845  1.00  0.00     0.004 C 
HETATM   24  C   UNL     1      42.762  -7.392  14.247  1.00  0.00     0.027 C 
HETATM   25  C   UNL     1      43.461  -7.761  12.969  1.00  0.00    -0.024 C 
ENDBRANCH  19  20
ENDBRANCH  18  19
ENDBRANCH  15  18
ENDBRANCH  11  14
BRANCH  10  26
HETATM   26  N   UNL     1      44.559 -13.894   6.877  1.00  0.00    -0.383 N 
HETATM   27  H   UNL     1      45.125 -14.395   6.195  1.00  0.00     0.157 HD
HETATM   28  H   UNL     1      44.396 -14.437   7.730  1.00  0.00     0.157 HD
ENDBRANCH  10  26
BRANCH   9  29
HETATM   29  N   UNL     1      42.314 -14.639   5.164  1.00  0.00    -0.176 NA
HETATM   30  C   UNL     1      42.925 -14.998   4.081  1.00  0.00     0.150 C 
BRANCH  30  31
HETATM   31  C   UNL     1      43.028 -16.423   3.708  1.00  0.00    -0.014 A 
HETATM   32  C   UNL     1      43.624 -17.329   4.594  1.00  0.00     0.049 A 
HETATM   33  C   UNL     1      43.869 -18.628   4.167  1.00  0.00     0.066 A 
HETATM   34  C   UNL     1      43.514 -19.036   2.887  1.00  0.00     0.036 A 
HETATM   35  C   UNL     1      42.905 -18.134   2.012  1.00  0.00     0.004 A 
HETATM   36  C   UNL     1      42.668 -16.819   2.419  1.00  0.00     0.013 A 
BRANCH  33  37
HETATM   37  O   UNL     1      44.490 -19.533   4.975  1.00  0.00    -0.361 OA
HETATM   38  H   UNL     1      45.432 -19.298   5.041  1.00  0.00     0.217 HD
ENDBRANCH  33  37
ENDBRANCH  30  31
ENDBRANCH   9  29
TORSDOF 8
ENDMDL
MODEL 7
REMARK VINA RESULT:      -9.0      2.153      5.696
REMARK  8 active torsions:
REMARK  status: ('A' for Active; 'I' for Inactive)
REMARK    1  A    between atoms: N_9  and  N_10 
REMARK    2  A    between atoms: C_11  and  C_12 
REMARK    3  A    between atoms: C_14  and  O_15 
REMARK    4  A    between atoms: C_19  and  N_20 
REMARK    5  A    between atoms: C_21  and  C_22 
REMARK       I    between atoms: C_22  and  N_23 
REMARK    6  A    between atoms: N_23  and  C_24 
REMARK    7  A    between atoms: C_24  and  C_25 
REMARK    8  A    between atoms: C_25  and  C_26 
ROOT
HETATM    1  C   UNL     1      38.358 -11.267  -0.525  1.00  0.00     0.002 A 
HETATM    2  C   UNL     1      38.580 -11.157   0.849  1.00  0.00     0.034 A 
HETATM    3  C   UNL     1      39.245 -12.149   1.563  1.00  0.00     0.086 A 
HETATM    4  C   UNL     1      39.700 -13.304   0.872  1.00  0.00     0.088 A 
HETATM    5  N   UNL     1      40.349 -14.308   1.483  1.00  0.00    -0.225 NA
HETATM    6  C   UNL     1      40.553 -14.085   2.804  1.00  0.00     0.183 A 
HETATM    7  C   UNL     1      40.129 -12.956   3.495  1.00  0.00     0.125 A 
HETATM    8  N   UNL     1      39.429 -11.968   2.881  1.00  0.00    -0.242 NA
HETATM    9  N   UNL     1      41.183 -14.924   3.707  1.00  0.00    -0.197 N 
HETATM   10  C   UNL     1      41.217 -14.284   4.949  1.00  0.00     0.143 A 
HETATM   11  C   UNL     1      40.521 -13.090   4.845  1.00  0.00     0.110 A 
HETATM   12  C   UNL     1      39.469 -13.400  -0.495  1.00  0.00     0.034 A 
HETATM   13  C   UNL     1      38.804 -12.395  -1.200  1.00  0.00     0.002 A 
ENDROOT
BRANCH  11  14
HETATM   14  C   UNL     1      40.176 -12.280   5.992  1.00  0.00     0.257 C 
HETATM   15  N   UNL     1      41.229 -11.500   6.432  1.00  0.00    -0.356 N 
HETATM   16  H   UNL     1      42.123 -11.628   5.974  1.00  0.00     0.162 HD
HETATM   17  O   UNL     1      39.024 -12.142   6.386  1.00  0.00    -0.267 OA
BRANCH  15  18
HETATM   18  C   UNL     1      40.956 -10.209   7.035  1.00  0.00     0.127 C 
BRANCH  18  19
HETATM   19  C   UNL     1      42.262  -9.462   7.404  1.00  0.00     0.053 C 
BRANCH  19  20
HETATM   20  C   UNL     1      42.704  -9.372   8.857  1.00  0.00    -0.082 C 
HETATM   21  C   UNL     1      44.209  -9.320   9.046  1.00  0.00     0.034 C 
HETATM   22  C   UNL     1      44.669  -9.575  10.485  1.00  0.00     0.005 C 
HETATM   23  C   UNL     1      43.815  -8.801  11.478  1.00  0.00     0.004 C 
HETATM   24  C   UNL     1      42.342  -9.181  11.345  1.00  0.00     0.027 C 
HETATM   25  C   UNL     1      41.881  -9.307   9.920  1.00  0.00    -0.024 C 
ENDBRANCH  19  20
ENDBRANCH  18  19
ENDBRANCH  15  18
ENDBRANCH  11  14
BRANCH  10  26
HETATM   26  N   UNL     1      41.752 -14.867   6.059  1.00  0.00    -0.383 N 
HETATM   27  H   UNL     1      42.196 -15.781   5.995  1.00  0.00     0.157 HD
HETATM   28  H   UNL     1      41.308 -14.707   6.967  1.00  0.00     0.157 HD
ENDBRANCH  10  26
BRANCH   9  29
HETATM   29  N   UNL     1      41.466 -16.250   3.502  1.00  0.00    -0.176 NA
HETATM   30  C   UNL     1      42.705 -16.480   3.204  1.00  0.00     0.150 C 
BRANCH  30  31
HETATM   31  C   UNL     1      43.267 -17.841   3.306  1.00  0.00    -0.014 A 
HETATM   32  C   UNL     1      43.135 -18.727   2.230  1.00  0.00     0.049 A 
HETATM   33  C   UNL     1      43.515 -20.053   2.397  1.00  0.00     0.066 A 
HETATM   34  C   UNL     1      44.039 -20.498   3.605  1.00  0.00     0.036 A 
HETATM   35  C   UNL     1      44.185 -19.607   4.670  1.00  0.00     0.004 A 
HETATM   36  C   UNL     1      43.790 -18.275   4.525  1.00  0.00     0.013 A 
BRANCH  33  37
HETATM   37  O   UNL     1      43.360 -20.965   1.395  1.00  0.00    -0.361 OA
HETATM   38  H   UNL     1      42.651 -21.583   1.642  1.00  0.00     0.217 HD
ENDBRANCH  33  37
ENDBRANCH  30  31
ENDBRANCH   9  29
TORSDOF 8
ENDMDL
MODEL 8
REMARK VINA RESULT:      -8.9      1.530      1.976
REMARK  8 active torsions:
REMARK  status: ('A' for Active; 'I' for Inactive)
REMARK    1  A    between atoms: N_9  and  N_10 
REMARK    2  A    between atoms: C_11  and  C_12 
REMARK    3  A    between atoms: C_14  and  O_15 
REMARK    4  A    between atoms: C_19  and  N_20 
REMARK    5  A    between atoms: C_21  and  C_22 
REMARK       I    between atoms: C_22  and  N_23 
REMARK    6  A    between atoms: N_23  and  C_24 
REMARK    7  A    between atoms: C_24  and  C_25 
REMARK    8  A    between atoms: C_25  and  C_26 
ROOT
HETATM    1  C   UNL     1      44.384 -17.375   5.196  1.00  0.00     0.002 A 
HETATM    2  C   UNL     1      44.046 -16.106   5.672  1.00  0.00     0.034 A 
HETATM    3  C   UNL     1      42.992 -15.378   5.127  1.00  0.00     0.086 A 
HETATM    4  C   UNL     1      42.251 -15.942   4.054  1.00  0.00     0.088 A 
HETATM    5  N   UNL     1      41.221 -15.310   3.470  1.00  0.00    -0.225 NA
HETATM    6  C   UNL     1      40.945 -14.108   4.033  1.00  0.00     0.183 A 
HETATM    7  C   UNL     1      41.649 -13.546   5.093  1.00  0.00     0.125 A 
HETATM    8  N   UNL     1      42.721 -14.169   5.645  1.00  0.00    -0.242 NA
HETATM    9  N   UNL     1      39.954 -13.217   3.661  1.00  0.00    -0.197 N 
HETATM   10  C   UNL     1      39.993 -12.128   4.537  1.00  0.00     0.143 A 
HETATM   11  C   UNL     1      41.070 -12.293   5.393  1.00  0.00     0.110 A 
HETATM   12  C   UNL     1      42.602 -17.204   3.589  1.00  0.00     0.034 A 
HETATM   13  C   UNL     1      43.658 -17.925   4.149  1.00  0.00     0.002 A 
ENDROOT
BRANCH  11  14
HETATM   14  C   UNL     1      41.531 -11.252   6.284  1.00  0.00     0.257 C 
HETATM   15  N   UNL     1      42.727 -11.568   6.901  1.00  0.00    -0.356 N 
HETATM   16  H   UNL     1      43.105 -12.493   6.733  1.00  0.00     0.162 HD
HETATM   17  O   UNL     1      41.030 -10.134   6.317  1.00  0.00    -0.267 OA
BRANCH  15  18
HETATM   18  C   UNL     1      43.659 -10.507   7.235  1.00  0.00     0.127 C 
BRANCH  18  19
HETATM   19  C   UNL     1      44.296 -10.723   8.630  1.00  0.00     0.053 C 
BRANCH  19  20
HETATM   20  C   UNL     1      43.823  -9.903   9.820  1.00  0.00    -0.082 C 
HETATM   21  C   UNL     1      43.742 -10.683  11.120  1.00  0.00     0.034 C 
HETATM   22  C   UNL     1      42.953  -9.977  12.226  1.00  0.00     0.005 C 
HETATM   23  C   UNL     1      43.336  -8.507  12.319  1.00  0.00     0.004 C 
HETATM   24  C   UNL     1      43.091  -7.794  10.992  1.00  0.00     0.027 C 
HETATM   25  C   UNL     1      43.521  -8.591   9.793  1.00  0.00    -0.024 C 
ENDBRANCH  19  20
ENDBRANCH  18  19
ENDBRANCH  15  18
ENDBRANCH  11  14
BRANCH  10  26
HETATM   26  N   UNL     1      39.154 -11.060   4.416  1.00  0.00    -0.383 N 
HETATM   27  H   UNL     1      38.961 -10.661   3.499  1.00  0.00     0.157 HD
HETATM   28  H   UNL     1      39.127 -10.362   5.164  1.00  0.00     0.157 HD
ENDBRANCH  10  26
BRANCH   9  29
HETATM   29  N   UNL     1      39.252 -13.248   2.483  1.00  0.00    -0.176 NA
HETATM   30  C   UNL     1      39.928 -12.833   1.461  1.00  0.00     0.150 C 
BRANCH  30  31
HETATM   31  C   UNL     1      39.479 -13.129   0.086  1.00  0.00    -0.014 A 
HETATM   32  C   UNL     1      38.603 -12.250  -0.561  1.00  0.00     0.049 A 
HETATM   33  C   UNL     1      38.055 -12.620  -1.782  1.00  0.00     0.066 A 
HETATM   34  C   UNL     1      38.381 -13.836  -2.371  1.00  0.00     0.036 A 
HETATM   35  C   UNL     1      39.268 -14.703  -1.730  1.00  0.00     0.004 A 
HETATM   36  C   UNL     1      39.814 -14.355  -0.493  1.00  0.00     0.013 A 
BRANCH  33  37
HETATM   37  O   UNL     1      37.159 -11.819  -2.428  1.00  0.00    -0.361 OA
HETATM   38  H   UNL     1      36.317 -11.839  -1.944  1.00  0.00     0.217 HD
ENDBRANCH  33  37
ENDBRANCH  30  31
ENDBRANCH   9  29
TORSDOF 8
ENDMDL
MODEL 9
REMARK VINA RESULT:      -8.7      4.067     10.641
REMARK  8 active torsions:
REMARK  status: ('A' for Active; 'I' for Inactive)
REMARK    1  A    between atoms: N_9  and  N_10 
REMARK    2  A    between atoms: C_11  and  C_12 
REMARK    3  A    between atoms: C_14  and  O_15 
REMARK    4  A    between atoms: C_19  and  N_20 
REMARK    5  A    between atoms: C_21  and  C_22 
REMARK       I    between atoms: C_22  and  N_23 
REMARK    6  A    between atoms: N_23  and  C_24 
REMARK    7  A    between atoms: C_24  and  C_25 
REMARK    8  A    between atoms: C_25  and  C_26 
ROOT
HETATM    1  C   UNL     1      46.245 -11.185   6.511  1.00  0.00     0.002 A 
HETATM    2  C   UNL     1      44.867 -11.292   6.310  1.00  0.00     0.034 A 
HETATM    3  C   UNL     1      43.957 -10.614   7.115  1.00  0.00     0.086 A 
HETATM    4  C   UNL     1      44.447  -9.801   8.172  1.00  0.00     0.088 A 
HETATM    5  N   UNL     1      43.640  -9.113   8.995  1.00  0.00    -0.225 NA
HETATM    6  C   UNL     1      42.327  -9.248   8.690  1.00  0.00     0.183 A 
HETATM    7  C   UNL     1      41.828 -10.027   7.651  1.00  0.00     0.125 A 
HETATM    8  N   UNL     1      42.647 -10.759   6.854  1.00  0.00    -0.242 NA
HETATM    9  N   UNL     1      41.251  -8.675   9.345  1.00  0.00    -0.197 N 
HETATM   10  C   UNL     1      40.083  -9.038   8.671  1.00  0.00     0.143 A 
HETATM   11  C   UNL     1      40.419  -9.917   7.655  1.00  0.00     0.110 A 
HETATM   12  C   UNL     1      45.821  -9.707   8.361  1.00  0.00     0.034 A 
HETATM   13  C   UNL     1      46.723 -10.388   7.542  1.00  0.00     0.002 A 
ENDROOT
BRANCH  11  14
HETATM   14  C   UNL     1      39.435 -10.656   6.896  1.00  0.00     0.257 C 
HETATM   15  N   UNL     1      39.949 -11.192   5.731  1.00  0.00    -0.356 N 
HETATM   16  H   UNL     1      40.906 -10.957   5.495  1.00  0.00     0.162 HD
HETATM   17  O   UNL     1      38.334 -10.953   7.347  1.00  0.00    -0.267 OA
BRANCH  15  18
HETATM   18  C   UNL     1      39.416 -12.444   5.226  1.00  0.00     0.127 C 
BRANCH  18  19
HETATM   19  C   UNL     1      40.116 -13.666   5.872  1.00  0.00     0.053 C 
BRANCH  19  20
HETATM   20  C   UNL     1      41.138 -14.467   5.079  1.00  0.00    -0.082 C 
HETATM   21  C   UNL     1      41.112 -15.958   5.360  1.00  0.00     0.034 C 
HETATM   22  C   UNL     1      42.338 -16.715   4.842  1.00  0.00     0.005 C 
HETATM   23  C   UNL     1      42.695 -16.279   3.429  1.00  0.00     0.004 C 
HETATM   24  C   UNL     1      42.968 -14.778   3.373  1.00  0.00     0.027 C 
HETATM   25  C   UNL     1      41.992 -13.960   4.171  1.00  0.00    -0.024 C 
ENDBRANCH  19  20
ENDBRANCH  18  19
ENDBRANCH  15  18
ENDBRANCH  11  14
BRANCH  10  26
HETATM   26  N   UNL     1      38.845  -8.652   9.090  1.00  0.00    -0.383 N 
HETATM   27  H   UNL     1      38.572  -7.672   9.050  1.00  0.00     0.157 HD
HETATM   28  H   UNL     1      38.404  -9.153   9.866  1.00  0.00     0.157 HD
ENDBRANCH  10  26
BRANCH   9  29
HETATM   29  N   UNL     1      41.289  -8.097  10.589  1.00  0.00    -0.176 NA
HETATM   30  C   UNL     1      41.560  -8.928  11.543  1.00  0.00     0.150 C 
BRANCH  30  31
HETATM   31  C   UNL     1      41.995  -8.443  12.868  1.00  0.00    -0.014 A 
HETATM   32  C   UNL     1      41.237  -8.756  14.003  1.00  0.00     0.049 A 
HETATM   33  C   UNL     1      41.557  -8.157  15.215  1.00  0.00     0.066 A 
HETATM   34  C   UNL     1      42.626  -7.274  15.312  1.00  0.00     0.036 A 
HETATM   35  C   UNL     1      43.390  -6.979  14.182  1.00  0.00     0.004 A 
HETATM   36  C   UNL     1      43.070  -7.557  12.952  1.00  0.00     0.013 A 
BRANCH  33  37
HETATM   37  O   UNL     1      40.819  -8.392  16.337  1.00  0.00    -0.361 OA
HETATM   38  H   UNL     1      40.888  -9.335  16.565  1.00  0.00     0.217 HD
ENDBRANCH  33  37
ENDBRANCH  30  31
ENDBRANCH   9  29
TORSDOF 8
ENDMDL
MODEL 10
REMARK VINA RESULT:      -8.7      3.147      6.202
REMARK  8 active torsions:
REMARK  status: ('A' for Active; 'I' for Inactive)
REMARK    1  A    between atoms: N_9  and  N_10 
REMARK    2  A    between atoms: C_11  and  C_12 
REMARK    3  A    between atoms: C_14  and  O_15 
REMARK    4  A    between atoms: C_19  and  N_20 
REMARK    5  A    between atoms: C_21  and  C_22 
REMARK       I    between atoms: C_22  and  N_23 
REMARK    6  A    between atoms: N_23  and  C_24 
REMARK    7  A    between atoms: C_24  and  C_25 
REMARK    8  A    between atoms: C_25  and  C_26 
ROOT
HETATM    1  C   UNL     1      38.536 -11.601  -1.342  1.00  0.00     0.002 A 
HETATM    2  C   UNL     1      38.589 -11.402   0.039  1.00  0.00     0.034 A 
HETATM    3  C   UNL     1      39.200 -12.322   0.886  1.00  0.00     0.086 A 
HETATM    4  C   UNL     1      39.775 -13.494   0.326  1.00  0.00     0.088 A 
HETATM    5  N   UNL     1      40.383 -14.432   1.070  1.00  0.00    -0.225 NA
HETATM    6  C   UNL     1      40.421 -14.124   2.389  1.00  0.00     0.183 A 
HETATM    7  C   UNL     1      39.877 -12.976   2.954  1.00  0.00     0.125 A 
HETATM    8  N   UNL     1      39.220 -12.056   2.203  1.00  0.00    -0.242 NA
HETATM    9  N   UNL     1      40.969 -14.881   3.410  1.00  0.00    -0.197 N 
HETATM   10  C   UNL     1      40.833 -14.170   4.605  1.00  0.00     0.143 A 
HETATM   11  C   UNL     1      40.111 -13.015   4.347  1.00  0.00     0.110 A 
HETATM   12  C   UNL     1      39.711 -13.679  -1.049  1.00  0.00     0.034 A 
HETATM   13  C   UNL     1      39.099 -12.746  -1.888  1.00  0.00     0.002 A 
ENDROOT
BRANCH  11  14
HETATM   14  C   UNL     1      39.604 -12.155   5.392  1.00  0.00     0.257 C 
HETATM   15  N   UNL     1      39.606 -10.820   5.035  1.00  0.00    -0.356 N 
HETATM   16  H   UNL     1      40.019 -10.580   4.142  1.00  0.00     0.162 HD
HETATM   17  O   UNL     1      39.037 -12.585   6.390  1.00  0.00    -0.267 OA
BRANCH  15  18
HETATM   18  C   UNL     1      38.582  -9.938   5.565  1.00  0.00     0.127 C 
BRANCH  18  19
HETATM   19  C   UNL     1      39.199  -8.705   6.270  1.00  0.00     0.053 C 
BRANCH  19  20
HETATM   20  C   UNL     1      39.333  -8.679   7.785  1.00  0.00    -0.082 C 
HETATM   21  C   UNL     1      39.511  -7.289   8.369  1.00  0.00     0.034 C 
HETATM   22  C   UNL     1      39.986  -7.277   9.825  1.00  0.00     0.005 C 
HETATM   23  C   UNL     1      39.218  -8.291  10.660  1.00  0.00     0.004 C 
HETATM   24  C   UNL     1      39.373  -9.698  10.090  1.00  0.00     0.027 C 
HETATM   25  C   UNL     1      39.274  -9.754   8.592  1.00  0.00    -0.024 C 
ENDBRANCH  19  20
ENDBRANCH  18  19
ENDBRANCH  15  18
ENDBRANCH  11  14
BRANCH  10  26
HETATM   26  N   UNL     1      41.252 -14.663   5.804  1.00  0.00    -0.383 N 
HETATM   27  H   UNL     1      41.964 -15.390   5.839  1.00  0.00     0.157 HD
HETATM   28  H   UNL     1      40.584 -14.728   6.577  1.00  0.00     0.157 HD
ENDBRANCH  10  26
BRANCH   9  29
HETATM   29  N   UNL     1      41.323 -16.204   3.324  1.00  0.00    -0.176 NA
HETATM   30  C   UNL     1      42.577 -16.394   3.068  1.00  0.00     0.150 C 
BRANCH  30  31
HETATM   31  C   UNL     1      43.204 -17.711   3.294  1.00  0.00    -0.014 A 
HETATM   32  C   UNL     1      43.175 -18.675   2.280  1.00  0.00     0.049 A 
HETATM   33  C   UNL     1      43.615 -19.963   2.559  1.00  0.00     0.066 A 
HETATM   34  C   UNL     1      44.097 -20.293   3.820  1.00  0.00     0.036 A 
HETATM   35  C   UNL     1      44.141 -19.323   4.824  1.00  0.00     0.004 A 
HETATM   36  C   UNL     1      43.685 -18.029   4.565  1.00  0.00     0.013 A 
BRANCH  33  37
HETATM   37  O   UNL     1      43.560 -20.949   1.619  1.00  0.00    -0.361 OA
HETATM   38  H   UNL     1      42.877 -21.591   1.879  1.00  0.00     0.217 HD
ENDBRANCH  33  37
ENDBRANCH  30  31
ENDBRANCH   9  29
TORSDOF 8
ENDMDL
