MODEL 1
REMARK VINA RESULT:      -8.7      0.000      0.000
REMARK  8 active torsions:
REMARK  status: ('A' for Active; 'I' for Inactive)
REMARK    1  A    between atoms: O_2  and  C_3 
REMARK    2  A    between atoms: C_11  and  C_12 
REMARK       I    between atoms: C_12  and  N_13 
REMARK    3  A    between atoms: N_13  and  C_14 
REMARK    4  A    between atoms: C_14  and  C_15 
REMARK    5  A    between atoms: C_15  and  C_16 
REMARK    6  A    between atoms: C_16  and  C_17 
REMARK    7  A    between atoms: C_17  and  O_18 
REMARK    8  A    between atoms: O_18  and  C_19 
ROOT
HETATM    1  C   UNL     1      44.637 -10.860   8.812  1.00  0.00     0.268 C 
HETATM    2  N   UNL     1      43.670 -11.448   8.038  1.00  0.00    -0.345 N 
HETATM    3  O   UNL     1      45.829 -10.901   8.521  1.00  0.00    -0.266 OA
HETATM    4  H   UNL     1      42.712 -11.466   8.354  1.00  0.00     0.163 HD
ENDROOT
BRANCH   2   5
HETATM    5  C   UNL     1      44.026 -12.242   6.894  1.00  0.00     0.217 C 
BRANCH   5   6
HETATM    6  C   UNL     1      42.789 -12.535   6.063  1.00  0.00    -0.085 C 
BRANCH   6   7
HETATM    7  C   UNL     1      41.727 -12.786   5.348  1.00  0.00    -0.078 C 
BRANCH   7   8
HETATM    8  C   UNL     1      40.491 -13.077   4.515  1.00  0.00     0.269 C 
BRANCH   8   9
HETATM    9  O   UNL     1      40.110 -14.432   4.737  1.00  0.00    -0.339 OA
BRANCH   9  10
HETATM   10  C   UNL     1      40.921 -15.399   4.207  1.00  0.00     0.072 A 
HETATM   11  C   UNL     1      41.866 -16.156   4.903  1.00  0.00     0.069 A 
HETATM   12  C   UNL     1      42.646 -17.114   4.267  1.00  0.00     0.069 A 
HETATM   13  C   UNL     1      42.469 -17.319   2.882  1.00  0.00    -0.007 A 
HETATM   14  N   UNL     1      43.544 -17.812   4.986  1.00  0.00    -0.260 NA
HETATM   15  C   UNL     1      41.520 -16.566   2.175  1.00  0.00     0.016 A 
HETATM   16  C   UNL     1      43.261 -18.287   2.252  1.00  0.00     0.015 A 
HETATM   17  C   UNL     1      40.752 -15.611   2.839  1.00  0.00     0.038 A 
HETATM   18  C   UNL     1      44.189 -19.008   2.992  1.00  0.00     0.020 A 
HETATM   19  C   UNL     1      44.291 -18.737   4.343  1.00  0.00     0.117 A 
ENDBRANCH   9  10
ENDBRANCH   8   9
ENDBRANCH   7   8
ENDBRANCH   6   7
ENDBRANCH   5   6
ENDBRANCH   2   5
BRANCH   1  20
HETATM   20  C   UNL     1      44.164 -10.182   9.997  1.00  0.00     0.102 A 
HETATM   21  N   UNL     1      43.093 -10.674  10.713  1.00  0.00    -0.351 N 
HETATM   22  C   UNL     1      42.819  -9.887  11.804  1.00  0.00     0.045 A 
HETATM   23  H   UNL     1      42.593 -11.515  10.455  1.00  0.00     0.166 HD
HETATM   24  C   UNL     1      41.840 -10.029  12.799  1.00  0.00     0.067 A 
HETATM   25  C   UNL     1      43.728  -8.834  11.781  1.00  0.00    -0.007 A 
HETATM   26  C   UNL     1      41.790  -9.057  13.805  1.00  0.00     0.070 A 
HETATM   27  C   UNL     1      42.684  -7.984  13.790  1.00  0.00     0.038 A 
HETATM   28  C   UNL     1      43.657  -7.858  12.790  1.00  0.00     0.016 A 
HETATM   29  C   UNL     1      44.570  -9.030  10.649  1.00  0.00     0.049 A 
BRANCH  26  30
HETATM   30  O   UNL     1      40.907  -9.043  14.853  1.00  0.00    -0.356 OA
HETATM   31  C   UNL     1      41.066  -8.005  15.811  1.00  0.00     0.210 C 
ENDBRANCH  26  30
ENDBRANCH   1  20
TORSDOF 8
ENDMDL
MODEL 2
REMARK VINA RESULT:      -8.6      1.830      2.149
REMARK  8 active torsions:
REMARK  status: ('A' for Active; 'I' for Inactive)
REMARK    1  A    between atoms: O_2  and  C_3 
REMARK    2  A    between atoms: C_11  and  C_12 
REMARK       I    between atoms: C_12  and  N_13 
REMARK    3  A    between atoms: N_13  and  C_14 
REMARK    4  A    between atoms: C_14  and  C_15 
REMARK    5  A    between atoms: C_15  and  C_16 
REMARK    6  A    between atoms: C_16  and  C_17 
REMARK    7  A    between atoms: C_17  and  O_18 
REMARK    8  A    between atoms: O_18  and  C_19 
ROOT
HETATM    1  C   UNL     1      44.467 -10.270   9.878  1.00  0.00     0.268 C 
HETATM    2  N   UNL     1      44.205 -10.239   8.532  1.00  0.00    -0.345 N 
HETATM    3  O   UNL     1      45.449 -10.840  10.345  1.00  0.00    -0.266 OA
HETATM    4  H   UNL     1      43.345  -9.834   8.194  1.00  0.00     0.163 HD
ENDROOT
BRANCH   2   5
HETATM    5  C   UNL     1      45.023 -10.976   7.607  1.00  0.00     0.217 C 
BRANCH   5   6
HETATM    6  C   UNL     1      44.262 -12.188   7.098  1.00  0.00    -0.085 C 
BRANCH   6   7
HETATM    7  C   UNL     1      43.609 -13.229   6.662  1.00  0.00    -0.078 C 
BRANCH   7   8
HETATM    8  C   UNL     1      42.848 -14.443   6.155  1.00  0.00     0.269 C 
BRANCH   8   9
HETATM    9  O   UNL     1      43.080 -14.564   4.754  1.00  0.00    -0.339 OA
BRANCH   9  10
HETATM   10  C   UNL     1      43.224 -15.830   4.256  1.00  0.00     0.072 A 
HETATM   11  C   UNL     1      43.530 -16.977   4.992  1.00  0.00     0.069 A 
HETATM   12  C   UNL     1      43.659 -18.220   4.386  1.00  0.00     0.069 A 
HETATM   13  C   UNL     1      43.472 -18.315   2.991  1.00  0.00    -0.007 A 
HETATM   14  N   UNL     1      43.959 -19.291   5.143  1.00  0.00    -0.260 NA
HETATM   15  C   UNL     1      43.160 -17.169   2.243  1.00  0.00     0.016 A 
HETATM   16  C   UNL     1      43.605 -19.574   2.390  1.00  0.00     0.015 A 
HETATM   17  C   UNL     1      43.038 -15.934   2.878  1.00  0.00     0.038 A 
HETATM   18  C   UNL     1      43.916 -20.680   3.171  1.00  0.00     0.020 A 
HETATM   19  C   UNL     1      44.081 -20.489   4.529  1.00  0.00     0.117 A 
ENDBRANCH   9  10
ENDBRANCH   8   9
ENDBRANCH   7   8
ENDBRANCH   6   7
ENDBRANCH   5   6
ENDBRANCH   2   5
BRANCH   1  20
HETATM   20  C   UNL     1      43.512  -9.584  10.717  1.00  0.00     0.102 A 
HETATM   21  N   UNL     1      42.157  -9.774  10.547  1.00  0.00    -0.351 N 
HETATM   22  C   UNL     1      41.433  -9.039  11.454  1.00  0.00     0.045 A 
HETATM   23  H   UNL     1      41.767 -10.388   9.843  1.00  0.00     0.166 HD
HETATM   24  C   UNL     1      40.045  -8.952  11.645  1.00  0.00     0.067 A 
HETATM   25  C   UNL     1      42.350  -8.330  12.223  1.00  0.00    -0.007 A 
HETATM   26  C   UNL     1      39.582  -8.106  12.659  1.00  0.00     0.070 A 
HETATM   27  C   UNL     1      40.486  -7.373  13.431  1.00  0.00     0.038 A 
HETATM   28  C   UNL     1      41.869  -7.475  13.229  1.00  0.00     0.016 A 
HETATM   29  C   UNL     1      43.650  -8.682  11.758  1.00  0.00     0.049 A 
BRANCH  26  30
HETATM   30  O   UNL     1      38.266  -7.906  12.987  1.00  0.00    -0.356 OA
HETATM   31  C   UNL     1      37.811  -6.560  13.021  1.00  0.00     0.210 C 
ENDBRANCH  26  30
ENDBRANCH   1  20
TORSDOF 8
ENDMDL
MODEL 3
REMARK VINA RESULT:      -8.5      1.850      2.266
REMARK  8 active torsions:
REMARK  status: ('A' for Active; 'I' for Inactive)
REMARK    1  A    between atoms: O_2  and  C_3 
REMARK    2  A    between atoms: C_11  and  C_12 
REMARK       I    between atoms: C_12  and  N_13 
REMARK    3  A    between atoms: N_13  and  C_14 
REMARK    4  A    between atoms: C_14  and  C_15 
REMARK    5  A    between atoms: C_15  and  C_16 
REMARK    6  A    between atoms: C_16  and  C_17 
REMARK    7  A    between atoms: C_17  and  O_18 
REMARK    8  A    between atoms: O_18  and  C_19 
ROOT
HETATM    1  C   UNL     1      44.514  -8.953   9.036  1.00  0.00     0.268 C 
HETATM    2  N   UNL     1      44.498 -10.307   8.819  1.00  0.00    -0.345 N 
HETATM    3  O   UNL     1      45.033  -8.166   8.251  1.00  0.00    -0.266 OA
HETATM    4  H   UNL     1      44.137 -10.928   9.528  1.00  0.00     0.163 HD
ENDROOT
BRANCH   2   5
HETATM    5  C   UNL     1      45.193 -10.880   7.700  1.00  0.00     0.217 C 
BRANCH   5   6
HETATM    6  C   UNL     1      44.398 -12.047   7.140  1.00  0.00    -0.085 C 
BRANCH   6   7
HETATM    7  C   UNL     1      43.716 -13.050   6.661  1.00  0.00    -0.078 C 
BRANCH   7   8
HETATM    8  C   UNL     1      42.920 -14.217   6.102  1.00  0.00     0.269 C 
BRANCH   8   9
HETATM    9  O   UNL     1      43.199 -14.322   4.708  1.00  0.00    -0.339 OA
BRANCH   9  10
HETATM   10  C   UNL     1      43.245 -15.583   4.178  1.00  0.00     0.072 A 
HETATM   11  C   UNL     1      43.676 -16.739   4.834  1.00  0.00     0.069 A 
HETATM   12  C   UNL     1      43.688 -17.975   4.200  1.00  0.00     0.069 A 
HETATM   13  C   UNL     1      43.250 -18.053   2.861  1.00  0.00    -0.007 A 
HETATM   14  N   UNL     1      44.116 -19.056   4.878  1.00  0.00    -0.260 NA
HETATM   15  C   UNL     1      42.812 -16.899   2.195  1.00  0.00     0.016 A 
HETATM   16  C   UNL     1      43.267 -19.305   2.233  1.00  0.00     0.015 A 
HETATM   17  C   UNL     1      42.811 -15.671   2.856  1.00  0.00     0.038 A 
HETATM   18  C   UNL     1      43.710 -20.421   2.931  1.00  0.00     0.020 A 
HETATM   19  C   UNL     1      44.119 -20.246   4.239  1.00  0.00     0.117 A 
ENDBRANCH   9  10
ENDBRANCH   8   9
ENDBRANCH   7   8
ENDBRANCH   6   7
ENDBRANCH   5   6
ENDBRANCH   2   5
BRANCH   1  20
HETATM   20  C   UNL     1      43.876  -8.506  10.253  1.00  0.00     0.102 A 
HETATM   21  N   UNL     1      43.074  -7.384  10.260  1.00  0.00    -0.351 N 
HETATM   22  C   UNL     1      42.560  -7.147  11.511  1.00  0.00     0.045 A 
HETATM   23  H   UNL     1      42.894  -6.826   9.435  1.00  0.00     0.166 HD
HETATM   24  C   UNL     1      41.694  -6.136  11.957  1.00  0.00     0.067 A 
HETATM   25  C   UNL     1      43.065  -8.135  12.350  1.00  0.00    -0.007 A 
HETATM   26  C   UNL     1      41.335  -6.139  13.309  1.00  0.00     0.070 A 
HETATM   27  C   UNL     1      41.844  -7.113  14.170  1.00  0.00     0.038 A 
HETATM   28  C   UNL     1      42.706  -8.117  13.709  1.00  0.00     0.016 A 
HETATM   29  C   UNL     1      43.884  -8.986  11.552  1.00  0.00     0.049 A 
BRANCH  26  30
HETATM   30  O   UNL     1      40.497  -5.236  13.910  1.00  0.00    -0.356 OA
HETATM   31  C   UNL     1      40.398  -5.297  15.327  1.00  0.00     0.210 C 
ENDBRANCH  26  30
ENDBRANCH   1  20
TORSDOF 8
ENDMDL
MODEL 4
REMARK VINA RESULT:      -8.4      1.684      2.102
REMARK  8 active torsions:
REMARK  status: ('A' for Active; 'I' for Inactive)
REMARK    1  A    between atoms: O_2  and  C_3 
REMARK    2  A    between atoms: C_11  and  C_12 
REMARK       I    between atoms: C_12  and  N_13 
REMARK    3  A    between atoms: N_13  and  C_14 
REMARK    4  A    between atoms: C_14  and  C_15 
REMARK    5  A    between atoms: C_15  and  C_16 
REMARK    6  A    between atoms: C_16  and  C_17 
REMARK    7  A    between atoms: C_17  and  O_18 
REMARK    8  A    between atoms: O_18  and  C_19 
ROOT
HETATM    1  C   UNL     1      44.361 -10.164   9.737  1.00  0.00     0.268 C 
HETATM    2  N   UNL     1      44.012 -10.231   8.412  1.00  0.00    -0.345 N 
HETATM    3  O   UNL     1      45.453 -10.542  10.151  1.00  0.00    -0.266 OA
HETATM    4  H   UNL     1      43.075  -9.990   8.124  1.00  0.00     0.163 HD
ENDROOT
BRANCH   2   5
HETATM    5  C   UNL     1      44.882 -10.856   7.454  1.00  0.00     0.217 C 
BRANCH   5   6
HETATM    6  C   UNL     1      44.301 -12.194   7.027  1.00  0.00    -0.085 C 
BRANCH   6   7
HETATM    7  C   UNL     1      43.804 -13.343   6.661  1.00  0.00    -0.078 C 
BRANCH   7   8
HETATM    8  C   UNL     1      43.225 -14.681   6.235  1.00  0.00     0.269 C 
BRANCH   8   9
HETATM    9  O   UNL     1      43.211 -14.730   4.811  1.00  0.00    -0.339 OA
BRANCH   9  10
HETATM   10  C   UNL     1      43.279 -15.968   4.232  1.00  0.00     0.072 A 
HETATM   11  C   UNL     1      43.647 -17.157   4.867  1.00  0.00     0.069 A 
HETATM   12  C   UNL     1      43.690 -18.366   4.183  1.00  0.00     0.069 A 
HETATM   13  C   UNL     1      43.348 -18.382   2.815  1.00  0.00    -0.007 A 
HETATM   14  N   UNL     1      44.055 -19.480   4.844  1.00  0.00    -0.260 NA
HETATM   15  C   UNL     1      42.974 -17.194   2.169  1.00  0.00     0.016 A 
HETATM   16  C   UNL     1      43.395 -19.607   2.136  1.00  0.00     0.015 A 
HETATM   17  C   UNL     1      42.941 -15.995   2.879  1.00  0.00     0.038 A 
HETATM   18  C   UNL     1      43.773 -20.758   2.816  1.00  0.00     0.020 A 
HETATM   19  C   UNL     1      44.089 -20.643   4.156  1.00  0.00     0.117 A 
ENDBRANCH   9  10
ENDBRANCH   8   9
ENDBRANCH   7   8
ENDBRANCH   6   7
ENDBRANCH   5   6
ENDBRANCH   2   5
BRANCH   1  20
HETATM   20  C   UNL     1      43.359  -9.614  10.621  1.00  0.00     0.102 A 
HETATM   21  N   UNL     1      43.697  -9.168  11.881  1.00  0.00    -0.351 N 
HETATM   22  C   UNL     1      42.601  -8.676  12.546  1.00  0.00     0.045 A 
HETATM   23  H   UNL     1      44.640  -9.200  12.247  1.00  0.00     0.166 HD
HETATM   24  C   UNL     1      42.498  -8.111  13.828  1.00  0.00     0.067 A 
HETATM   25  C   UNL     1      41.510  -8.830  11.697  1.00  0.00    -0.007 A 
HETATM   26  C   UNL     1      41.232  -7.693  14.252  1.00  0.00     0.070 A 
HETATM   27  C   UNL     1      40.122  -7.854  13.420  1.00  0.00     0.038 A 
HETATM   28  C   UNL     1      40.243  -8.417  12.143  1.00  0.00     0.016 A 
HETATM   29  C   UNL     1      41.996  -9.414  10.491  1.00  0.00     0.049 A 
BRANCH  26  30
HETATM   30  O   UNL     1      40.951  -7.117  15.464  1.00  0.00    -0.356 OA
HETATM   31  C   UNL     1      42.061  -6.716  16.256  1.00  0.00     0.210 C 
ENDBRANCH  26  30
ENDBRANCH   1  20
TORSDOF 8
ENDMDL
MODEL 5
REMARK VINA RESULT:      -8.4      1.580      1.751
REMARK  8 active torsions:
REMARK  status: ('A' for Active; 'I' for Inactive)
REMARK    1  A    between atoms: O_2  and  C_3 
REMARK    2  A    between atoms: C_11  and  C_12 
REMARK       I    between atoms: C_12  and  N_13 
REMARK    3  A    between atoms: N_13  and  C_14 
REMARK    4  A    between atoms: C_14  and  C_15 
REMARK    5  A    between atoms: C_15  and  C_16 
REMARK    6  A    between atoms: C_16  and  C_17 
REMARK    7  A    between atoms: C_17  and  O_18 
REMARK    8  A    between atoms: O_18  and  C_19 
ROOT
HETATM    1  C   UNL     1      45.260  -9.849   8.090  1.00  0.00     0.268 C 
HETATM    2  N   UNL     1      44.792 -10.876   7.311  1.00  0.00    -0.345 N 
HETATM    3  O   UNL     1      46.251  -9.190   7.788  1.00  0.00    -0.266 OA
HETATM    4  H   UNL     1      44.027 -11.448   7.636  1.00  0.00     0.163 HD
ENDROOT
BRANCH   2   5
HETATM    5  C   UNL     1      45.516 -11.301   6.144  1.00  0.00     0.217 C 
BRANCH   5   6
HETATM    6  C   UNL     1      44.545 -11.584   5.010  1.00  0.00    -0.085 C 
BRANCH   6   7
HETATM    7  C   UNL     1      43.713 -11.826   4.035  1.00  0.00    -0.078 C 
BRANCH   7   8
HETATM    8  C   UNL     1      42.743 -12.107   2.900  1.00  0.00     0.269 C 
BRANCH   8   9
HETATM    9  O   UNL     1      41.865 -13.152   3.311  1.00  0.00    -0.339 OA
BRANCH   9  10
HETATM   10  C   UNL     1      42.342 -14.431   3.230  1.00  0.00     0.072 A 
HETATM   11  C   UNL     1      42.630 -15.274   4.307  1.00  0.00     0.069 A 
HETATM   12  C   UNL     1      43.118 -16.561   4.116  1.00  0.00     0.069 A 
HETATM   13  C   UNL     1      43.323 -17.018   2.797  1.00  0.00    -0.007 A 
HETATM   14  N   UNL     1      43.382 -17.328   5.189  1.00  0.00    -0.260 NA
HETATM   15  C   UNL     1      43.033 -16.180   1.709  1.00  0.00     0.016 A 
HETATM   16  C   UNL     1      43.816 -18.317   2.617  1.00  0.00     0.015 A 
HETATM   17  C   UNL     1      42.545 -14.894   1.931  1.00  0.00     0.038 A 
HETATM   18  C   UNL     1      44.089 -19.110   3.724  1.00  0.00     0.020 A 
HETATM   19  C   UNL     1      43.857 -18.575   4.977  1.00  0.00     0.117 A 
ENDBRANCH   9  10
ENDBRANCH   8   9
ENDBRANCH   7   8
ENDBRANCH   6   7
ENDBRANCH   5   6
ENDBRANCH   2   5
BRANCH   1  20
HETATM   20  C   UNL     1      44.509  -9.586   9.297  1.00  0.00     0.102 A 
HETATM   21  N   UNL     1      43.187  -9.964   9.402  1.00  0.00    -0.351 N 
HETATM   22  C   UNL     1      42.671  -9.631  10.631  1.00  0.00     0.045 A 
HETATM   23  H   UNL     1      42.683 -10.433   8.661  1.00  0.00     0.166 HD
HETATM   24  C   UNL     1      41.389  -9.845  11.161  1.00  0.00     0.067 A 
HETATM   25  C   UNL     1      43.686  -8.995  11.337  1.00  0.00    -0.007 A 
HETATM   26  C   UNL     1      41.140  -9.389  12.460  1.00  0.00     0.070 A 
HETATM   27  C   UNL     1      42.141  -8.733  13.180  1.00  0.00     0.038 A 
HETATM   28  C   UNL     1      43.417  -8.530  12.636  1.00  0.00     0.016 A 
HETATM   29  C   UNL     1      44.836  -8.976  10.496  1.00  0.00     0.049 A 
BRANCH  26  30
HETATM   30  O   UNL     1      39.953  -9.519  13.134  1.00  0.00    -0.356 OA
HETATM   31  C   UNL     1      39.324 -10.793  13.085  1.00  0.00     0.210 C 
ENDBRANCH  26  30
ENDBRANCH   1  20
TORSDOF 8
ENDMDL
MODEL 6
REMARK VINA RESULT:      -8.0      2.117     11.074
REMARK  8 active torsions:
REMARK  status: ('A' for Active; 'I' for Inactive)
REMARK    1  A    between atoms: O_2  and  C_3 
REMARK    2  A    between atoms: C_11  and  C_12 
REMARK       I    between atoms: C_12  and  N_13 
REMARK    3  A    between atoms: N_13  and  C_14 
REMARK    4  A    between atoms: C_14  and  C_15 
REMARK    5  A    between atoms: C_15  and  C_16 
REMARK    6  A    between atoms: C_16  and  C_17 
REMARK    7  A    between atoms: C_17  and  O_18 
REMARK    8  A    between atoms: O_18  and  C_19 
ROOT
HETATM    1  C   UNL     1      42.464 -13.550   4.154  1.00  0.00     0.268 C 
HETATM    2  N   UNL     1      43.427 -12.641   3.795  1.00  0.00    -0.345 N 
HETATM    3  O   UNL     1      41.453 -13.229   4.772  1.00  0.00    -0.266 OA
HETATM    4  H   UNL     1      44.283 -12.956   3.364  1.00  0.00     0.163 HD
ENDROOT
BRANCH   2   5
HETATM    5  C   UNL     1      43.343 -11.273   4.228  1.00  0.00     0.217 C 
BRANCH   5   6
HETATM    6  C   UNL     1      44.009 -11.120   5.585  1.00  0.00    -0.085 C 
BRANCH   6   7
HETATM    7  C   UNL     1      44.581 -10.988   6.750  1.00  0.00    -0.078 C 
BRANCH   7   8
HETATM    8  C   UNL     1      45.248 -10.833   8.106  1.00  0.00     0.269 C 
BRANCH   8   9
HETATM    9  O   UNL     1      44.338 -11.284   9.106  1.00  0.00    -0.339 OA
BRANCH   9  10
HETATM   10  C   UNL     1      43.924 -10.363  10.029  1.00  0.00     0.072 A 
HETATM   11  C   UNL     1      43.398 -10.640  11.293  1.00  0.00     0.069 A 
HETATM   12  C   UNL     1      43.000  -9.626  12.156  1.00  0.00     0.069 A 
HETATM   13  C   UNL     1      43.138  -8.287  11.735  1.00  0.00    -0.007 A 
HETATM   14  N   UNL     1      42.497  -9.951  13.361  1.00  0.00    -0.260 NA
HETATM   15  C   UNL     1      43.668  -7.998  10.469  1.00  0.00     0.016 A 
HETATM   16  C   UNL     1      42.733  -7.274  12.614  1.00  0.00     0.015 A 
HETATM   17  C   UNL     1      44.058  -9.036   9.623  1.00  0.00     0.038 A 
HETATM   18  C   UNL     1      42.212  -7.607  13.858  1.00  0.00     0.020 A 
HETATM   19  C   UNL     1      42.116  -8.947  14.181  1.00  0.00     0.117 A 
ENDBRANCH   9  10
ENDBRANCH   8   9
ENDBRANCH   7   8
ENDBRANCH   6   7
ENDBRANCH   5   6
ENDBRANCH   2   5
BRANCH   1  20
HETATM   20  C   UNL     1      42.713 -14.916   3.755  1.00  0.00     0.102 A 
HETATM   21  N   UNL     1      43.196 -15.839   4.659  1.00  0.00    -0.351 N 
HETATM   22  C   UNL     1      43.348 -17.073   4.077  1.00  0.00     0.045 A 
HETATM   23  H   UNL     1      43.397 -15.617   5.625  1.00  0.00     0.166 HD
HETATM   24  C   UNL     1      43.787 -18.287   4.629  1.00  0.00     0.067 A 
HETATM   25  C   UNL     1      42.974 -16.941   2.743  1.00  0.00    -0.007 A 
HETATM   26  C   UNL     1      43.846 -19.401   3.785  1.00  0.00     0.070 A 
HETATM   27  C   UNL     1      43.491 -19.284   2.440  1.00  0.00     0.038 A 
HETATM   28  C   UNL     1      43.051 -18.066   1.904  1.00  0.00     0.016 A 
HETATM   29  C   UNL     1      42.572 -15.587   2.552  1.00  0.00     0.049 A 
BRANCH  26  30
HETATM   30  O   UNL     1      44.244 -20.659   4.157  1.00  0.00    -0.356 OA
HETATM   31  C   UNL     1      44.315 -20.923   5.553  1.00  0.00     0.210 C 
ENDBRANCH  26  30
ENDBRANCH   1  20
TORSDOF 8
ENDMDL
MODEL 7
REMARK VINA RESULT:      -7.7      2.675     11.178
REMARK  8 active torsions:
REMARK  status: ('A' for Active; 'I' for Inactive)
REMARK    1  A    between atoms: O_2  and  C_3 
REMARK    2  A    between atoms: C_11  and  C_12 
REMARK       I    between atoms: C_12  and  N_13 
REMARK    3  A    between atoms: N_13  and  C_14 
REMARK    4  A    between atoms: C_14  and  C_15 
REMARK    5  A    between atoms: C_15  and  C_16 
REMARK    6  A    between atoms: C_16  and  C_17 
REMARK    7  A    between atoms: C_17  and  O_18 
REMARK    8  A    between atoms: O_18  and  C_19 
ROOT
HETATM    1  C   UNL     1      42.405 -13.442   2.396  1.00  0.00     0.268 C 
HETATM    2  N   UNL     1      43.289 -12.569   2.977  1.00  0.00    -0.345 N 
HETATM    3  O   UNL     1      41.405 -13.065   1.794  1.00  0.00    -0.266 OA
HETATM    4  H   UNL     1      44.052 -12.920   3.535  1.00  0.00     0.163 HD
ENDROOT
BRANCH   2   5
HETATM    5  C   UNL     1      43.019 -11.158   2.998  1.00  0.00     0.217 C 
BRANCH   5   6
HETATM    6  C   UNL     1      42.726 -10.710   4.421  1.00  0.00    -0.085 C 
BRANCH   6   7
HETATM    7  C   UNL     1      42.474 -10.327   5.641  1.00  0.00    -0.078 C 
BRANCH   7   8
HETATM    8  C   UNL     1      42.180  -9.880   7.063  1.00  0.00     0.269 C 
BRANCH   8   9
HETATM    9  O   UNL     1      43.373  -9.331   7.616  1.00  0.00    -0.339 OA
BRANCH   9  10
HETATM   10  C   UNL     1      43.332  -8.956   8.932  1.00  0.00     0.072 A 
HETATM   11  C   UNL     1      42.599  -7.892   9.463  1.00  0.00     0.069 A 
HETATM   12  C   UNL     1      42.631  -7.590  10.819  1.00  0.00     0.069 A 
HETATM   13  C   UNL     1      43.426  -8.385  11.671  1.00  0.00    -0.007 A 
HETATM   14  N   UNL     1      41.907  -6.552  11.277  1.00  0.00    -0.260 NA
HETATM   15  C   UNL     1      44.163  -9.458  11.147  1.00  0.00     0.016 A 
HETATM   16  C   UNL     1      43.450  -8.071  13.036  1.00  0.00     0.015 A 
HETATM   17  C   UNL     1      44.113  -9.737   9.782  1.00  0.00     0.038 A 
HETATM   18  C   UNL     1      42.704  -6.999  13.510  1.00  0.00     0.020 A 
HETATM   19  C   UNL     1      41.956  -6.278  12.599  1.00  0.00     0.117 A 
ENDBRANCH   9  10
ENDBRANCH   8   9
ENDBRANCH   7   8
ENDBRANCH   6   7
ENDBRANCH   5   6
ENDBRANCH   2   5
BRANCH   1  20
HETATM   20  C   UNL     1      42.728 -14.844   2.535  1.00  0.00     0.102 A 
HETATM   21  N   UNL     1      43.139 -15.357   3.747  1.00  0.00    -0.351 N 
HETATM   22  C   UNL     1      43.381 -16.707   3.660  1.00  0.00     0.045 A 
HETATM   23  H   UNL     1      43.235 -14.797   4.584  1.00  0.00     0.166 HD
HETATM   24  C   UNL     1      43.792 -17.618   4.646  1.00  0.00     0.067 A 
HETATM   25  C   UNL     1      43.142 -17.076   2.340  1.00  0.00    -0.007 A 
HETATM   26  C   UNL     1      43.965 -18.952   4.264  1.00  0.00     0.070 A 
HETATM   27  C   UNL     1      43.746 -19.340   2.940  1.00  0.00     0.038 A 
HETATM   28  C   UNL     1      43.333 -18.418   1.969  1.00  0.00     0.016 A 
HETATM   29  C   UNL     1      42.728 -15.904   1.644  1.00  0.00     0.049 A 
BRANCH  26  30
HETATM   30  O   UNL     1      44.354 -19.972   5.094  1.00  0.00    -0.356 OA
HETATM   31  C   UNL     1      43.618 -20.132   6.300  1.00  0.00     0.210 C 
ENDBRANCH  26  30
ENDBRANCH   1  20
TORSDOF 8
ENDMDL
MODEL 8
REMARK VINA RESULT:      -7.7      2.232     11.227
REMARK  8 active torsions:
REMARK  status: ('A' for Active; 'I' for Inactive)
REMARK    1  A    between atoms: O_2  and  C_3 
REMARK    2  A    between atoms: C_11  and  C_12 
REMARK       I    between atoms: C_12  and  N_13 
REMARK    3  A    between atoms: N_13  and  C_14 
REMARK    4  A    between atoms: C_14  and  C_15 
REMARK    5  A    between atoms: C_15  and  C_16 
REMARK    6  A    between atoms: C_16  and  C_17 
REMARK    7  A    between atoms: C_17  and  O_18 
REMARK    8  A    between atoms: O_18  and  C_19 
ROOT
HETATM    1  C   UNL     1      40.909 -13.388   5.731  1.00  0.00     0.268 C 
HETATM    2  N   UNL     1      41.437 -12.171   5.383  1.00  0.00    -0.345 N 
HETATM    3  O   UNL     1      39.869 -13.496   6.373  1.00  0.00    -0.266 OA
HETATM    4  H   UNL     1      42.337 -12.122   4.930  1.00  0.00     0.163 HD
ENDROOT
BRANCH   2   5
HETATM    5  C   UNL     1      40.842 -10.951   5.854  1.00  0.00     0.217 C 
BRANCH   5   6
HETATM    6  C   UNL     1      41.850 -10.172   6.684  1.00  0.00    -0.085 C 
BRANCH   6   7
HETATM    7  C   UNL     1      42.715  -9.504   7.394  1.00  0.00    -0.078 C 
BRANCH   7   8
HETATM    8  C   UNL     1      43.724  -8.726   8.221  1.00  0.00     0.269 C 
BRANCH   8   9
HETATM    9  O   UNL     1      44.163  -9.558   9.292  1.00  0.00    -0.339 OA
BRANCH   9  10
HETATM   10  C   UNL     1      43.630  -9.312  10.528  1.00  0.00     0.072 A 
HETATM   11  C   UNL     1      43.331  -8.057  11.062  1.00  0.00     0.069 A 
HETATM   12  C   UNL     1      42.795  -7.915  12.336  1.00  0.00     0.069 A 
HETATM   13  C   UNL     1      42.549  -9.076  13.099  1.00  0.00    -0.007 A 
HETATM   14  N   UNL     1      42.529  -6.681  12.803  1.00  0.00    -0.260 NA
HETATM   15  C   UNL     1      42.842 -10.342  12.570  1.00  0.00     0.016 A 
HETATM   16  C   UNL     1      42.008  -8.921  14.382  1.00  0.00     0.015 A 
HETATM   17  C   UNL     1      43.381 -10.454  11.289  1.00  0.00     0.038 A 
HETATM   18  C   UNL     1      41.734  -7.647  14.866  1.00  0.00     0.020 A 
HETATM   19  C   UNL     1      42.009  -6.571  14.045  1.00  0.00     0.117 A 
ENDBRANCH   9  10
ENDBRANCH   8   9
ENDBRANCH   7   8
ENDBRANCH   6   7
ENDBRANCH   5   6
ENDBRANCH   2   5
BRANCH   1  20
HETATM   20  C   UNL     1      41.657 -14.543   5.291  1.00  0.00     0.102 A 
HETATM   21  N   UNL     1      41.313 -15.209   4.134  1.00  0.00    -0.351 N 
HETATM   22  C   UNL     1      42.158 -16.265   3.896  1.00  0.00     0.045 A 
HETATM   23  H   UNL     1      40.537 -14.934   3.545  1.00  0.00     0.166 HD
HETATM   24  C   UNL     1      42.181 -17.185   2.836  1.00  0.00     0.067 A 
HETATM   25  C   UNL     1      43.068 -16.299   4.948  1.00  0.00    -0.007 A 
HETATM   26  C   UNL     1      43.171 -18.174   2.857  1.00  0.00     0.070 A 
HETATM   27  C   UNL     1      44.083 -18.235   3.912  1.00  0.00     0.038 A 
HETATM   28  C   UNL     1      44.047 -17.308   4.962  1.00  0.00     0.016 A 
HETATM   29  C   UNL     1      42.750 -15.214   5.814  1.00  0.00     0.049 A 
BRANCH  26  30
HETATM   30  O   UNL     1      43.344 -19.144   1.903  1.00  0.00    -0.356 OA
HETATM   31  C   UNL     1      43.670 -20.448   2.367  1.00  0.00     0.210 C 
ENDBRANCH  26  30
ENDBRANCH   1  20
TORSDOF 8
ENDMDL
MODEL 9
REMARK VINA RESULT:      -7.5      2.569     10.950
REMARK  8 active torsions:
REMARK  status: ('A' for Active; 'I' for Inactive)
REMARK    1  A    between atoms: O_2  and  C_3 
REMARK    2  A    between atoms: C_11  and  C_12 
REMARK       I    between atoms: C_12  and  N_13 
REMARK    3  A    between atoms: N_13  and  C_14 
REMARK    4  A    between atoms: C_14  and  C_15 
REMARK    5  A    between atoms: C_15  and  C_16 
REMARK    6  A    between atoms: C_16  and  C_17 
REMARK    7  A    between atoms: C_17  and  O_18 
REMARK    8  A    between atoms: O_18  and  C_19 
ROOT
HETATM    1  C   UNL     1      41.696 -13.001   3.410  1.00  0.00     0.268 C 
HETATM    2  N   UNL     1      42.589 -11.961   3.348  1.00  0.00    -0.345 N 
HETATM    3  O   UNL     1      40.485 -12.838   3.295  1.00  0.00    -0.266 OA
HETATM    4  H   UNL     1      43.567 -12.123   3.533  1.00  0.00     0.163 HD
ENDROOT
BRANCH   2   5
HETATM    5  C   UNL     1      42.128 -10.603   3.251  1.00  0.00     0.217 C 
BRANCH   5   6
HETATM    6  C   UNL     1      41.989 -10.004   4.640  1.00  0.00    -0.085 C 
BRANCH   6   7
HETATM    7  C   UNL     1      41.868  -9.490   5.833  1.00  0.00    -0.078 C 
BRANCH   7   8
HETATM    8  C   UNL     1      41.729  -8.892   7.222  1.00  0.00     0.269 C 
BRANCH   8   9
HETATM    9  O   UNL     1      42.834  -9.328   8.010  1.00  0.00    -0.339 OA
BRANCH   9  10
HETATM   10  C   UNL     1      42.713  -9.209   9.368  1.00  0.00     0.072 A 
HETATM   11  C   UNL     1      41.537  -9.356  10.108  1.00  0.00     0.069 A 
HETATM   12  C   UNL     1      41.522  -9.209  11.489  1.00  0.00     0.069 A 
HETATM   13  C   UNL     1      42.730  -8.905  12.151  1.00  0.00    -0.007 A 
HETATM   14  N   UNL     1      40.360  -9.358  12.152  1.00  0.00    -0.260 NA
HETATM   15  C   UNL     1      43.917  -8.759  11.416  1.00  0.00     0.016 A 
HETATM   16  C   UNL     1      42.702  -8.758  13.544  1.00  0.00     0.015 A 
HETATM   17  C   UNL     1      43.903  -8.911  10.031  1.00  0.00     0.038 A 
HETATM   18  C   UNL     1      41.504  -8.911  14.229  1.00  0.00     0.020 A 
HETATM   19  C   UNL     1      40.372  -9.208  13.495  1.00  0.00     0.117 A 
ENDBRANCH   9  10
ENDBRANCH   8   9
ENDBRANCH   7   8
ENDBRANCH   6   7
ENDBRANCH   5   6
ENDBRANCH   2   5
BRANCH   1  20
HETATM   20  C   UNL     1      42.274 -14.309   3.620  1.00  0.00     0.102 A 
HETATM   21  N   UNL     1      42.178 -15.286   2.653  1.00  0.00    -0.351 N 
HETATM   22  C   UNL     1      42.803 -16.443   3.050  1.00  0.00     0.045 A 
HETATM   23  H   UNL     1      41.710 -15.147   1.766  1.00  0.00     0.166 HD
HETATM   24  C   UNL     1      42.960 -17.664   2.375  1.00  0.00     0.067 A 
HETATM   25  C   UNL     1      43.300 -16.215   4.329  1.00  0.00    -0.007 A 
HETATM   26  C   UNL     1      43.650 -18.686   3.036  1.00  0.00     0.070 A 
HETATM   27  C   UNL     1      44.143 -18.482   4.327  1.00  0.00     0.038 A 
HETATM   28  C   UNL     1      43.979 -17.256   4.985  1.00  0.00     0.016 A 
HETATM   29  C   UNL     1      42.969 -14.873   4.675  1.00  0.00     0.049 A 
BRANCH  26  30
HETATM   30  O   UNL     1      43.900 -19.934   2.526  1.00  0.00    -0.356 OA
HETATM   31  C   UNL     1      43.932 -21.011   3.454  1.00  0.00     0.210 C 
ENDBRANCH  26  30
ENDBRANCH   1  20
TORSDOF 8
ENDMDL
MODEL 10
REMARK VINA RESULT:      -7.5      2.553      3.014
REMARK  8 active torsions:
REMARK  status: ('A' for Active; 'I' for Inactive)
REMARK    1  A    between atoms: O_2  and  C_3 
REMARK    2  A    between atoms: C_11  and  C_12 
REMARK       I    between atoms: C_12  and  N_13 
REMARK    3  A    between atoms: N_13  and  C_14 
REMARK    4  A    between atoms: C_14  and  C_15 
REMARK    5  A    between atoms: C_15  and  C_16 
REMARK    6  A    between atoms: C_16  and  C_17 
REMARK    7  A    between atoms: C_17  and  O_18 
REMARK    8  A    between atoms: O_18  and  C_19 
ROOT
HETATM    1  C   UNL     1      39.379  -8.906   9.175  1.00  0.00     0.268 C 
HETATM    2  N   UNL     1      39.830  -9.966   8.432  1.00  0.00    -0.345 N 
HETATM    3  O   UNL     1      38.562  -8.098   8.743  1.00  0.00    -0.266 OA
HETATM    4  H   UNL     1      40.564 -10.558   8.790  1.00  0.00     0.163 HD
ENDROOT
BRANCH   2   5
HETATM    5  C   UNL     1      39.441 -10.117   7.057  1.00  0.00     0.217 C 
BRANCH   5   6
HETATM    6  C   UNL     1      39.764 -11.523   6.580  1.00  0.00    -0.085 C 
BRANCH   6   7
HETATM    7  C   UNL     1      40.042 -12.730   6.172  1.00  0.00    -0.078 C 
BRANCH   7   8
HETATM    8  C   UNL     1      40.367 -14.136   5.698  1.00  0.00     0.269 C 
BRANCH   8   9
HETATM    9  O   UNL     1      41.132 -14.039   4.499  1.00  0.00    -0.339 OA
BRANCH   9  10
HETATM   10  C   UNL     1      41.652 -15.202   3.998  1.00  0.00     0.072 A 
HETATM   11  C   UNL     1      42.566 -16.041   4.640  1.00  0.00     0.069 A 
HETATM   12  C   UNL     1      43.037 -17.202   4.039  1.00  0.00     0.069 A 
HETATM   13  C   UNL     1      42.572 -17.532   2.748  1.00  0.00    -0.007 A 
HETATM   14  N   UNL     1      43.920 -17.972   4.701  1.00  0.00    -0.260 NA
HETATM   15  C   UNL     1      41.651 -16.697   2.097  1.00  0.00     0.016 A 
HETATM   16  C   UNL     1      43.055 -18.704   2.152  1.00  0.00     0.015 A 
HETATM   17  C   UNL     1      41.196 -15.538   2.724  1.00  0.00     0.038 A 
HETATM   18  C   UNL     1      43.967 -19.500   2.835  1.00  0.00     0.020 A 
HETATM   19  C   UNL     1      44.363 -19.094   4.094  1.00  0.00     0.117 A 
ENDBRANCH   9  10
ENDBRANCH   8   9
ENDBRANCH   7   8
ENDBRANCH   6   7
ENDBRANCH   5   6
ENDBRANCH   2   5
BRANCH   1  20
HETATM   20  C   UNL     1      39.926  -8.798  10.508  1.00  0.00     0.102 A 
HETATM   21  N   UNL     1      39.395  -7.911  11.421  1.00  0.00    -0.351 N 
HETATM   22  C   UNL     1      40.054  -7.980  12.624  1.00  0.00     0.045 A 
HETATM   23  H   UNL     1      38.614  -7.302  11.213  1.00  0.00     0.166 HD
HETATM   24  C   UNL     1      39.832  -7.277  13.819  1.00  0.00     0.067 A 
HETATM   25  C   UNL     1      41.062  -8.928  12.479  1.00  0.00    -0.007 A 
HETATM   26  C   UNL     1      40.674  -7.554  14.900  1.00  0.00     0.070 A 
HETATM   27  C   UNL     1      41.703  -8.490  14.770  1.00  0.00     0.038 A 
HETATM   28  C   UNL     1      41.909  -9.185  13.571  1.00  0.00     0.016 A 
HETATM   29  C   UNL     1      40.971  -9.439  11.152  1.00  0.00     0.049 A 
BRANCH  26  30
HETATM   30  O   UNL     1      40.597  -6.969  16.138  1.00  0.00    -0.356 OA
HETATM   31  C   UNL     1      41.230  -7.653  17.212  1.00  0.00     0.210 C 
ENDBRANCH  26  30
ENDBRANCH   1  20
TORSDOF 8
ENDMDL
