MODEL 1
REMARK VINA RESULT:      -8.2      0.000      0.000
REMARK  5 active torsions:
REMARK  status: ('A' for Active; 'I' for Inactive)
REMARK    1  A    between atoms: C_2  and  O_3 
REMARK    2  A    between atoms: O_3  and  C_4 
REMARK    3  A    between atoms: C_4  and  C_5 
REMARK    4  A    between atoms: C_6  and  N_7 
REMARK    5  A    between atoms: N_8  and  C_9 
ROOT
HETATM    1  C   UNL     1      42.999 -13.865   5.765  1.00  0.00     0.084 A 
HETATM    2  C   UNL     1      42.795 -13.834   4.355  1.00  0.00     0.119 A 
HETATM    3  N   UNL     1      42.837 -15.021   3.655  1.00  0.00    -0.312 N 
HETATM    4  C   UNL     1      43.131 -16.195   4.304  1.00  0.00     0.150 A 
HETATM    5  C   UNL     1      43.357 -16.218   5.671  1.00  0.00     0.080 A 
HETATM    6  C   UNL     1      43.668 -17.506   6.308  1.00  0.00     0.267 A 
HETATM    7  O   UNL     1      43.878 -17.512   7.517  1.00  0.00    -0.267 OA
HETATM    8  N   UNL     1      43.701 -18.621   5.475  1.00  0.00    -0.272 N 
HETATM    9  C   UNL     1      43.458 -18.495   4.110  1.00  0.00     0.145 A 
HETATM   10  N   UNL     1      43.191 -17.360   3.538  1.00  0.00    -0.211 NA
HETATM   11  C   UNL     1      43.984 -19.858   6.040  1.00  0.00     0.102 A 
HETATM   12  C   UNL     1      44.035 -20.974   5.305  1.00  0.00     0.018 A 
HETATM   13  C   UNL     1      43.791 -20.913   3.891  1.00  0.00     0.012 A 
HETATM   14  C   UNL     1      43.514 -19.749   3.282  1.00  0.00    -0.015 A 
HETATM   15  C   UNL     1      43.253 -19.638   1.813  1.00  0.00     0.052 C 
HETATM   16  C   UNL     1      43.290 -15.056   6.419  1.00  0.00     0.042 A 
ENDROOT
BRANCH   1  17
HETATM   17  C   UNL     1      42.962 -12.595   6.539  1.00  0.00     0.297 C 
HETATM   18  O   UNL     1      42.098 -11.751   6.370  1.00  0.00    -0.259 OA
BRANCH  17  19
HETATM   19  O   UNL     1      43.976 -12.562   7.430  1.00  0.00    -0.318 OA
BRANCH  19  20
HETATM   20  C   UNL     1      44.720 -11.331   7.503  1.00  0.00     0.174 C 
HETATM   21  C   UNL     1      45.803 -11.329   6.443  1.00  0.00     0.034 C 
ENDBRANCH  19  20
ENDBRANCH  17  19
ENDBRANCH   1  17
BRANCH   2  22
HETATM   22  N   UNL     1      42.436 -12.630   3.748  1.00  0.00    -0.384 N 
HETATM   23  H   UNL     1      42.197 -12.714   2.749  1.00  0.00     0.157 HD
HETATM   24  H   UNL     1      41.896 -11.908   4.195  1.00  0.00     0.157 HD
ENDBRANCH   2  22
BRANCH   3  25
HETATM   25  C   UNL     1      42.557 -15.092   2.169  1.00  0.00     0.085 C 
HETATM   26  C   UNL     1      43.715 -15.722   1.402  1.00  0.00     0.032 C 
HETATM   27  C   UNL     1      41.183 -15.691   1.900  1.00  0.00     0.032 C 
ENDBRANCH   3  25
TORSDOF 5
ENDMDL
MODEL 2
REMARK VINA RESULT:      -7.7      2.788      5.327
REMARK  5 active torsions:
REMARK  status: ('A' for Active; 'I' for Inactive)
REMARK    1  A    between atoms: C_2  and  O_3 
REMARK    2  A    between atoms: O_3  and  C_4 
REMARK    3  A    between atoms: C_4  and  C_5 
REMARK    4  A    between atoms: C_6  and  N_7 
REMARK    5  A    between atoms: N_8  and  C_9 
ROOT
HETATM    1  C   UNL     1      43.523 -12.572   6.037  1.00  0.00     0.084 A 
HETATM    2  C   UNL     1      42.978 -13.865   6.289  1.00  0.00     0.119 A 
HETATM    3  N   UNL     1      42.284 -14.497   5.280  1.00  0.00    -0.312 N 
HETATM    4  C   UNL     1      42.074 -13.859   4.081  1.00  0.00     0.150 A 
HETATM    5  C   UNL     1      42.580 -12.589   3.850  1.00  0.00     0.080 A 
HETATM    6  C   UNL     1      42.320 -11.959   2.548  1.00  0.00     0.267 A 
HETATM    7  O   UNL     1      42.762 -10.830   2.359  1.00  0.00    -0.267 OA
HETATM    8  N   UNL     1      41.583 -12.704   1.631  1.00  0.00    -0.272 N 
HETATM    9  C   UNL     1      41.119 -13.974   1.958  1.00  0.00     0.145 A 
HETATM   10  N   UNL     1      41.336 -14.536   3.110  1.00  0.00    -0.211 NA
HETATM   11  C   UNL     1      41.323 -12.145   0.385  1.00  0.00     0.102 A 
HETATM   12  C   UNL     1      40.622 -12.798  -0.547  1.00  0.00     0.018 A 
HETATM   13  C   UNL     1      40.116 -14.115  -0.273  1.00  0.00     0.012 A 
HETATM   14  C   UNL     1      40.331 -14.710   0.910  1.00  0.00    -0.015 A 
HETATM   15  C   UNL     1      39.824 -16.080   1.239  1.00  0.00     0.052 C 
HETATM   16  C   UNL     1      43.313 -11.932   4.822  1.00  0.00     0.042 A 
ENDROOT
BRANCH   1  17
HETATM   17  C   UNL     1      44.271 -11.870   7.114  1.00  0.00     0.297 C 
HETATM   18  O   UNL     1      43.949 -11.941   8.288  1.00  0.00    -0.259 OA
BRANCH  17  19
HETATM   19  O   UNL     1      45.328 -11.209   6.594  1.00  0.00    -0.318 OA
BRANCH  19  20
HETATM   20  C   UNL     1      46.361 -10.830   7.521  1.00  0.00     0.174 C 
HETATM   21  C   UNL     1      46.197  -9.371   7.896  1.00  0.00     0.034 C 
ENDBRANCH  19  20
ENDBRANCH  17  19
ENDBRANCH   1  17
BRANCH   2  22
HETATM   22  N   UNL     1      43.272 -14.501   7.495  1.00  0.00    -0.384 N 
HETATM   23  H   UNL     1      44.260 -14.436   7.780  1.00  0.00     0.157 HD
HETATM   24  H   UNL     1      42.660 -14.514   8.294  1.00  0.00     0.157 HD
ENDBRANCH   2  22
BRANCH   3  25
HETATM   25  C   UNL     1      41.738 -15.900   5.432  1.00  0.00     0.085 C 
HETATM   26  C   UNL     1      42.847 -16.919   5.668  1.00  0.00     0.032 C 
HETATM   27  C   UNL     1      40.586 -15.934   6.429  1.00  0.00     0.032 C 
ENDBRANCH   3  25
TORSDOF 5
ENDMDL
MODEL 3
REMARK VINA RESULT:      -7.7      1.817      3.072
REMARK  5 active torsions:
REMARK  status: ('A' for Active; 'I' for Inactive)
REMARK    1  A    between atoms: C_2  and  O_3 
REMARK    2  A    between atoms: O_3  and  C_4 
REMARK    3  A    between atoms: C_4  and  C_5 
REMARK    4  A    between atoms: C_6  and  N_7 
REMARK    5  A    between atoms: N_8  and  C_9 
ROOT
HETATM    1  C   UNL     1      43.524 -12.043   6.883  1.00  0.00     0.084 A 
HETATM    2  C   UNL     1      42.777 -11.514   5.790  1.00  0.00     0.119 A 
HETATM    3  N   UNL     1      42.420 -12.361   4.763  1.00  0.00    -0.312 N 
HETATM    4  C   UNL     1      42.834 -13.671   4.772  1.00  0.00     0.150 A 
HETATM    5  C   UNL     1      43.585 -14.175   5.822  1.00  0.00     0.080 A 
HETATM    6  C   UNL     1      43.998 -15.585   5.774  1.00  0.00     0.267 A 
HETATM    7  O   UNL     1      44.673 -16.016   6.703  1.00  0.00    -0.267 OA
HETATM    8  N   UNL     1      43.587 -16.317   4.664  1.00  0.00    -0.272 N 
HETATM    9  C   UNL     1      42.831 -15.719   3.659  1.00  0.00     0.145 A 
HETATM   10  N   UNL     1      42.469 -14.472   3.690  1.00  0.00    -0.211 NA
HETATM   11  C   UNL     1      43.951 -17.656   4.584  1.00  0.00     0.102 A 
HETATM   12  C   UNL     1      43.595 -18.423   3.549  1.00  0.00     0.018 A 
HETATM   13  C   UNL     1      42.813 -17.867   2.480  1.00  0.00     0.012 A 
HETATM   14  C   UNL     1      42.429 -16.581   2.495  1.00  0.00    -0.015 A 
HETATM   15  C   UNL     1      41.613 -15.960   1.404  1.00  0.00     0.052 C 
HETATM   16  C   UNL     1      43.936 -13.370   6.892  1.00  0.00     0.042 A 
ENDROOT
BRANCH   1  17
HETATM   17  C   UNL     1      43.923 -11.146   8.000  1.00  0.00     0.297 C 
HETATM   18  O   UNL     1      43.138 -10.387   8.543  1.00  0.00    -0.259 OA
BRANCH  17  19
HETATM   19  O   UNL     1      45.225 -11.333   8.307  1.00  0.00    -0.318 OA
BRANCH  19  20
HETATM   20  C   UNL     1      46.179 -10.613   7.505  1.00  0.00     0.174 C 
HETATM   21  C   UNL     1      46.333  -9.204   8.042  1.00  0.00     0.034 C 
ENDBRANCH  19  20
ENDBRANCH  17  19
ENDBRANCH   1  17
BRANCH   2  22
HETATM   22  N   UNL     1      42.323 -10.197   5.854  1.00  0.00    -0.384 N 
HETATM   23  H   UNL     1      42.347  -9.785   6.798  1.00  0.00     0.157 HD
HETATM   24  H   UNL     1      42.494  -9.502   5.146  1.00  0.00     0.157 HD
ENDBRANCH   2  22
BRANCH   3  25
HETATM   25  C   UNL     1      41.563 -11.905   3.602  1.00  0.00     0.085 C 
HETATM   26  C   UNL     1      40.163 -11.502   4.052  1.00  0.00     0.032 C 
HETATM   27  C   UNL     1      42.302 -10.884   2.745  1.00  0.00     0.032 C 
ENDBRANCH   3  25
TORSDOF 5
ENDMDL
MODEL 4
REMARK VINA RESULT:      -7.4      3.230      6.408
REMARK  5 active torsions:
REMARK  status: ('A' for Active; 'I' for Inactive)
REMARK    1  A    between atoms: C_2  and  O_3 
REMARK    2  A    between atoms: O_3  and  C_4 
REMARK    3  A    between atoms: C_4  and  C_5 
REMARK    4  A    between atoms: C_6  and  N_7 
REMARK    5  A    between atoms: N_8  and  C_9 
ROOT
HETATM    1  C   UNL     1      41.406 -15.222   4.801  1.00  0.00     0.084 A 
HETATM    2  C   UNL     1      41.994 -13.927   4.888  1.00  0.00     0.119 A 
HETATM    3  N   UNL     1      41.909 -13.089   3.796  1.00  0.00    -0.312 N 
HETATM    4  C   UNL     1      41.322 -13.526   2.634  1.00  0.00     0.150 A 
HETATM    5  C   UNL     1      40.777 -14.797   2.543  1.00  0.00     0.080 A 
HETATM    6  C   UNL     1      40.164 -15.207   1.272  1.00  0.00     0.267 A 
HETATM    7  O   UNL     1      39.696 -16.339   1.200  1.00  0.00    -0.267 OA
HETATM    8  N   UNL     1      40.170 -14.267   0.246  1.00  0.00    -0.272 N 
HETATM    9  C   UNL     1      40.743 -13.012   0.435  1.00  0.00     0.145 A 
HETATM   10  N   UNL     1      41.294 -12.645   1.553  1.00  0.00    -0.211 NA
HETATM   11  C   UNL     1      39.593 -14.614  -0.970  1.00  0.00     0.102 A 
HETATM   12  C   UNL     1      39.562 -13.765  -2.003  1.00  0.00     0.018 A 
HETATM   13  C   UNL     1      40.134 -12.454  -1.872  1.00  0.00     0.012 A 
HETATM   14  C   UNL     1      40.708 -12.057  -0.725  1.00  0.00    -0.015 A 
HETATM   15  C   UNL     1      41.315 -10.700  -0.543  1.00  0.00     0.052 C 
HETATM   16  C   UNL     1      40.808 -15.659   3.625  1.00  0.00     0.042 A 
ENDROOT
BRANCH   1  17
HETATM   17  C   UNL     1      41.490 -16.144   5.965  1.00  0.00     0.297 C 
HETATM   18  O   UNL     1      40.814 -15.994   6.969  1.00  0.00    -0.259 OA
BRANCH  17  19
HETATM   19  O   UNL     1      42.373 -17.135   5.714  1.00  0.00    -0.318 OA
BRANCH  19  20
HETATM   20  C   UNL     1      43.386 -17.354   6.713  1.00  0.00     0.174 C 
HETATM   21  C   UNL     1      44.576 -16.458   6.435  1.00  0.00     0.034 C 
ENDBRANCH  19  20
ENDBRANCH  17  19
ENDBRANCH   1  17
BRANCH   2  22
HETATM   22  N   UNL     1      42.521 -13.501   6.107  1.00  0.00    -0.384 N 
HETATM   23  H   UNL     1      43.427 -13.928   6.350  1.00  0.00     0.157 HD
HETATM   24  H   UNL     1      42.453 -12.560   6.458  1.00  0.00     0.157 HD
ENDBRANCH   2  22
BRANCH   3  25
HETATM   25  C   UNL     1      42.437 -11.670   3.825  1.00  0.00     0.085 C 
HETATM   26  C   UNL     1      41.731 -10.822   4.877  1.00  0.00     0.032 C 
HETATM   27  C   UNL     1      43.960 -11.655   3.876  1.00  0.00     0.032 C 
ENDBRANCH   3  25
TORSDOF 5
ENDMDL
MODEL 5
REMARK VINA RESULT:      -7.3      3.312      5.680
REMARK  5 active torsions:
REMARK  status: ('A' for Active; 'I' for Inactive)
REMARK    1  A    between atoms: C_2  and  O_3 
REMARK    2  A    between atoms: O_3  and  C_4 
REMARK    3  A    between atoms: C_4  and  C_5 
REMARK    4  A    between atoms: C_6  and  N_7 
REMARK    5  A    between atoms: N_8  and  C_9 
ROOT
HETATM    1  C   UNL     1      40.955 -13.818   1.163  1.00  0.00     0.084 A 
HETATM    2  C   UNL     1      40.678 -12.990   2.290  1.00  0.00     0.119 A 
HETATM    3  N   UNL     1      41.085 -13.414   3.537  1.00  0.00    -0.312 N 
HETATM    4  C   UNL     1      41.688 -14.639   3.687  1.00  0.00     0.150 A 
HETATM    5  C   UNL     1      41.930 -15.455   2.593  1.00  0.00     0.080 A 
HETATM    6  C   UNL     1      42.578 -16.755   2.818  1.00  0.00     0.267 A 
HETATM    7  O   UNL     1      42.775 -17.473   1.844  1.00  0.00    -0.267 OA
HETATM    8  N   UNL     1      42.913 -17.064   4.134  1.00  0.00    -0.272 N 
HETATM    9  C   UNL     1      42.629 -16.175   5.167  1.00  0.00     0.145 A 
HETATM   10  N   UNL     1      42.049 -15.028   4.977  1.00  0.00    -0.211 NA
HETATM   11  C   UNL     1      43.534 -18.281   4.387  1.00  0.00     0.102 A 
HETATM   12  C   UNL     1      43.885 -18.650   5.624  1.00  0.00     0.018 A 
HETATM   13  C   UNL     1      43.621 -17.776   6.734  1.00  0.00     0.012 A 
HETATM   14  C   UNL     1      43.023 -16.587   6.558  1.00  0.00    -0.015 A 
HETATM   15  C   UNL     1      42.731 -15.646   7.684  1.00  0.00     0.052 C 
HETATM   16  C   UNL     1      41.570 -15.054   1.318  1.00  0.00     0.042 A 
ENDROOT
BRANCH   1  17
HETATM   17  C   UNL     1      40.520 -13.382  -0.190  1.00  0.00     0.297 C 
HETATM   18  O   UNL     1      41.055 -12.460  -0.784  1.00  0.00    -0.259 OA
BRANCH  17  19
HETATM   19  O   UNL     1      39.511 -14.163  -0.632  1.00  0.00    -0.318 OA
BRANCH  19  20
HETATM   20  C   UNL     1      38.895 -13.769  -1.872  1.00  0.00     0.174 C 
HETATM   21  C   UNL     1      38.806 -14.966  -2.798  1.00  0.00     0.034 C 
ENDBRANCH  19  20
ENDBRANCH  17  19
ENDBRANCH   1  17
BRANCH   2  22
HETATM   22  N   UNL     1      40.123 -11.727   2.084  1.00  0.00    -0.384 N 
HETATM   23  H   UNL     1      39.692 -11.310   2.922  1.00  0.00     0.157 HD
HETATM   24  H   UNL     1      40.522 -11.022   1.487  1.00  0.00     0.157 HD
ENDBRANCH   2  22
BRANCH   3  25
HETATM   25  C   UNL     1      40.901 -12.567   4.777  1.00  0.00     0.085 C 
HETATM   26  C   UNL     1      41.702 -11.271   4.704  1.00  0.00     0.032 C 
HETATM   27  C   UNL     1      39.425 -12.412   5.121  1.00  0.00     0.032 C 
ENDBRANCH   3  25
TORSDOF 5
ENDMDL
MODEL 6
REMARK VINA RESULT:      -7.3      2.428      3.014
REMARK  5 active torsions:
REMARK  status: ('A' for Active; 'I' for Inactive)
REMARK    1  A    between atoms: C_2  and  O_3 
REMARK    2  A    between atoms: O_3  and  C_4 
REMARK    3  A    between atoms: C_4  and  C_5 
REMARK    4  A    between atoms: C_6  and  N_7 
REMARK    5  A    between atoms: N_8  and  C_9 
ROOT
HETATM    1  C   UNL     1      39.860 -12.695   5.273  1.00  0.00     0.084 A 
HETATM    2  C   UNL     1      39.827 -12.877   3.860  1.00  0.00     0.119 A 
HETATM    3  N   UNL     1      40.464 -13.974   3.320  1.00  0.00    -0.312 N 
HETATM    4  C   UNL     1      41.166 -14.833   4.131  1.00  0.00     0.150 A 
HETATM    5  C   UNL     1      41.220 -14.637   5.502  1.00  0.00     0.080 A 
HETATM    6  C   UNL     1      41.988 -15.590   6.315  1.00  0.00     0.267 A 
HETATM    7  O   UNL     1      42.039 -15.400   7.526  1.00  0.00    -0.267 OA
HETATM    8  N   UNL     1      42.601 -16.639   5.634  1.00  0.00    -0.272 N 
HETATM    9  C   UNL     1      42.486 -16.750   4.251  1.00  0.00     0.145 A 
HETATM   10  N   UNL     1      41.817 -15.907   3.524  1.00  0.00    -0.211 NA
HETATM   11  C   UNL     1      43.330 -17.566   6.369  1.00  0.00     0.102 A 
HETATM   12  C   UNL     1      43.948 -18.599   5.786  1.00  0.00     0.018 A 
HETATM   13  C   UNL     1      43.866 -18.772   4.362  1.00  0.00     0.012 A 
HETATM   14  C   UNL     1      43.179 -17.911   3.594  1.00  0.00    -0.015 A 
HETATM   15  C   UNL     1      43.067 -18.054   2.109  1.00  0.00     0.052 C 
HETATM   16  C   UNL     1      40.566 -13.569   6.090  1.00  0.00     0.042 A 
ENDROOT
BRANCH   1  17
HETATM   17  C   UNL     1      39.183 -11.515   5.875  1.00  0.00     0.297 C 
HETATM   18  O   UNL     1      38.353 -11.619   6.763  1.00  0.00    -0.259 OA
BRANCH  17  19
HETATM   19  O   UNL     1      39.649 -10.376   5.320  1.00  0.00    -0.318 OA
BRANCH  19  20
HETATM   20  C   UNL     1      40.959  -9.951   5.741  1.00  0.00     0.174 C 
HETATM   21  C   UNL     1      41.816  -9.669   4.523  1.00  0.00     0.034 C 
ENDBRANCH  19  20
ENDBRANCH  17  19
ENDBRANCH   1  17
BRANCH   2  22
HETATM   22  N   UNL     1      39.050 -12.018   3.083  1.00  0.00    -0.384 N 
HETATM   23  H   UNL     1      39.545 -11.175   2.756  1.00  0.00     0.157 HD
HETATM   24  H   UNL     1      38.363 -12.322   2.413  1.00  0.00     0.157 HD
ENDBRANCH   2  22
BRANCH   3  25
HETATM   25  C   UNL     1      40.417 -14.288   1.840  1.00  0.00     0.085 C 
HETATM   26  C   UNL     1      41.730 -13.948   1.144  1.00  0.00     0.032 C 
HETATM   27  C   UNL     1      39.884 -15.694   1.597  1.00  0.00     0.032 C 
ENDBRANCH   3  25
TORSDOF 5
ENDMDL
MODEL 7
REMARK VINA RESULT:      -7.2      2.735      7.003
REMARK  5 active torsions:
REMARK  status: ('A' for Active; 'I' for Inactive)
REMARK    1  A    between atoms: C_2  and  O_3 
REMARK    2  A    between atoms: O_3  and  C_4 
REMARK    3  A    between atoms: C_4  and  C_5 
REMARK    4  A    between atoms: C_6  and  N_7 
REMARK    5  A    between atoms: N_8  and  C_9 
ROOT
HETATM    1  C   UNL     1      43.309 -17.279   4.250  1.00  0.00     0.084 A 
HETATM    2  C   UNL     1      43.551 -16.487   5.411  1.00  0.00     0.119 A 
HETATM    3  N   UNL     1      42.883 -15.288   5.544  1.00  0.00    -0.312 N 
HETATM    4  C   UNL     1      42.052 -14.847   4.543  1.00  0.00     0.150 A 
HETATM    5  C   UNL     1      41.842 -15.605   3.402  1.00  0.00     0.080 A 
HETATM    6  C   UNL     1      40.942 -15.077   2.367  1.00  0.00     0.267 A 
HETATM    7  O   UNL     1      40.773 -15.752   1.356  1.00  0.00    -0.267 OA
HETATM    8  N   UNL     1      40.354 -13.842   2.623  1.00  0.00    -0.272 N 
HETATM    9  C   UNL     1      40.628 -13.156   3.803  1.00  0.00     0.145 A 
HETATM   10  N   UNL     1      41.429 -13.611   4.719  1.00  0.00    -0.211 NA
HETATM   11  C   UNL     1      39.490 -13.312   1.672  1.00  0.00     0.102 A 
HETATM   12  C   UNL     1      38.889 -12.131   1.845  1.00  0.00     0.018 A 
HETATM   13  C   UNL     1      39.128 -11.374   3.043  1.00  0.00     0.012 A 
HETATM   14  C   UNL     1      39.952 -11.828   4.001  1.00  0.00    -0.015 A 
HETATM   15  C   UNL     1      40.229 -11.074   5.263  1.00  0.00     0.052 C 
HETATM   16  C   UNL     1      42.463 -16.831   3.243  1.00  0.00     0.042 A 
ENDROOT
BRANCH   1  17
HETATM   17  C   UNL     1      44.023 -18.573   4.085  1.00  0.00     0.297 C 
HETATM   18  O   UNL     1      44.240 -19.325   5.020  1.00  0.00    -0.259 OA
BRANCH  17  19
HETATM   19  O   UNL     1      44.339 -18.770   2.787  1.00  0.00    -0.318 OA
BRANCH  19  20
HETATM   20  C   UNL     1      44.125 -20.097   2.273  1.00  0.00     0.174 C 
HETATM   21  C   UNL     1      42.686 -20.239   1.817  1.00  0.00     0.034 C 
ENDBRANCH  19  20
ENDBRANCH  17  19
ENDBRANCH   1  17
BRANCH   2  22
HETATM   22  N   UNL     1      44.351 -17.004   6.430  1.00  0.00    -0.384 N 
HETATM   23  H   UNL     1      43.858 -17.638   7.076  1.00  0.00     0.157 HD
HETATM   24  H   UNL     1      45.314 -17.274   6.315  1.00  0.00     0.157 HD
ENDBRANCH   2  22
BRANCH   3  25
HETATM   25  C   UNL     1      43.020 -14.421   6.776  1.00  0.00     0.085 C 
HETATM   26  C   UNL     1      42.985 -15.245   8.058  1.00  0.00     0.032 C 
HETATM   27  C   UNL     1      44.193 -13.458   6.640  1.00  0.00     0.032 C 
ENDBRANCH   3  25
TORSDOF 5
ENDMDL
MODEL 8
REMARK VINA RESULT:      -6.9      2.680      3.605
REMARK  5 active torsions:
REMARK  status: ('A' for Active; 'I' for Inactive)
REMARK    1  A    between atoms: C_2  and  O_3 
REMARK    2  A    between atoms: O_3  and  C_4 
REMARK    3  A    between atoms: C_4  and  C_5 
REMARK    4  A    between atoms: C_6  and  N_7 
REMARK    5  A    between atoms: N_8  and  C_9 
ROOT
HETATM    1  C   UNL     1      39.924 -11.982   5.688  1.00  0.00     0.084 A 
HETATM    2  C   UNL     1      40.062 -11.704   4.296  1.00  0.00     0.119 A 
HETATM    3  N   UNL     1      40.707 -12.626   3.500  1.00  0.00    -0.312 N 
HETATM    4  C   UNL     1      41.254 -13.757   4.056  1.00  0.00     0.150 A 
HETATM    5  C   UNL     1      41.143 -14.010   5.414  1.00  0.00     0.080 A 
HETATM    6  C   UNL     1      41.751 -15.236   5.949  1.00  0.00     0.267 A 
HETATM    7  O   UNL     1      41.657 -15.444   7.155  1.00  0.00    -0.267 OA
HETATM    8  N   UNL     1      42.392 -16.065   5.033  1.00  0.00    -0.272 N 
HETATM    9  C   UNL     1      42.449 -15.723   3.685  1.00  0.00     0.145 A 
HETATM   10  N   UNL     1      41.922 -14.637   3.204  1.00  0.00    -0.211 NA
HETATM   11  C   UNL     1      42.974 -17.239   5.498  1.00  0.00     0.102 A 
HETATM   12  C   UNL     1      43.608 -18.085   4.680  1.00  0.00     0.018 A 
HETATM   13  C   UNL     1      43.700 -17.790   3.277  1.00  0.00     0.012 A 
HETATM   14  C   UNL     1      43.161 -16.674   2.762  1.00  0.00    -0.015 A 
HETATM   15  C   UNL     1      43.232 -16.328   1.308  1.00  0.00     0.052 C 
HETATM   16  C   UNL     1      40.474 -13.130   6.245  1.00  0.00     0.042 A 
ENDROOT
BRANCH   1  17
HETATM   17  C   UNL     1      39.236 -10.999   6.566  1.00  0.00     0.297 C 
HETATM   18  O   UNL     1      38.208 -11.263   7.166  1.00  0.00    -0.259 OA
BRANCH  17  19
HETATM   19  O   UNL     1      39.931  -9.841   6.604  1.00  0.00    -0.318 OA
BRANCH  19  20
HETATM   20  C   UNL     1      40.642  -9.565   7.825  1.00  0.00     0.174 C 
HETATM   21  C   UNL     1      42.130  -9.741   7.597  1.00  0.00     0.034 C 
ENDBRANCH  19  20
ENDBRANCH  17  19
ENDBRANCH   1  17
BRANCH   2  22
HETATM   22  N   UNL     1      39.435 -10.578   3.764  1.00  0.00    -0.384 N 
HETATM   23  H   UNL     1      39.719  -9.688   4.200  1.00  0.00     0.157 HD
HETATM   24  H   UNL     1      39.218 -10.456   2.789  1.00  0.00     0.157 HD
ENDBRANCH   2  22
BRANCH   3  25
HETATM   25  C   UNL     1      40.833 -12.450   2.002  1.00  0.00     0.085 C 
HETATM   26  C   UNL     1      39.482 -12.551   1.302  1.00  0.00     0.032 C 
HETATM   27  C   UNL     1      41.662 -11.218   1.664  1.00  0.00     0.032 C 
ENDBRANCH   3  25
TORSDOF 5
ENDMDL
MODEL 9
REMARK VINA RESULT:      -6.8      3.150      7.661
REMARK  5 active torsions:
REMARK  status: ('A' for Active; 'I' for Inactive)
REMARK    1  A    between atoms: C_2  and  O_3 
REMARK    2  A    between atoms: O_3  and  C_4 
REMARK    3  A    between atoms: C_4  and  C_5 
REMARK    4  A    between atoms: C_6  and  N_7 
REMARK    5  A    between atoms: N_8  and  C_9 
ROOT
HETATM    1  C   UNL     1      41.702 -13.735   4.830  1.00  0.00     0.084 A 
HETATM    2  C   UNL     1      40.599 -12.831   4.838  1.00  0.00     0.119 A 
HETATM    3  N   UNL     1      40.752 -11.607   5.453  1.00  0.00    -0.312 N 
HETATM    4  C   UNL     1      41.926 -11.300   6.096  1.00  0.00     0.150 A 
HETATM    5  C   UNL     1      42.987 -12.192   6.113  1.00  0.00     0.080 A 
HETATM    6  C   UNL     1      44.216 -11.805   6.819  1.00  0.00     0.267 A 
HETATM    7  O   UNL     1      45.144 -12.608   6.837  1.00  0.00    -0.267 OA
HETATM    8  N   UNL     1      44.223 -10.548   7.416  1.00  0.00    -0.272 N 
HETATM    9  C   UNL     1      43.105  -9.721   7.343  1.00  0.00     0.145 A 
HETATM   10  N   UNL     1      42.011 -10.059   6.728  1.00  0.00    -0.211 NA
HETATM   11  C   UNL     1      45.370 -10.142   8.087  1.00  0.00     0.102 A 
HETATM   12  C   UNL     1      45.451  -8.950   8.687  1.00  0.00     0.018 A 
HETATM   13  C   UNL     1      44.333  -8.049   8.646  1.00  0.00     0.012 A 
HETATM   14  C   UNL     1      43.195  -8.380   8.016  1.00  0.00    -0.015 A 
HETATM   15  C   UNL     1      42.006  -7.473   7.948  1.00  0.00     0.052 C 
HETATM   16  C   UNL     1      42.890 -13.417   5.477  1.00  0.00     0.042 A 
ENDROOT
BRANCH   1  17
HETATM   17  C   UNL     1      41.557 -15.062   4.176  1.00  0.00     0.297 C 
HETATM   18  O   UNL     1      40.574 -15.767   4.336  1.00  0.00    -0.259 OA
BRANCH  17  19
HETATM   19  O   UNL     1      42.628 -15.317   3.394  1.00  0.00    -0.318 OA
BRANCH  19  20
HETATM   20  C   UNL     1      43.255 -16.601   3.571  1.00  0.00     0.174 C 
HETATM   21  C   UNL     1      43.197 -17.378   2.271  1.00  0.00     0.034 C 
ENDBRANCH  19  20
ENDBRANCH  17  19
ENDBRANCH   1  17
BRANCH   2  22
HETATM   22  N   UNL     1      39.451 -13.158   4.117  1.00  0.00    -0.384 N 
HETATM   23  H   UNL     1      38.893 -12.345   3.816  1.00  0.00     0.157 HD
HETATM   24  H   UNL     1      39.393 -13.909   3.449  1.00  0.00     0.157 HD
ENDBRANCH   2  22
BRANCH   3  25
HETATM   25  C   UNL     1      39.663 -10.557   5.443  1.00  0.00     0.085 C 
HETATM   26  C   UNL     1      39.284 -10.144   4.025  1.00  0.00     0.032 C 
HETATM   27  C   UNL     1      38.504 -10.963   6.345  1.00  0.00     0.032 C 
ENDBRANCH   3  25
TORSDOF 5
ENDMDL
MODEL 10
REMARK VINA RESULT:      -6.8      2.753      6.426
REMARK  5 active torsions:
REMARK  status: ('A' for Active; 'I' for Inactive)
REMARK    1  A    between atoms: C_2  and  O_3 
REMARK    2  A    between atoms: O_3  and  C_4 
REMARK    3  A    between atoms: C_4  and  C_5 
REMARK    4  A    between atoms: C_6  and  N_7 
REMARK    5  A    between atoms: N_8  and  C_9 
ROOT
HETATM    1  C   UNL     1      42.844 -15.776   5.076  1.00  0.00     0.084 A 
HETATM    2  C   UNL     1      43.079 -14.411   5.414  1.00  0.00     0.119 A 
HETATM    3  N   UNL     1      42.589 -13.430   4.579  1.00  0.00    -0.312 N 
HETATM    4  C   UNL     1      41.943 -13.773   3.416  1.00  0.00     0.150 A 
HETATM    5  C   UNL     1      41.742 -15.101   3.075  1.00  0.00     0.080 A 
HETATM    6  C   UNL     1      41.045 -15.404   1.817  1.00  0.00     0.267 A 
HETATM    7  O   UNL     1      40.884 -16.584   1.521  1.00  0.00    -0.267 OA
HETATM    8  N   UNL     1      40.626 -14.314   1.059  1.00  0.00    -0.272 N 
HETATM    9  C   UNL     1      40.875 -13.013   1.488  1.00  0.00     0.145 A 
HETATM   10  N   UNL     1      41.497 -12.737   2.594  1.00  0.00    -0.211 NA
HETATM   11  C   UNL     1      39.957 -14.559  -0.134  1.00  0.00     0.102 A 
HETATM   12  C   UNL     1      39.525 -13.564  -0.917  1.00  0.00     0.018 A 
HETATM   13  C   UNL     1      39.748 -12.199  -0.530  1.00  0.00     0.012 A 
HETATM   14  C   UNL     1      40.389 -11.894   0.610  1.00  0.00    -0.015 A 
HETATM   15  C   UNL     1      40.643 -10.487   1.052  1.00  0.00     0.052 C 
HETATM   16  C   UNL     1      42.185 -16.118   3.902  1.00  0.00     0.042 A 
ENDROOT
BRANCH   1  17
HETATM   17  C   UNL     1      43.368 -16.849   5.962  1.00  0.00     0.297 C 
HETATM   18  O   UNL     1      42.953 -17.025   7.095  1.00  0.00    -0.259 OA
BRANCH  17  19
HETATM   19  O   UNL     1      44.306 -17.573   5.313  1.00  0.00    -0.318 OA
BRANCH  19  20
HETATM   20  C   UNL     1      44.027 -18.975   5.148  1.00  0.00     0.174 C 
HETATM   21  C   UNL     1      44.063 -19.330   3.675  1.00  0.00     0.034 C 
ENDBRANCH  19  20
ENDBRANCH  17  19
ENDBRANCH   1  17
BRANCH   2  22
HETATM   22  N   UNL     1      43.680 -14.108   6.636  1.00  0.00    -0.384 N 
HETATM   23  H   UNL     1      43.155 -14.435   7.460  1.00  0.00     0.157 HD
HETATM   24  H   UNL     1      44.673 -14.130   6.801  1.00  0.00     0.157 HD
ENDBRANCH   2  22
BRANCH   3  25
HETATM   25  C   UNL     1      42.724 -11.956   4.897  1.00  0.00     0.085 C 
HETATM   26  C   UNL     1      41.833 -11.543   6.063  1.00  0.00     0.032 C 
HETATM   27  C   UNL     1      44.189 -11.554   5.009  1.00  0.00     0.032 C 
ENDBRANCH   3  25
TORSDOF 5
ENDMDL
