MODEL 1
REMARK VINA RESULT:      -8.2      0.000      0.000
REMARK  10 active torsions:
REMARK  status: ('A' for Active; 'I' for Inactive)
REMARK    1  A    between atoms: C_2  and  C_3 
REMARK    2  A    between atoms: C_3  and  N_4 
REMARK    3  A    between atoms: N_4  and  C_5 
REMARK    4  A    between atoms: C_5  and  N_6 
REMARK    5  A    between atoms: N_6  and  N_7 
REMARK       I    between atoms: N_7  and  C_8 
REMARK    6  A    between atoms: C_8  and  C_9 
REMARK    7  A    between atoms: C_9  and  C_10 
REMARK    8  A    between atoms: C_10  and  C_11 
REMARK    9  A    between atoms: C_13  and  O_14 
REMARK   10  A    between atoms: C_15  and  O_16 
ROOT
HETATM    1  N   UNL     1      40.672 -15.129   2.637  1.00  0.00    -0.268 N 
HETATM    2  C   UNL     1      41.446 -15.102   1.494  1.00  0.00     0.236 C 
HETATM    3  O   UNL     1      41.040 -14.672   0.414  1.00  0.00    -0.272 OA
HETATM    4  H   UNL     1      41.096 -15.145   3.561  1.00  0.00     0.190 HD
ENDROOT
BRANCH   1   5
HETATM    5  N   UNL     1      39.387 -14.560   2.551  1.00  0.00    -0.274 N 
HETATM    6  H   UNL     1      38.916 -14.804   1.681  1.00  0.00     0.189 HD
BRANCH   5   7
HETATM    7  C   UNL     1      39.164 -13.292   3.033  1.00  0.00     0.186 C 
HETATM    8  S   UNL     1      38.725 -11.969   2.108  1.00  0.00    -0.040 SA
BRANCH   7   9
HETATM    9  N   UNL     1      39.356 -13.116   4.372  1.00  0.00    -0.362 N 
HETATM   10  H   UNL     1      38.533 -13.271   4.942  1.00  0.00     0.162 HD
BRANCH   9  11
HETATM   11  C   UNL     1      40.541 -12.628   5.055  1.00  0.00     0.160 C 
BRANCH  11  12
HETATM   12  C   UNL     1      41.329 -13.690   5.786  1.00  0.00    -0.040 A 
HETATM   13  C   UNL     1      40.781 -14.924   6.171  1.00  0.00     0.010 A 
HETATM   14  C   UNL     1      41.571 -15.897   6.789  1.00  0.00     0.024 A 
HETATM   15  C   UNL     1      42.919 -15.649   7.028  1.00  0.00     0.034 A 
HETATM   16  C   UNL     1      43.486 -14.436   6.649  1.00  0.00     0.024 A 
HETATM   17 CL   UNL     1      43.892 -16.849   7.784  1.00  0.00    -0.084 Cl
HETATM   18  C   UNL     1      42.697 -13.465   6.027  1.00  0.00     0.010 A 
ENDBRANCH  11  12
ENDBRANCH   9  11
ENDBRANCH   7   9
ENDBRANCH   5   7
ENDBRANCH   1   5
BRANCH   2  19
HETATM   19  C   UNL     1      42.829 -15.689   1.656  1.00  0.00     0.109 C 
BRANCH  19  20
HETATM   20  C   UNL     1      43.082 -16.208   3.074  1.00  0.00     0.048 C 
BRANCH  20  21
HETATM   21  C   UNL     1      43.382 -17.688   3.205  1.00  0.00    -0.055 A 
HETATM   22  C   UNL     1      43.214 -18.586   2.137  1.00  0.00     0.046 A 
HETATM   23  C   UNL     1      43.463 -19.942   2.327  1.00  0.00     0.099 A 
HETATM   24  C   UNL     1      43.918 -20.411   3.554  1.00  0.00     0.098 A 
HETATM   25  C   UNL     1      44.128 -19.539   4.609  1.00  0.00     0.040 A 
HETATM   26  C   UNL     1      43.862 -18.180   4.434  1.00  0.00     0.010 A 
BRANCH  23  27
HETATM   27  O   UNL     1      43.257 -20.857   1.330  1.00  0.00    -0.358 OA
HETATM   28  H   UNL     1      43.202 -21.737   1.742  1.00  0.00     0.218 HD
ENDBRANCH  23  27
BRANCH  24  29
HETATM   29  O   UNL     1      44.154 -21.744   3.729  1.00  0.00    -0.358 OA
HETATM   30  H   UNL     1      44.298 -21.839   4.692  1.00  0.00     0.218 HD
ENDBRANCH  24  29
ENDBRANCH  20  21
ENDBRANCH  19  20
ENDBRANCH   2  19
TORSDOF 10
ENDMDL
MODEL 2
REMARK VINA RESULT:      -7.5      3.374      4.583
REMARK  10 active torsions:
REMARK  status: ('A' for Active; 'I' for Inactive)
REMARK    1  A    between atoms: C_2  and  C_3 
REMARK    2  A    between atoms: C_3  and  N_4 
REMARK    3  A    between atoms: N_4  and  C_5 
REMARK    4  A    between atoms: C_5  and  N_6 
REMARK    5  A    between atoms: N_6  and  N_7 
REMARK       I    between atoms: N_7  and  C_8 
REMARK    6  A    between atoms: C_8  and  C_9 
REMARK    7  A    between atoms: C_9  and  C_10 
REMARK    8  A    between atoms: C_10  and  C_11 
REMARK    9  A    between atoms: C_13  and  O_14 
REMARK   10  A    between atoms: C_15  and  O_16 
ROOT
HETATM    1  N   UNL     1      43.242 -14.055   6.706  1.00  0.00    -0.268 N 
HETATM    2  C   UNL     1      42.130 -14.471   6.000  1.00  0.00     0.236 C 
HETATM    3  O   UNL     1      41.185 -13.730   5.731  1.00  0.00    -0.272 OA
HETATM    4  H   UNL     1      44.133 -14.538   6.621  1.00  0.00     0.190 HD
ENDROOT
BRANCH   1   5
HETATM    5  N   UNL     1      43.303 -12.692   7.054  1.00  0.00    -0.274 N 
HETATM    6  H   UNL     1      42.414 -12.346   7.411  1.00  0.00     0.189 HD
BRANCH   5   7
HETATM    7  C   UNL     1      44.035 -11.820   6.284  1.00  0.00     0.186 C 
HETATM    8  S   UNL     1      45.527 -11.184   6.695  1.00  0.00    -0.040 SA
BRANCH   7   9
HETATM    9  N   UNL     1      43.462 -11.430   5.109  1.00  0.00    -0.362 N 
HETATM   10  H   UNL     1      42.563 -10.975   5.207  1.00  0.00     0.162 HD
BRANCH   9  11
HETATM   11  C   UNL     1      43.920 -11.689   3.755  1.00  0.00     0.160 C 
BRANCH  11  12
HETATM   12  C   UNL     1      43.009 -12.579   2.942  1.00  0.00    -0.040 A 
HETATM   13  C   UNL     1      43.364 -13.876   2.539  1.00  0.00     0.010 A 
HETATM   14  C   UNL     1      42.459 -14.682   1.841  1.00  0.00     0.024 A 
HETATM   15  C   UNL     1      41.189 -14.201   1.542  1.00  0.00     0.034 A 
HETATM   16  C   UNL     1      40.812 -12.922   1.937  1.00  0.00     0.024 A 
HETATM   17 CL   UNL     1      40.074 -15.196   0.688  1.00  0.00    -0.084 Cl
HETATM   18  C   UNL     1      41.715 -12.118   2.638  1.00  0.00     0.010 A 
ENDBRANCH  11  12
ENDBRANCH   9  11
ENDBRANCH   7   9
ENDBRANCH   5   7
ENDBRANCH   1   5
BRANCH   2  19
HETATM   19  C   UNL     1      42.139 -15.934   5.620  1.00  0.00     0.109 C 
BRANCH  19  20
HETATM   20  C   UNL     1      43.551 -16.464   5.360  1.00  0.00     0.048 C 
BRANCH  20  21
HETATM   21  C   UNL     1      43.651 -17.769   4.597  1.00  0.00    -0.055 A 
HETATM   22  C   UNL     1      43.992 -18.980   5.222  1.00  0.00     0.046 A 
HETATM   23  C   UNL     1      44.112 -20.141   4.463  1.00  0.00     0.099 A 
HETATM   24  C   UNL     1      43.855 -20.121   3.097  1.00  0.00     0.098 A 
HETATM   25  C   UNL     1      43.480 -18.947   2.466  1.00  0.00     0.040 A 
HETATM   26  C   UNL     1      43.376 -17.773   3.216  1.00  0.00     0.010 A 
BRANCH  23  27
HETATM   27  O   UNL     1      44.498 -21.329   5.022  1.00  0.00    -0.358 OA
HETATM   28  H   UNL     1      44.140 -22.047   4.471  1.00  0.00     0.218 HD
ENDBRANCH  23  27
BRANCH  24  29
HETATM   29  O   UNL     1      43.981 -21.265   2.363  1.00  0.00    -0.358 OA
HETATM   30  H   UNL     1      43.301 -21.865   2.732  1.00  0.00     0.218 HD
ENDBRANCH  24  29
ENDBRANCH  20  21
ENDBRANCH  19  20
ENDBRANCH   2  19
TORSDOF 10
ENDMDL
MODEL 3
REMARK VINA RESULT:      -7.4      1.745      2.155
REMARK  10 active torsions:
REMARK  status: ('A' for Active; 'I' for Inactive)
REMARK    1  A    between atoms: C_2  and  C_3 
REMARK    2  A    between atoms: C_3  and  N_4 
REMARK    3  A    between atoms: N_4  and  C_5 
REMARK    4  A    between atoms: C_5  and  N_6 
REMARK    5  A    between atoms: N_6  and  N_7 
REMARK       I    between atoms: N_7  and  C_8 
REMARK    6  A    between atoms: C_8  and  C_9 
REMARK    7  A    between atoms: C_9  and  C_10 
REMARK    8  A    between atoms: C_10  and  C_11 
REMARK    9  A    between atoms: C_13  and  O_14 
REMARK   10  A    between atoms: C_15  and  O_16 
ROOT
HETATM    1  N   UNL     1      41.843 -14.275   1.147  1.00  0.00    -0.268 N 
HETATM    2  C   UNL     1      40.849 -15.186   1.446  1.00  0.00     0.236 C 
HETATM    3  O   UNL     1      39.690 -15.075   1.048  1.00  0.00    -0.272 OA
HETATM    4  H   UNL     1      42.825 -14.539   1.171  1.00  0.00     0.190 HD
ENDROOT
BRANCH   1   5
HETATM    5  N   UNL     1      41.502 -13.222   0.277  1.00  0.00    -0.274 N 
HETATM    6  H   UNL     1      42.069 -13.224  -0.570  1.00  0.00     0.189 HD
BRANCH   5   7
HETATM    7  C   UNL     1      41.169 -11.990   0.789  1.00  0.00     0.186 C 
HETATM    8  S   UNL     1      40.026 -10.953   0.143  1.00  0.00    -0.040 SA
BRANCH   7   9
HETATM    9  N   UNL     1      41.864 -11.589   1.891  1.00  0.00    -0.362 N 
HETATM   10  H   UNL     1      42.864 -11.500   1.753  1.00  0.00     0.162 HD
BRANCH   9  11
HETATM   11  C   UNL     1      41.372 -11.394   3.243  1.00  0.00     0.160 C 
BRANCH  11  12
HETATM   12  C   UNL     1      41.518 -12.597   4.147  1.00  0.00    -0.040 A 
HETATM   13  C   UNL     1      42.761 -13.131   4.518  1.00  0.00     0.010 A 
HETATM   14  C   UNL     1      42.842 -14.207   5.408  1.00  0.00     0.024 A 
HETATM   15  C   UNL     1      41.680 -14.759   5.938  1.00  0.00     0.034 A 
HETATM   16  C   UNL     1      40.437 -14.241   5.590  1.00  0.00     0.024 A 
HETATM   17 CL   UNL     1      41.781 -16.078   7.037  1.00  0.00    -0.084 Cl
HETATM   18  C   UNL     1      40.357 -13.164   4.704  1.00  0.00     0.010 A 
ENDBRANCH  11  12
ENDBRANCH   9  11
ENDBRANCH   7   9
ENDBRANCH   5   7
ENDBRANCH   1   5
BRANCH   2  19
HETATM   19  C   UNL     1      41.283 -16.317   2.351  1.00  0.00     0.109 C 
BRANCH  19  20
HETATM   20  C   UNL     1      42.798 -16.538   2.326  1.00  0.00     0.048 C 
BRANCH  20  21
HETATM   21  C   UNL     1      43.311 -17.762   3.056  1.00  0.00    -0.055 A 
HETATM   22  C   UNL     1      43.445 -19.011   2.425  1.00  0.00     0.046 A 
HETATM   23  C   UNL     1      43.881 -20.112   3.156  1.00  0.00     0.099 A 
HETATM   24  C   UNL     1      44.226 -19.979   4.496  1.00  0.00     0.098 A 
HETATM   25  C   UNL     1      44.138 -18.751   5.128  1.00  0.00     0.040 A 
HETATM   26  C   UNL     1      43.683 -17.644   4.408  1.00  0.00     0.010 A 
BRANCH  23  27
HETATM   27  O   UNL     1      43.971 -21.358   2.595  1.00  0.00    -0.358 OA
HETATM   28  H   UNL     1      43.649 -21.295   1.679  1.00  0.00     0.218 HD
ENDBRANCH  23  27
BRANCH  24  29
HETATM   29  O   UNL     1      44.647 -21.068   5.203  1.00  0.00    -0.358 OA
HETATM   30  H   UNL     1      45.619 -21.064   5.096  1.00  0.00     0.218 HD
ENDBRANCH  24  29
ENDBRANCH  20  21
ENDBRANCH  19  20
ENDBRANCH   2  19
TORSDOF 10
ENDMDL
MODEL 4
REMARK VINA RESULT:      -7.4      3.498      6.698
REMARK  10 active torsions:
REMARK  status: ('A' for Active; 'I' for Inactive)
REMARK    1  A    between atoms: C_2  and  C_3 
REMARK    2  A    between atoms: C_3  and  N_4 
REMARK    3  A    between atoms: N_4  and  C_5 
REMARK    4  A    between atoms: C_5  and  N_6 
REMARK    5  A    between atoms: N_6  and  N_7 
REMARK       I    between atoms: N_7  and  C_8 
REMARK    6  A    between atoms: C_8  and  C_9 
REMARK    7  A    between atoms: C_9  and  C_10 
REMARK    8  A    between atoms: C_10  and  C_11 
REMARK    9  A    between atoms: C_13  and  O_14 
REMARK   10  A    between atoms: C_15  and  O_16 
ROOT
HETATM    1  N   UNL     1      40.195 -15.551   3.813  1.00  0.00    -0.268 N 
HETATM    2  C   UNL     1      39.873 -14.783   2.710  1.00  0.00     0.236 C 
HETATM    3  O   UNL     1      39.555 -13.597   2.783  1.00  0.00    -0.272 OA
HETATM    4  H   UNL     1      40.775 -16.382   3.727  1.00  0.00     0.190 HD
ENDROOT
BRANCH   1   5
HETATM    5  N   UNL     1      40.229 -14.894   5.058  1.00  0.00    -0.274 N 
HETATM    6  H   UNL     1      39.432 -14.271   5.185  1.00  0.00     0.189 HD
BRANCH   5   7
HETATM    7  C   UNL     1      41.428 -14.470   5.579  1.00  0.00     0.186 C 
HETATM    8  S   UNL     1      41.894 -12.873   5.756  1.00  0.00    -0.040 SA
BRANCH   7   9
HETATM    9  N   UNL     1      42.305 -15.449   5.941  1.00  0.00    -0.362 N 
HETATM   10  H   UNL     1      42.060 -15.947   6.788  1.00  0.00     0.162 HD
BRANCH   9  11
HETATM   11  C   UNL     1      43.586 -15.777   5.339  1.00  0.00     0.160 C 
BRANCH  11  12
HETATM   12  C   UNL     1      43.554 -16.956   4.393  1.00  0.00    -0.040 A 
HETATM   13  C   UNL     1      43.122 -16.860   3.062  1.00  0.00     0.010 A 
HETATM   14  C   UNL     1      43.172 -17.968   2.210  1.00  0.00     0.024 A 
HETATM   15  C   UNL     1      43.657 -19.184   2.681  1.00  0.00     0.034 A 
HETATM   16  C   UNL     1      44.097 -19.301   3.996  1.00  0.00     0.024 A 
HETATM   17 CL   UNL     1      43.723 -20.546   1.632  1.00  0.00    -0.084 Cl
HETATM   18  C   UNL     1      44.050 -18.193   4.845  1.00  0.00     0.010 A 
ENDBRANCH  11  12
ENDBRANCH   9  11
ENDBRANCH   7   9
ENDBRANCH   5   7
ENDBRANCH   1   5
BRANCH   2  19
HETATM   19  C   UNL     1      39.893 -15.531   1.397  1.00  0.00     0.109 C 
BRANCH  19  20
HETATM   20  C   UNL     1      40.551 -14.725   0.274  1.00  0.00     0.048 C 
BRANCH  20  21
HETATM   21  C   UNL     1      39.616 -14.069  -0.722  1.00  0.00    -0.055 A 
HETATM   22  C   UNL     1      39.292 -14.665  -1.952  1.00  0.00     0.046 A 
HETATM   23  C   UNL     1      38.461 -13.998  -2.848  1.00  0.00     0.099 A 
HETATM   24  C   UNL     1      37.913 -12.763  -2.517  1.00  0.00     0.098 A 
HETATM   25  C   UNL     1      38.188 -12.175  -1.294  1.00  0.00     0.040 A 
HETATM   26  C   UNL     1      39.036 -12.828  -0.397  1.00  0.00     0.010 A 
BRANCH  23  27
HETATM   27  O   UNL     1      38.167 -14.517  -4.080  1.00  0.00    -0.358 OA
HETATM   28  H   UNL     1      38.652 -15.356  -4.172  1.00  0.00     0.218 HD
ENDBRANCH  23  27
BRANCH  24  29
HETATM   29  O   UNL     1      37.104 -12.116  -3.406  1.00  0.00    -0.358 OA
HETATM   30  H   UNL     1      36.301 -11.903  -2.890  1.00  0.00     0.218 HD
ENDBRANCH  24  29
ENDBRANCH  20  21
ENDBRANCH  19  20
ENDBRANCH   2  19
TORSDOF 10
ENDMDL
MODEL 5
REMARK VINA RESULT:      -7.1      4.876      5.419
REMARK  10 active torsions:
REMARK  status: ('A' for Active; 'I' for Inactive)
REMARK    1  A    between atoms: C_2  and  C_3 
REMARK    2  A    between atoms: C_3  and  N_4 
REMARK    3  A    between atoms: N_4  and  C_5 
REMARK    4  A    between atoms: C_5  and  N_6 
REMARK    5  A    between atoms: N_6  and  N_7 
REMARK       I    between atoms: N_7  and  C_8 
REMARK    6  A    between atoms: C_8  and  C_9 
REMARK    7  A    between atoms: C_9  and  C_10 
REMARK    8  A    between atoms: C_10  and  C_11 
REMARK    9  A    between atoms: C_13  and  O_14 
REMARK   10  A    between atoms: C_15  and  O_16 
ROOT
HETATM    1  N   UNL     1      43.154 -14.219   5.832  1.00  0.00    -0.268 N 
HETATM    2  C   UNL     1      42.063 -15.046   5.649  1.00  0.00     0.236 C 
HETATM    3  O   UNL     1      41.233 -15.274   6.529  1.00  0.00    -0.272 OA
HETATM    4  H   UNL     1      43.613 -13.769   5.044  1.00  0.00     0.190 HD
ENDROOT
BRANCH   1   5
HETATM    5  N   UNL     1      43.253 -13.559   7.071  1.00  0.00    -0.274 N 
HETATM    6  H   UNL     1      42.427 -13.704   7.651  1.00  0.00     0.189 HD
BRANCH   5   7
HETATM    7  C   UNL     1      43.841 -12.319   7.143  1.00  0.00     0.186 C 
HETATM    8  S   UNL     1      44.887 -11.678   6.005  1.00  0.00    -0.040 SA
BRANCH   7   9
HETATM    9  N   UNL     1      43.562 -11.585   8.257  1.00  0.00    -0.362 N 
HETATM   10  H   UNL     1      42.657 -11.772   8.672  1.00  0.00     0.162 HD
BRANCH   9  11
HETATM   11  C   UNL     1      44.336 -10.503   8.841  1.00  0.00     0.160 C 
BRANCH  11  12
HETATM   12  C   UNL     1      43.818 -10.001  10.168  1.00  0.00    -0.040 A 
HETATM   13  C   UNL     1      43.521 -10.850  11.246  1.00  0.00     0.010 A 
HETATM   14  C   UNL     1      43.104 -10.328  12.475  1.00  0.00     0.024 A 
HETATM   15  C   UNL     1      42.981  -8.952  12.639  1.00  0.00     0.034 A 
HETATM   16  C   UNL     1      43.276  -8.092  11.587  1.00  0.00     0.024 A 
HETATM   17 CL   UNL     1      42.472  -8.311  14.153  1.00  0.00    -0.084 Cl
HETATM   18  C   UNL     1      43.697  -8.613  10.361  1.00  0.00     0.010 A 
ENDBRANCH  11  12
ENDBRANCH   9  11
ENDBRANCH   7   9
ENDBRANCH   5   7
ENDBRANCH   1   5
BRANCH   2  19
HETATM   19  C   UNL     1      41.987 -15.695   4.286  1.00  0.00     0.109 C 
BRANCH  19  20
HETATM   20  C   UNL     1      43.355 -16.164   3.784  1.00  0.00     0.048 C 
BRANCH  20  21
HETATM   21  C   UNL     1      43.578 -17.662   3.737  1.00  0.00    -0.055 A 
HETATM   22  C   UNL     1      43.412 -18.410   2.560  1.00  0.00     0.046 A 
HETATM   23  C   UNL     1      43.588 -19.790   2.585  1.00  0.00     0.099 A 
HETATM   24  C   UNL     1      43.969 -20.432   3.758  1.00  0.00     0.098 A 
HETATM   25  C   UNL     1      44.176 -19.710   4.922  1.00  0.00     0.040 A 
HETATM   26  C   UNL     1      43.983 -18.327   4.911  1.00  0.00     0.010 A 
BRANCH  23  27
HETATM   27  O   UNL     1      43.381 -20.563   1.474  1.00  0.00    -0.358 OA
HETATM   28  H   UNL     1      42.439 -20.805   1.453  1.00  0.00     0.218 HD
ENDBRANCH  23  27
BRANCH  24  29
HETATM   29  O   UNL     1      44.134 -21.787   3.772  1.00  0.00    -0.358 OA
HETATM   30  H   UNL     1      44.006 -22.036   4.710  1.00  0.00     0.218 HD
ENDBRANCH  24  29
ENDBRANCH  20  21
ENDBRANCH  19  20
ENDBRANCH   2  19
TORSDOF 10
ENDMDL
MODEL 6
REMARK VINA RESULT:      -7.0      3.156      4.139
REMARK  10 active torsions:
REMARK  status: ('A' for Active; 'I' for Inactive)
REMARK    1  A    between atoms: C_2  and  C_3 
REMARK    2  A    between atoms: C_3  and  N_4 
REMARK    3  A    between atoms: N_4  and  C_5 
REMARK    4  A    between atoms: C_5  and  N_6 
REMARK    5  A    between atoms: N_6  and  N_7 
REMARK       I    between atoms: N_7  and  C_8 
REMARK    6  A    between atoms: C_8  and  C_9 
REMARK    7  A    between atoms: C_9  and  C_10 
REMARK    8  A    between atoms: C_10  and  C_11 
REMARK    9  A    between atoms: C_13  and  O_14 
REMARK   10  A    between atoms: C_15  and  O_16 
ROOT
HETATM    1  N   UNL     1      41.371 -14.952   6.156  1.00  0.00    -0.268 N 
HETATM    2  C   UNL     1      42.559 -15.393   6.705  1.00  0.00     0.236 C 
HETATM    3  O   UNL     1      43.365 -14.646   7.258  1.00  0.00    -0.272 OA
HETATM    4  H   UNL     1      40.582 -15.581   6.028  1.00  0.00     0.190 HD
ENDROOT
BRANCH   1   5
HETATM    5  N   UNL     1      41.060 -13.589   6.321  1.00  0.00    -0.274 N 
HETATM    6  H   UNL     1      40.404 -13.434   7.085  1.00  0.00     0.189 HD
BRANCH   5   7
HETATM    7  C   UNL     1      40.920 -12.778   5.219  1.00  0.00     0.186 C 
HETATM    8  S   UNL     1      39.931 -13.093   3.907  1.00  0.00    -0.040 SA
BRANCH   7   9
HETATM    9  N   UNL     1      41.685 -11.650   5.203  1.00  0.00    -0.362 N 
HETATM   10  H   UNL     1      41.165 -10.786   5.101  1.00  0.00     0.162 HD
BRANCH   9  11
HETATM   11  C   UNL     1      43.133 -11.544   5.193  1.00  0.00     0.160 C 
BRANCH  11  12
HETATM   12  C   UNL     1      43.734 -11.004   6.471  1.00  0.00    -0.040 A 
HETATM   13  C   UNL     1      43.001 -10.258   7.407  1.00  0.00     0.010 A 
HETATM   14  C   UNL     1      43.589  -9.836   8.604  1.00  0.00     0.024 A 
HETATM   15  C   UNL     1      44.915 -10.157   8.878  1.00  0.00     0.034 A 
HETATM   16  C   UNL     1      45.658 -10.900   7.967  1.00  0.00     0.024 A 
HETATM   17 CL   UNL     1      45.635  -9.641  10.353  1.00  0.00    -0.084 Cl
HETATM   18  C   UNL     1      45.070 -11.326   6.773  1.00  0.00     0.010 A 
ENDBRANCH  11  12
ENDBRANCH   9  11
ENDBRANCH   7   9
ENDBRANCH   5   7
ENDBRANCH   1   5
BRANCH   2  19
HETATM   19  C   UNL     1      42.820 -16.872   6.533  1.00  0.00     0.109 C 
BRANCH  19  20
HETATM   20  C   UNL     1      44.025 -17.153   5.632  1.00  0.00     0.048 C 
BRANCH  20  21
HETATM   21  C   UNL     1      43.814 -18.160   4.520  1.00  0.00    -0.055 A 
HETATM   22  C   UNL     1      44.086 -19.529   4.685  1.00  0.00     0.046 A 
HETATM   23  C   UNL     1      43.915 -20.402   3.615  1.00  0.00     0.099 A 
HETATM   24  C   UNL     1      43.435 -19.939   2.395  1.00  0.00     0.098 A 
HETATM   25  C   UNL     1      43.124 -18.602   2.221  1.00  0.00     0.040 A 
HETATM   26  C   UNL     1      43.311 -17.714   3.283  1.00  0.00     0.010 A 
BRANCH  23  27
HETATM   27  O   UNL     1      44.223 -21.732   3.716  1.00  0.00    -0.358 OA
HETATM   28  H   UNL     1      44.325 -22.083   2.814  1.00  0.00     0.218 HD
ENDBRANCH  23  27
BRANCH  24  29
HETATM   29  O   UNL     1      43.277 -20.805   1.352  1.00  0.00    -0.358 OA
HETATM   30  H   UNL     1      42.595 -21.435   1.662  1.00  0.00     0.218 HD
ENDBRANCH  24  29
ENDBRANCH  20  21
ENDBRANCH  19  20
ENDBRANCH   2  19
TORSDOF 10
ENDMDL
MODEL 7
REMARK VINA RESULT:      -7.0      3.771      6.473
REMARK  10 active torsions:
REMARK  status: ('A' for Active; 'I' for Inactive)
REMARK    1  A    between atoms: C_2  and  C_3 
REMARK    2  A    between atoms: C_3  and  N_4 
REMARK    3  A    between atoms: N_4  and  C_5 
REMARK    4  A    between atoms: C_5  and  N_6 
REMARK    5  A    between atoms: N_6  and  N_7 
REMARK       I    between atoms: N_7  and  C_8 
REMARK    6  A    between atoms: C_8  and  C_9 
REMARK    7  A    between atoms: C_9  and  C_10 
REMARK    8  A    between atoms: C_10  and  C_11 
REMARK    9  A    between atoms: C_13  and  O_14 
REMARK   10  A    between atoms: C_15  and  O_16 
ROOT
HETATM    1  N   UNL     1      42.800 -12.509   2.576  1.00  0.00    -0.268 N 
HETATM    2  C   UNL     1      41.901 -11.584   2.082  1.00  0.00     0.236 C 
HETATM    3  O   UNL     1      41.527 -10.600   2.719  1.00  0.00    -0.272 OA
HETATM    4  H   UNL     1      43.356 -13.091   1.953  1.00  0.00     0.190 HD
ENDROOT
BRANCH   1   5
HETATM    5  N   UNL     1      43.356 -12.245   3.842  1.00  0.00    -0.274 N 
HETATM    6  H   UNL     1      44.273 -11.805   3.775  1.00  0.00     0.189 HD
BRANCH   5   7
HETATM    7  C   UNL     1      43.180 -13.141   4.870  1.00  0.00     0.186 C 
HETATM    8  S   UNL     1      43.597 -12.873   6.467  1.00  0.00    -0.040 SA
BRANCH   7   9
HETATM    9  N   UNL     1      42.652 -14.351   4.528  1.00  0.00    -0.362 N 
HETATM   10  H   UNL     1      42.065 -14.339   3.703  1.00  0.00     0.162 HD
BRANCH   9  11
HETATM   11  C   UNL     1      42.731 -15.605   5.256  1.00  0.00     0.160 C 
BRANCH  11  12
HETATM   12  C   UNL     1      43.116 -16.799   4.414  1.00  0.00    -0.040 A 
HETATM   13  C   UNL     1      43.962 -17.821   4.873  1.00  0.00     0.010 A 
HETATM   14  C   UNL     1      44.235 -18.937   4.076  1.00  0.00     0.024 A 
HETATM   15  C   UNL     1      43.664 -19.044   2.812  1.00  0.00     0.034 A 
HETATM   16  C   UNL     1      42.816 -18.047   2.339  1.00  0.00     0.024 A 
HETATM   17 CL   UNL     1      43.996 -20.420   1.834  1.00  0.00    -0.084 Cl
HETATM   18  C   UNL     1      42.540 -16.934   3.138  1.00  0.00     0.010 A 
ENDBRANCH  11  12
ENDBRANCH   9  11
ENDBRANCH   7   9
ENDBRANCH   5   7
ENDBRANCH   1   5
BRANCH   2  19
HETATM   19  C   UNL     1      41.369 -11.899   0.702  1.00  0.00     0.109 C 
BRANCH  19  20
HETATM   20  C   UNL     1      40.831 -13.328   0.594  1.00  0.00     0.048 C 
BRANCH  20  21
HETATM   21  C   UNL     1      40.105 -13.678  -0.689  1.00  0.00    -0.055 A 
HETATM   22  C   UNL     1      39.491 -14.926  -0.887  1.00  0.00     0.046 A 
HETATM   23  C   UNL     1      38.876 -15.210  -2.103  1.00  0.00     0.099 A 
HETATM   24  C   UNL     1      38.827 -14.252  -3.110  1.00  0.00     0.098 A 
HETATM   25  C   UNL     1      39.392 -13.003  -2.923  1.00  0.00     0.040 A 
HETATM   26  C   UNL     1      40.029 -12.716  -1.713  1.00  0.00     0.010 A 
BRANCH  23  27
HETATM   27  O   UNL     1      38.315 -16.433  -2.358  1.00  0.00    -0.358 OA
HETATM   28  H   UNL     1      37.352 -16.309  -2.424  1.00  0.00     0.218 HD
ENDBRANCH  23  27
BRANCH  24  29
HETATM   29  O   UNL     1      38.225 -14.545  -4.300  1.00  0.00    -0.358 OA
HETATM   30  H   UNL     1      38.968 -14.632  -4.931  1.00  0.00     0.218 HD
ENDBRANCH  24  29
ENDBRANCH  20  21
ENDBRANCH  19  20
ENDBRANCH   2  19
TORSDOF 10
ENDMDL
MODEL 8
REMARK VINA RESULT:      -6.8      2.533      3.012
REMARK  10 active torsions:
REMARK  status: ('A' for Active; 'I' for Inactive)
REMARK    1  A    between atoms: C_2  and  C_3 
REMARK    2  A    between atoms: C_3  and  N_4 
REMARK    3  A    between atoms: N_4  and  C_5 
REMARK    4  A    between atoms: C_5  and  N_6 
REMARK    5  A    between atoms: N_6  and  N_7 
REMARK       I    between atoms: N_7  and  C_8 
REMARK    6  A    between atoms: C_8  and  C_9 
REMARK    7  A    between atoms: C_9  and  C_10 
REMARK    8  A    between atoms: C_10  and  C_11 
REMARK    9  A    between atoms: C_13  and  O_14 
REMARK   10  A    between atoms: C_15  and  O_16 
ROOT
HETATM    1  N   UNL     1      43.170 -13.317   2.726  1.00  0.00    -0.268 N 
HETATM    2  C   UNL     1      42.688 -14.209   1.788  1.00  0.00     0.236 C 
HETATM    3  O   UNL     1      41.802 -13.929   0.981  1.00  0.00    -0.272 OA
HETATM    4  H   UNL     1      44.098 -13.423   3.128  1.00  0.00     0.190 HD
ENDROOT
BRANCH   1   5
HETATM    5  N   UNL     1      42.657 -12.007   2.681  1.00  0.00    -0.274 N 
HETATM    6  H   UNL     1      43.382 -11.316   2.495  1.00  0.00     0.189 HD
BRANCH   5   7
HETATM    7  C   UNL     1      41.660 -11.630   3.550  1.00  0.00     0.186 C 
HETATM    8  S   UNL     1      40.853 -10.165   3.519  1.00  0.00    -0.040 SA
BRANCH   7   9
HETATM    9  N   UNL     1      41.344 -12.527   4.527  1.00  0.00    -0.362 N 
HETATM   10  H   UNL     1      40.899 -13.375   4.197  1.00  0.00     0.162 HD
BRANCH   9  11
HETATM   11  C   UNL     1      41.457 -12.366   5.966  1.00  0.00     0.160 C 
BRANCH  11  12
HETATM   12  C   UNL     1      42.734 -11.703   6.428  1.00  0.00    -0.040 A 
HETATM   13  C   UNL     1      42.760 -10.461   7.081  1.00  0.00     0.010 A 
HETATM   14  C   UNL     1      43.964  -9.921   7.545  1.00  0.00     0.024 A 
HETATM   15  C   UNL     1      45.154 -10.618   7.363  1.00  0.00     0.034 A 
HETATM   16  C   UNL     1      45.151 -11.855   6.725  1.00  0.00     0.024 A 
HETATM   17 CL   UNL     1      46.633  -9.956   7.939  1.00  0.00    -0.084 Cl
HETATM   18  C   UNL     1      43.947 -12.396   6.265  1.00  0.00     0.010 A 
ENDBRANCH  11  12
ENDBRANCH   9  11
ENDBRANCH   7   9
ENDBRANCH   5   7
ENDBRANCH   1   5
BRANCH   2  19
HETATM   19  C   UNL     1      43.305 -15.588   1.857  1.00  0.00     0.109 C 
BRANCH  19  20
HETATM   20  C   UNL     1      43.064 -16.271   3.206  1.00  0.00     0.048 C 
BRANCH  20  21
HETATM   21  C   UNL     1      43.375 -17.752   3.276  1.00  0.00    -0.055 A 
HETATM   22  C   UNL     1      43.184 -18.612   2.181  1.00  0.00     0.046 A 
HETATM   23  C   UNL     1      43.445 -19.972   2.315  1.00  0.00     0.099 A 
HETATM   24  C   UNL     1      43.936 -20.482   3.512  1.00  0.00     0.098 A 
HETATM   25  C   UNL     1      44.168 -19.648   4.592  1.00  0.00     0.040 A 
HETATM   26  C   UNL     1      43.890 -18.284   4.473  1.00  0.00     0.010 A 
BRANCH  23  27
HETATM   27  O   UNL     1      43.219 -20.853   1.292  1.00  0.00    -0.358 OA
HETATM   28  H   UNL     1      43.884 -21.560   1.357  1.00  0.00     0.218 HD
ENDBRANCH  23  27
BRANCH  24  29
HETATM   29  O   UNL     1      44.183 -21.819   3.633  1.00  0.00    -0.358 OA
HETATM   30  H   UNL     1      43.818 -22.207   2.812  1.00  0.00     0.218 HD
ENDBRANCH  24  29
ENDBRANCH  20  21
ENDBRANCH  19  20
ENDBRANCH   2  19
TORSDOF 10
ENDMDL
MODEL 9
REMARK VINA RESULT:      -6.6      3.952      6.913
REMARK  10 active torsions:
REMARK  status: ('A' for Active; 'I' for Inactive)
REMARK    1  A    between atoms: C_2  and  C_3 
REMARK    2  A    between atoms: C_3  and  N_4 
REMARK    3  A    between atoms: N_4  and  C_5 
REMARK    4  A    between atoms: C_5  and  N_6 
REMARK    5  A    between atoms: N_6  and  N_7 
REMARK       I    between atoms: N_7  and  C_8 
REMARK    6  A    between atoms: C_8  and  C_9 
REMARK    7  A    between atoms: C_9  and  C_10 
REMARK    8  A    between atoms: C_10  and  C_11 
REMARK    9  A    between atoms: C_13  and  O_14 
REMARK   10  A    between atoms: C_15  and  O_16 
ROOT
HETATM    1  N   UNL     1      40.792 -13.584   3.382  1.00  0.00    -0.268 N 
HETATM    2  C   UNL     1      41.201 -13.815   4.680  1.00  0.00     0.236 C 
HETATM    3  O   UNL     1      41.069 -14.899   5.247  1.00  0.00    -0.272 OA
HETATM    4  H   UNL     1      41.203 -12.841   2.822  1.00  0.00     0.190 HD
ENDROOT
BRANCH   1   5
HETATM    5  N   UNL     1      40.273 -14.684   2.672  1.00  0.00    -0.274 N 
HETATM    6  H   UNL     1      40.090 -15.481   3.280  1.00  0.00     0.189 HD
BRANCH   5   7
HETATM    7  C   UNL     1      40.740 -14.969   1.411  1.00  0.00     0.186 C 
HETATM    8  S   UNL     1      40.110 -14.358  -0.014  1.00  0.00    -0.040 SA
BRANCH   7   9
HETATM    9  N   UNL     1      41.778 -15.850   1.339  1.00  0.00    -0.362 N 
HETATM   10  H   UNL     1      41.606 -16.661   0.758  1.00  0.00     0.162 HD
BRANCH   9  11
HETATM   11  C   UNL     1      43.030 -15.826   2.075  1.00  0.00     0.160 C 
BRANCH  11  12
HETATM   12  C   UNL     1      43.332 -17.091   2.845  1.00  0.00    -0.040 A 
HETATM   13  C   UNL     1      43.323 -18.366   2.259  1.00  0.00     0.010 A 
HETATM   14  C   UNL     1      43.673 -19.499   3.002  1.00  0.00     0.024 A 
HETATM   15  C   UNL     1      44.037 -19.368   4.338  1.00  0.00     0.034 A 
HETATM   16  C   UNL     1      44.060 -18.113   4.938  1.00  0.00     0.024 A 
HETATM   17 CL   UNL     1      44.471 -20.760   5.249  1.00  0.00    -0.084 Cl
HETATM   18  C   UNL     1      43.715 -16.981   4.194  1.00  0.00     0.010 A 
ENDBRANCH  11  12
ENDBRANCH   9  11
ENDBRANCH   7   9
ENDBRANCH   5   7
ENDBRANCH   1   5
BRANCH   2  19
HETATM   19  C   UNL     1      41.787 -12.608   5.378  1.00  0.00     0.109 C 
BRANCH  19  20
HETATM   20  C   UNL     1      43.304 -12.510   5.203  1.00  0.00     0.048 C 
BRANCH  20  21
HETATM   21  C   UNL     1      44.035 -11.593   6.163  1.00  0.00    -0.055 A 
HETATM   22  C   UNL     1      45.437 -11.516   6.208  1.00  0.00     0.046 A 
HETATM   23  C   UNL     1      46.056 -10.689   7.141  1.00  0.00     0.099 A 
HETATM   24  C   UNL     1      45.297  -9.904   8.002  1.00  0.00     0.098 A 
HETATM   25  C   UNL     1      43.914  -9.935   7.950  1.00  0.00     0.040 A 
HETATM   26  C   UNL     1      43.284 -10.777   7.030  1.00  0.00     0.010 A 
BRANCH  23  27
HETATM   27  O   UNL     1      47.418 -10.628   7.256  1.00  0.00    -0.358 OA
HETATM   28  H   UNL     1      47.754 -10.081   6.523  1.00  0.00     0.218 HD
ENDBRANCH  23  27
BRANCH  24  29
HETATM   29  O   UNL     1      45.916  -9.101   8.916  1.00  0.00    -0.358 OA
HETATM   30  H   UNL     1      45.180  -8.659   9.386  1.00  0.00     0.218 HD
ENDBRANCH  24  29
ENDBRANCH  20  21
ENDBRANCH  19  20
ENDBRANCH   2  19
TORSDOF 10
ENDMDL
MODEL 10
REMARK VINA RESULT:      -6.5      5.943      8.765
REMARK  10 active torsions:
REMARK  status: ('A' for Active; 'I' for Inactive)
REMARK    1  A    between atoms: C_2  and  C_3 
REMARK    2  A    between atoms: C_3  and  N_4 
REMARK    3  A    between atoms: N_4  and  C_5 
REMARK    4  A    between atoms: C_5  and  N_6 
REMARK    5  A    between atoms: N_6  and  N_7 
REMARK       I    between atoms: N_7  and  C_8 
REMARK    6  A    between atoms: C_8  and  C_9 
REMARK    7  A    between atoms: C_9  and  C_10 
REMARK    8  A    between atoms: C_10  and  C_11 
REMARK    9  A    between atoms: C_13  and  O_14 
REMARK   10  A    between atoms: C_15  and  O_16 
ROOT
HETATM    1  N   UNL     1      44.480 -12.318   6.606  1.00  0.00    -0.268 N 
HETATM    2  C   UNL     1      44.476 -11.040   7.129  1.00  0.00     0.236 C 
HETATM    3  O   UNL     1      43.642 -10.188   6.824  1.00  0.00    -0.272 OA
HETATM    4  H   UNL     1      44.922 -13.089   7.098  1.00  0.00     0.190 HD
ENDROOT
BRANCH   1   5
HETATM    5  N   UNL     1      43.420 -12.656   5.742  1.00  0.00    -0.274 N 
HETATM    6  H   UNL     1      43.227 -11.919   5.065  1.00  0.00     0.189 HD
BRANCH   5   7
HETATM    7  C   UNL     1      42.334 -13.345   6.226  1.00  0.00     0.186 C 
HETATM    8  S   UNL     1      40.735 -13.005   5.866  1.00  0.00    -0.040 SA
BRANCH   7   9
HETATM    9  N   UNL     1      42.604 -14.361   7.094  1.00  0.00    -0.362 N 
HETATM   10  H   UNL     1      43.314 -14.150   7.785  1.00  0.00     0.162 HD
BRANCH   9  11
HETATM   11  C   UNL     1      42.095 -15.721   7.074  1.00  0.00     0.160 C 
BRANCH  11  12
HETATM   12  C   UNL     1      42.674 -16.594   5.985  1.00  0.00    -0.040 A 
HETATM   13  C   UNL     1      43.497 -17.701   6.246  1.00  0.00     0.010 A 
HETATM   14  C   UNL     1      43.955 -18.514   5.205  1.00  0.00     0.024 A 
HETATM   15  C   UNL     1      43.593 -18.232   3.892  1.00  0.00     0.034 A 
HETATM   16  C   UNL     1      42.773 -17.144   3.610  1.00  0.00     0.024 A 
HETATM   17 CL   UNL     1      44.153 -19.236   2.612  1.00  0.00    -0.084 Cl
HETATM   18  C   UNL     1      42.312 -16.334   4.651  1.00  0.00     0.010 A 
ENDBRANCH  11  12
ENDBRANCH   9  11
ENDBRANCH   7   9
ENDBRANCH   5   7
ENDBRANCH   1   5
BRANCH   2  19
HETATM   19  C   UNL     1      45.613 -10.747   8.081  1.00  0.00     0.109 C 
BRANCH  19  20
HETATM   20  C   UNL     1      45.395  -9.457   8.875  1.00  0.00     0.048 C 
BRANCH  20  21
HETATM   21  C   UNL     1      44.504  -9.561  10.097  1.00  0.00    -0.055 A 
HETATM   22  C   UNL     1      44.375 -10.750  10.833  1.00  0.00     0.046 A 
HETATM   23  C   UNL     1      43.508 -10.801  11.921  1.00  0.00     0.099 A 
HETATM   24  C   UNL     1      42.800  -9.670  12.313  1.00  0.00     0.098 A 
HETATM   25  C   UNL     1      42.941  -8.477  11.626  1.00  0.00     0.040 A 
HETATM   26  C   UNL     1      43.794  -8.422  10.521  1.00  0.00     0.010 A 
BRANCH  23  27
HETATM   27  O   UNL     1      43.310 -11.955  12.629  1.00  0.00    -0.358 OA
HETATM   28  H   UNL     1      42.961 -11.710  13.504  1.00  0.00     0.218 HD
ENDBRANCH  23  27
BRANCH  24  29
HETATM   29  O   UNL     1      41.950  -9.734  13.378  1.00  0.00    -0.358 OA
HETATM   30  H   UNL     1      41.693 -10.677  13.426  1.00  0.00     0.218 HD
ENDBRANCH  24  29
ENDBRANCH  20  21
ENDBRANCH  19  20
ENDBRANCH   2  19
TORSDOF 10
ENDMDL
