MODEL 1
REMARK VINA RESULT:      -8.2      0.000      0.000
REMARK  6 active torsions:
REMARK  status: ('A' for Active; 'I' for Inactive)
REMARK    1  A    between atoms: C_2  and  N_3 
REMARK    2  A    between atoms: C_5  and  C_6 
REMARK    3  A    between atoms: C_6  and  N_7 
REMARK       I    between atoms: N_7  and  C_8 
REMARK    4  A    between atoms: C_8  and  C_9 
REMARK    5  A    between atoms: C_9  and  C_10 
REMARK    6  A    between atoms: C_11  and  C_12 
ROOT
HETATM    1  C   UNL     1      41.523 -15.868   2.434  1.00  0.00     0.006 A 
HETATM    2  C   UNL     1      42.791 -16.539   2.356  1.00  0.00     0.096 A 
HETATM    3  N   UNL     1      43.632 -15.888   1.544  1.00  0.00    -0.173 NA
HETATM    4  N   UNL     1      42.939 -14.839   1.101  1.00  0.00    -0.282 N 
HETATM    5  H   UNL     1      43.403 -14.203   0.461  1.00  0.00     0.189 HD
HETATM    6  C   UNL     1      41.678 -14.752   1.620  1.00  0.00     0.033 A 
HETATM    7  C   UNL     1      40.797 -13.611   1.282  1.00  0.00     0.070 C 
ENDROOT
BRANCH   1   8
HETATM    8  C   UNL     1      40.365 -16.259   3.300  1.00  0.00     0.146 C 
BRANCH   8   9
HETATM    9  C   UNL     1      40.460 -15.744   4.730  1.00  0.00     0.222 C 
HETATM   10  N   UNL     1      40.462 -14.367   4.850  1.00  0.00    -0.359 N 
HETATM   11  H   UNL     1      40.515 -13.831   3.987  1.00  0.00     0.162 HD
HETATM   12  O   UNL     1      40.504 -16.482   5.715  1.00  0.00    -0.273 OA
BRANCH  10  13
HETATM   13  C   UNL     1      40.610 -13.613   6.093  1.00  0.00     0.155 C 
BRANCH  13  14
HETATM   14  C   UNL     1      41.871 -12.736   6.208  1.00  0.00     0.206 C 
HETATM   15  N   UNL     1      43.020 -13.315   7.023  1.00  0.00    -0.066 N 
HETATM   16  H   UNL     1      42.694 -13.263   8.014  1.00  0.00     0.280 HD
HETATM   17  C   UNL     1      44.145 -12.344   6.759  1.00  0.00     0.235 C 
HETATM   18  C   UNL     1      43.913 -11.851   5.330  1.00  0.00     0.030 C 
HETATM   19  C   UNL     1      42.554 -12.394   4.897  1.00  0.00     0.036 C 
BRANCH  15  20
HETATM   20  C   UNL     1      43.385 -14.762   6.795  1.00  0.00     0.231 C 
HETATM   21  C   UNL     1      43.036 -15.606   8.011  1.00  0.00     0.034 C 
ENDBRANCH  15  20
ENDBRANCH  13  14
ENDBRANCH  10  13
ENDBRANCH   8   9
ENDBRANCH   1   8
BRANCH   2  22
HETATM   22  C   UNL     1      43.251 -17.733   3.063  1.00  0.00    -0.005 A 
HETATM   23  C   UNL     1      43.628 -17.679   4.412  1.00  0.00     0.017 A 
HETATM   24  C   UNL     1      44.060 -18.836   5.067  1.00  0.00     0.043 A 
HETATM   25  C   UNL     1      44.104 -20.042   4.376  1.00  0.00     0.116 A 
HETATM   26  F   UNL     1      44.518 -21.147   5.008  1.00  0.00    -0.206 F 
HETATM   27  C   UNL     1      43.720 -20.119   3.044  1.00  0.00     0.043 A 
HETATM   28  C   UNL     1      43.290 -18.964   2.387  1.00  0.00     0.017 A 
ENDBRANCH   2  22
TORSDOF 6
ENDMDL
MODEL 2
REMARK VINA RESULT:      -7.8      2.487      3.590
REMARK  6 active torsions:
REMARK  status: ('A' for Active; 'I' for Inactive)
REMARK    1  A    between atoms: C_2  and  N_3 
REMARK    2  A    between atoms: C_5  and  C_6 
REMARK    3  A    between atoms: C_6  and  N_7 
REMARK       I    between atoms: N_7  and  C_8 
REMARK    4  A    between atoms: C_8  and  C_9 
REMARK    5  A    between atoms: C_9  and  C_10 
REMARK    6  A    between atoms: C_11  and  C_12 
ROOT
HETATM    1  C   UNL     1      41.282 -14.106   3.386  1.00  0.00     0.006 A 
HETATM    2  C   UNL     1      41.162 -15.534   3.286  1.00  0.00     0.096 A 
HETATM    3  N   UNL     1      39.972 -15.883   2.782  1.00  0.00    -0.173 NA
HETATM    4  N   UNL     1      39.337 -14.731   2.570  1.00  0.00    -0.282 N 
HETATM    5  H   UNL     1      38.401 -14.773   2.181  1.00  0.00     0.189 HD
HETATM    6  C   UNL     1      40.079 -13.626   2.883  1.00  0.00     0.033 A 
HETATM    7  C   UNL     1      39.546 -12.265   2.647  1.00  0.00     0.070 C 
ENDROOT
BRANCH   1   8
HETATM    8  C   UNL     1      42.495 -13.348   3.831  1.00  0.00     0.146 C 
BRANCH   8   9
HETATM    9  C   UNL     1      42.459 -12.923   5.293  1.00  0.00     0.222 C 
HETATM   10  N   UNL     1      43.650 -12.417   5.778  1.00  0.00    -0.359 N 
HETATM   11  H   UNL     1      44.459 -12.478   5.165  1.00  0.00     0.162 HD
HETATM   12  O   UNL     1      41.449 -12.993   5.995  1.00  0.00    -0.273 OA
BRANCH  10  13
HETATM   13  C   UNL     1      43.909 -12.001   7.155  1.00  0.00     0.155 C 
BRANCH  13  14
HETATM   14  C   UNL     1      44.600 -10.636   7.332  1.00  0.00     0.206 C 
HETATM   15  N   UNL     1      44.136  -9.797   8.516  1.00  0.00    -0.066 N 
HETATM   16  H   UNL     1      43.183  -9.464   8.247  1.00  0.00     0.280 HD
HETATM   17  C   UNL     1      45.132  -8.664   8.538  1.00  0.00     0.235 C 
HETATM   18  C   UNL     1      46.439  -9.277   8.034  1.00  0.00     0.030 C 
HETATM   19  C   UNL     1      46.101 -10.683   7.547  1.00  0.00     0.036 C 
BRANCH  15  20
HETATM   20  C   UNL     1      43.960 -10.491   9.844  1.00  0.00     0.231 C 
HETATM   21  C   UNL     1      44.189  -9.525  10.995  1.00  0.00     0.034 C 
ENDBRANCH  15  20
ENDBRANCH  13  14
ENDBRANCH  10  13
ENDBRANCH   8   9
ENDBRANCH   1   8
BRANCH   2  22
HETATM   22  C   UNL     1      42.146 -16.570   3.594  1.00  0.00    -0.005 A 
HETATM   23  C   UNL     1      42.724 -17.347   2.580  1.00  0.00     0.017 A 
HETATM   24  C   UNL     1      43.666 -18.328   2.899  1.00  0.00     0.043 A 
HETATM   25  C   UNL     1      44.036 -18.522   4.226  1.00  0.00     0.116 A 
HETATM   26  F   UNL     1      44.940 -19.463   4.527  1.00  0.00    -0.206 F 
HETATM   27  C   UNL     1      43.486 -17.752   5.242  1.00  0.00     0.043 A 
HETATM   28  C   UNL     1      42.543 -16.773   4.925  1.00  0.00     0.017 A 
ENDBRANCH   2  22
TORSDOF 6
ENDMDL
MODEL 3
REMARK VINA RESULT:      -7.5      2.690      5.624
REMARK  6 active torsions:
REMARK  status: ('A' for Active; 'I' for Inactive)
REMARK    1  A    between atoms: C_2  and  N_3 
REMARK    2  A    between atoms: C_5  and  C_6 
REMARK    3  A    between atoms: C_6  and  N_7 
REMARK       I    between atoms: N_7  and  C_8 
REMARK    4  A    between atoms: C_8  and  C_9 
REMARK    5  A    between atoms: C_9  and  C_10 
REMARK    6  A    between atoms: C_11  and  C_12 
ROOT
HETATM    1  C   UNL     1      42.801 -14.692   4.005  1.00  0.00     0.006 A 
HETATM    2  C   UNL     1      42.762 -16.007   4.584  1.00  0.00     0.096 A 
HETATM    3  N   UNL     1      42.239 -15.976   5.815  1.00  0.00    -0.173 NA
HETATM    4  N   UNL     1      41.956 -14.693   6.036  1.00  0.00    -0.282 N 
HETATM    5  H   UNL     1      41.543 -14.447   6.930  1.00  0.00     0.189 HD
HETATM    6  C   UNL     1      42.241 -13.875   4.979  1.00  0.00     0.033 A 
HETATM    7  C   UNL     1      41.927 -12.429   5.034  1.00  0.00     0.070 C 
ENDROOT
BRANCH   1   8
HETATM    8  C   UNL     1      43.247 -14.349   2.617  1.00  0.00     0.146 C 
BRANCH   8   9
HETATM    9  C   UNL     1      42.104 -14.094   1.643  1.00  0.00     0.222 C 
HETATM   10  N   UNL     1      41.743 -12.767   1.510  1.00  0.00    -0.359 N 
HETATM   11  H   UNL     1      42.184 -12.105   2.144  1.00  0.00     0.162 HD
HETATM   12  O   UNL     1      41.552 -14.986   0.998  1.00  0.00    -0.273 OA
BRANCH  10  13
HETATM   13  C   UNL     1      40.641 -12.254   0.699  1.00  0.00     0.155 C 
BRANCH  13  14
HETATM   14  C   UNL     1      40.926 -12.087  -0.805  1.00  0.00     0.206 C 
HETATM   15  N   UNL     1      40.669 -13.309  -1.677  1.00  0.00    -0.066 N 
HETATM   16  H   UNL     1      41.441 -13.971  -1.438  1.00  0.00     0.280 HD
HETATM   17  C   UNL     1      40.822 -12.764  -3.076  1.00  0.00     0.235 C 
HETATM   18  C   UNL     1      40.334 -11.318  -2.991  1.00  0.00     0.030 C 
HETATM   19  C   UNL     1      40.113 -11.018  -1.512  1.00  0.00     0.036 C 
BRANCH  15  20
HETATM   20  C   UNL     1      39.392 -14.080  -1.450  1.00  0.00     0.231 C 
HETATM   21  C   UNL     1      38.950 -14.783  -2.724  1.00  0.00     0.034 C 
ENDBRANCH  15  20
ENDBRANCH  13  14
ENDBRANCH  10  13
ENDBRANCH   8   9
ENDBRANCH   1   8
BRANCH   2  22
HETATM   22  C   UNL     1      43.145 -17.289   3.996  1.00  0.00    -0.005 A 
HETATM   23  C   UNL     1      43.993 -18.175   4.675  1.00  0.00     0.017 A 
HETATM   24  C   UNL     1      44.342 -19.397   4.094  1.00  0.00     0.043 A 
HETATM   25  C   UNL     1      43.835 -19.734   2.843  1.00  0.00     0.116 A 
HETATM   26  F   UNL     1      44.171 -20.907   2.291  1.00  0.00    -0.206 F 
HETATM   27  C   UNL     1      42.981 -18.877   2.162  1.00  0.00     0.043 A 
HETATM   28  C   UNL     1      42.633 -17.654   2.740  1.00  0.00     0.017 A 
ENDBRANCH   2  22
TORSDOF 6
ENDMDL
MODEL 4
REMARK VINA RESULT:      -7.5      2.671      5.715
REMARK  6 active torsions:
REMARK  status: ('A' for Active; 'I' for Inactive)
REMARK    1  A    between atoms: C_2  and  N_3 
REMARK    2  A    between atoms: C_5  and  C_6 
REMARK    3  A    between atoms: C_6  and  N_7 
REMARK       I    between atoms: N_7  and  C_8 
REMARK    4  A    between atoms: C_8  and  C_9 
REMARK    5  A    between atoms: C_9  and  C_10 
REMARK    6  A    between atoms: C_11  and  C_12 
ROOT
HETATM    1  C   UNL     1      41.521 -15.185   4.389  1.00  0.00     0.006 A 
HETATM    2  C   UNL     1      42.707 -15.972   4.588  1.00  0.00     0.096 A 
HETATM    3  N   UNL     1      43.508 -15.413   5.503  1.00  0.00    -0.173 NA
HETATM    4  N   UNL     1      42.877 -14.302   5.880  1.00  0.00    -0.282 N 
HETATM    5  H   UNL     1      43.323 -13.721   6.582  1.00  0.00     0.189 HD
HETATM    6  C   UNL     1      41.666 -14.123   5.272  1.00  0.00     0.033 A 
HETATM    7  C   UNL     1      40.806 -12.970   5.626  1.00  0.00     0.070 C 
ENDROOT
BRANCH   1   8
HETATM    8  C   UNL     1      40.365 -15.534   3.503  1.00  0.00     0.146 C 
BRANCH   8   9
HETATM    9  C   UNL     1      40.051 -14.479   2.450  1.00  0.00     0.222 C 
HETATM   10  N   UNL     1      40.765 -14.606   1.274  1.00  0.00    -0.359 N 
HETATM   11  H   UNL     1      41.503 -15.306   1.257  1.00  0.00     0.162 HD
HETATM   12  O   UNL     1      39.210 -13.593   2.608  1.00  0.00    -0.273 OA
BRANCH  10  13
HETATM   13  C   UNL     1      40.708 -13.696   0.132  1.00  0.00     0.155 C 
BRANCH  13  14
HETATM   14  C   UNL     1      39.677 -14.039  -0.959  1.00  0.00     0.206 C 
HETATM   15  N   UNL     1      38.413 -13.188  -0.980  1.00  0.00    -0.066 N 
HETATM   16  H   UNL     1      37.872 -13.497  -0.142  1.00  0.00     0.280 HD
HETATM   17  C   UNL     1      37.740 -13.616  -2.261  1.00  0.00     0.235 C 
HETATM   18  C   UNL     1      38.886 -13.956  -3.214  1.00  0.00     0.030 C 
HETATM   19  C   UNL     1      40.168 -13.912  -2.389  1.00  0.00     0.036 C 
BRANCH  15  20
HETATM   20  C   UNL     1      38.568 -11.694  -0.831  1.00  0.00     0.231 C 
HETATM   21  C   UNL     1      37.821 -11.192   0.394  1.00  0.00     0.034 C 
ENDBRANCH  15  20
ENDBRANCH  13  14
ENDBRANCH  10  13
ENDBRANCH   8   9
ENDBRANCH   1   8
BRANCH   2  22
HETATM   22  C   UNL     1      43.079 -17.254   3.991  1.00  0.00    -0.005 A 
HETATM   23  C   UNL     1      42.778 -17.545   2.653  1.00  0.00     0.017 A 
HETATM   24  C   UNL     1      43.148 -18.776   2.103  1.00  0.00     0.043 A 
HETATM   25  C   UNL     1      43.825 -19.704   2.887  1.00  0.00     0.116 A 
HETATM   26  F   UNL     1      44.179 -20.881   2.355  1.00  0.00    -0.206 F 
HETATM   27  C   UNL     1      44.146 -19.427   4.209  1.00  0.00     0.043 A 
HETATM   28  C   UNL     1      43.776 -18.199   4.760  1.00  0.00     0.017 A 
ENDBRANCH   2  22
TORSDOF 6
ENDMDL
MODEL 5
REMARK VINA RESULT:      -7.3      2.534      5.724
REMARK  6 active torsions:
REMARK  status: ('A' for Active; 'I' for Inactive)
REMARK    1  A    between atoms: C_2  and  N_3 
REMARK    2  A    between atoms: C_5  and  C_6 
REMARK    3  A    between atoms: C_6  and  N_7 
REMARK       I    between atoms: N_7  and  C_8 
REMARK    4  A    between atoms: C_8  and  C_9 
REMARK    5  A    between atoms: C_9  and  C_10 
REMARK    6  A    between atoms: C_11  and  C_12 
ROOT
HETATM    1  C   UNL     1      41.975 -14.010   5.020  1.00  0.00     0.006 A 
HETATM    2  C   UNL     1      41.667 -15.411   4.940  1.00  0.00     0.096 A 
HETATM    3  N   UNL     1      40.508 -15.686   5.551  1.00  0.00    -0.173 NA
HETATM    4  N   UNL     1      40.080 -14.514   6.018  1.00  0.00    -0.282 N 
HETATM    5  H   UNL     1      39.200 -14.500   6.523  1.00  0.00     0.189 HD
HETATM    6  C   UNL     1      40.898 -13.464   5.708  1.00  0.00     0.033 A 
HETATM    7  C   UNL     1      40.536 -12.081   6.097  1.00  0.00     0.070 C 
ENDROOT
BRANCH   1   8
HETATM    8  C   UNL     1      43.146 -13.323   4.388  1.00  0.00     0.146 C 
BRANCH   8   9
HETATM    9  C   UNL     1      42.769 -12.351   3.277  1.00  0.00     0.222 C 
HETATM   10  N   UNL     1      41.737 -12.776   2.463  1.00  0.00    -0.359 N 
HETATM   11  H   UNL     1      41.404 -13.726   2.601  1.00  0.00     0.162 HD
HETATM   12  O   UNL     1      43.313 -11.257   3.121  1.00  0.00    -0.273 OA
BRANCH  10  13
HETATM   13  C   UNL     1      41.225 -12.073   1.289  1.00  0.00     0.155 C 
BRANCH  13  14
HETATM   14  C   UNL     1      40.182 -12.831   0.445  1.00  0.00     0.206 C 
HETATM   15  N   UNL     1      39.943 -12.300  -0.962  1.00  0.00    -0.066 N 
HETATM   16  H   UNL     1      39.420 -11.406  -0.823  1.00  0.00     0.280 HD
HETATM   17  C   UNL     1      39.066 -13.363  -1.579  1.00  0.00     0.235 C 
HETATM   18  C   UNL     1      39.516 -14.671  -0.929  1.00  0.00     0.030 C 
HETATM   19  C   UNL     1      40.489 -14.293   0.183  1.00  0.00     0.036 C 
BRANCH  15  20
HETATM   20  C   UNL     1      41.149 -11.935  -1.792  1.00  0.00     0.231 C 
HETATM   21  C   UNL     1      40.856 -12.099  -3.275  1.00  0.00     0.034 C 
ENDBRANCH  15  20
ENDBRANCH  13  14
ENDBRANCH  10  13
ENDBRANCH   8   9
ENDBRANCH   1   8
BRANCH   2  22
HETATM   22  C   UNL     1      42.396 -16.482   4.262  1.00  0.00    -0.005 A 
HETATM   23  C   UNL     1      42.153 -16.786   2.916  1.00  0.00     0.017 A 
HETATM   24  C   UNL     1      42.866 -17.812   2.289  1.00  0.00     0.043 A 
HETATM   25  C   UNL     1      43.825 -18.521   3.004  1.00  0.00     0.116 A 
HETATM   26  F   UNL     1      44.506 -19.501   2.399  1.00  0.00    -0.206 F 
HETATM   27  C   UNL     1      44.090 -18.223   4.334  1.00  0.00     0.043 A 
HETATM   28  C   UNL     1      43.378 -17.200   4.963  1.00  0.00     0.017 A 
ENDBRANCH   2  22
TORSDOF 6
ENDMDL
MODEL 6
REMARK VINA RESULT:      -7.3      2.725      4.640
REMARK  6 active torsions:
REMARK  status: ('A' for Active; 'I' for Inactive)
REMARK    1  A    between atoms: C_2  and  N_3 
REMARK    2  A    between atoms: C_5  and  C_6 
REMARK    3  A    between atoms: C_6  and  N_7 
REMARK       I    between atoms: N_7  and  C_8 
REMARK    4  A    between atoms: C_8  and  C_9 
REMARK    5  A    between atoms: C_9  and  C_10 
REMARK    6  A    between atoms: C_11  and  C_12 
ROOT
HETATM    1  C   UNL     1      43.456 -18.292   4.548  1.00  0.00     0.006 A 
HETATM    2  C   UNL     1      43.195 -17.800   3.223  1.00  0.00     0.096 A 
HETATM    3  N   UNL     1      43.565 -18.693   2.296  1.00  0.00    -0.173 NA
HETATM    4  N   UNL     1      44.056 -19.722   2.986  1.00  0.00    -0.282 N 
HETATM    5  H   UNL     1      44.397 -20.521   2.463  1.00  0.00     0.189 HD
HETATM    6  C   UNL     1      43.991 -19.558   4.342  1.00  0.00     0.033 A 
HETATM    7  C   UNL     1      44.436 -20.635   5.256  1.00  0.00     0.070 C 
ENDROOT
BRANCH   1   8
HETATM    8  C   UNL     1      43.105 -17.606   5.832  1.00  0.00     0.146 C 
BRANCH   8   9
HETATM    9  C   UNL     1      44.004 -16.425   6.170  1.00  0.00     0.222 C 
HETATM   10  N   UNL     1      43.336 -15.239   6.405  1.00  0.00    -0.359 N 
HETATM   11  H   UNL     1      42.336 -15.231   6.224  1.00  0.00     0.162 HD
HETATM   12  O   UNL     1      45.230 -16.510   6.257  1.00  0.00    -0.273 OA
BRANCH  10  13
HETATM   13  C   UNL     1      43.956 -13.944   6.682  1.00  0.00     0.155 C 
BRANCH  13  14
HETATM   14  C   UNL     1      43.098 -12.702   6.375  1.00  0.00     0.206 C 
HETATM   15  N   UNL     1      43.668 -11.364   6.828  1.00  0.00    -0.066 N 
HETATM   16  H   UNL     1      43.574 -11.374   7.868  1.00  0.00     0.280 HD
HETATM   17  C   UNL     1      42.728 -10.366   6.197  1.00  0.00     0.235 C 
HETATM   18  C   UNL     1      42.283 -11.017   4.887  1.00  0.00     0.030 C 
HETATM   19  C   UNL     1      42.817 -12.446   4.906  1.00  0.00     0.036 C 
BRANCH  15  20
HETATM   20  C   UNL     1      45.128 -11.094   6.559  1.00  0.00     0.231 C 
HETATM   21  C   UNL     1      45.848 -10.688   7.835  1.00  0.00     0.034 C 
ENDBRANCH  15  20
ENDBRANCH  13  14
ENDBRANCH  10  13
ENDBRANCH   8   9
ENDBRANCH   1   8
BRANCH   2  22
HETATM   22  C   UNL     1      42.561 -16.551   2.807  1.00  0.00    -0.005 A 
HETATM   23  C   UNL     1      41.205 -16.304   3.064  1.00  0.00     0.017 A 
HETATM   24  C   UNL     1      40.622 -15.100   2.661  1.00  0.00     0.043 A 
HETATM   25  C   UNL     1      41.397 -14.143   2.014  1.00  0.00     0.116 A 
HETATM   26  F   UNL     1      40.835 -12.990   1.631  1.00  0.00    -0.206 F 
HETATM   27  C   UNL     1      42.745 -14.363   1.765  1.00  0.00     0.043 A 
HETATM   28  C   UNL     1      43.329 -15.566   2.165  1.00  0.00     0.017 A 
ENDBRANCH   2  22
TORSDOF 6
ENDMDL
MODEL 7
REMARK VINA RESULT:      -7.0      2.640      4.534
REMARK  6 active torsions:
REMARK  status: ('A' for Active; 'I' for Inactive)
REMARK    1  A    between atoms: C_2  and  N_3 
REMARK    2  A    between atoms: C_5  and  C_6 
REMARK    3  A    between atoms: C_6  and  N_7 
REMARK       I    between atoms: N_7  and  C_8 
REMARK    4  A    between atoms: C_8  and  C_9 
REMARK    5  A    between atoms: C_9  and  C_10 
REMARK    6  A    between atoms: C_11  and  C_12 
ROOT
HETATM    1  C   UNL     1      43.565 -18.387   3.163  1.00  0.00     0.006 A 
HETATM    2  C   UNL     1      43.566 -18.365   4.600  1.00  0.00     0.096 A 
HETATM    3  N   UNL     1      43.752 -19.592   5.100  1.00  0.00    -0.173 NA
HETATM    4  N   UNL     1      43.859 -20.386   4.035  1.00  0.00    -0.282 N 
HETATM    5  H   UNL     1      44.008 -21.376   4.198  1.00  0.00     0.189 HD
HETATM    6  C   UNL     1      43.786 -19.721   2.843  1.00  0.00     0.033 A 
HETATM    7  C   UNL     1      43.950 -20.446   1.562  1.00  0.00     0.070 C 
ENDROOT
BRANCH   1   8
HETATM    8  C   UNL     1      43.460 -17.198   2.258  1.00  0.00     0.146 C 
BRANCH   8   9
HETATM    9  C   UNL     1      42.125 -16.470   2.342  1.00  0.00     0.222 C 
HETATM   10  N   UNL     1      42.223 -15.101   2.492  1.00  0.00    -0.359 N 
HETATM   11  H   UNL     1      43.153 -14.719   2.645  1.00  0.00     0.162 HD
HETATM   12  O   UNL     1      41.036 -17.040   2.258  1.00  0.00    -0.273 OA
BRANCH  10  13
HETATM   13  C   UNL     1      41.106 -14.174   2.665  1.00  0.00     0.155 C 
BRANCH  13  14
HETATM   14  C   UNL     1      40.856 -13.672   4.100  1.00  0.00     0.206 C 
HETATM   15  N   UNL     1      41.902 -12.723   4.672  1.00  0.00    -0.066 N 
HETATM   16  H   UNL     1      42.735 -13.326   4.852  1.00  0.00     0.280 HD
HETATM   17  C   UNL     1      41.266 -12.257   5.959  1.00  0.00     0.235 C 
HETATM   18  C   UNL     1      39.764 -12.240   5.674  1.00  0.00     0.030 C 
HETATM   19  C   UNL     1      39.572 -12.890   4.308  1.00  0.00     0.036 C 
BRANCH  15  20
HETATM   20  C   UNL     1      42.397 -11.606   3.786  1.00  0.00     0.231 C 
HETATM   21  C   UNL     1      43.895 -11.724   3.552  1.00  0.00     0.034 C 
ENDBRANCH  15  20
ENDBRANCH  13  14
ENDBRANCH  10  13
ENDBRANCH   8   9
ENDBRANCH   1   8
BRANCH   2  22
HETATM   22  C   UNL     1      43.456 -17.225   5.508  1.00  0.00    -0.005 A 
HETATM   23  C   UNL     1      42.220 -16.842   6.046  1.00  0.00     0.017 A 
HETATM   24  C   UNL     1      42.141 -15.751   6.916  1.00  0.00     0.043 A 
HETATM   25  C   UNL     1      43.296 -15.054   7.252  1.00  0.00     0.116 A 
HETATM   26  F   UNL     1      43.216 -14.010   8.087  1.00  0.00    -0.206 F 
HETATM   27  C   UNL     1      44.532 -15.428   6.741  1.00  0.00     0.043 A 
HETATM   28  C   UNL     1      44.613 -16.516   5.871  1.00  0.00     0.017 A 
ENDBRANCH   2  22
TORSDOF 6
ENDMDL
MODEL 8
REMARK VINA RESULT:      -7.0      2.565      3.553
REMARK  6 active torsions:
REMARK  status: ('A' for Active; 'I' for Inactive)
REMARK    1  A    between atoms: C_2  and  N_3 
REMARK    2  A    between atoms: C_5  and  C_6 
REMARK    3  A    between atoms: C_6  and  N_7 
REMARK       I    between atoms: N_7  and  C_8 
REMARK    4  A    between atoms: C_8  and  C_9 
REMARK    5  A    between atoms: C_9  and  C_10 
REMARK    6  A    between atoms: C_11  and  C_12 
ROOT
HETATM    1  C   UNL     1      41.791 -14.453   2.068  1.00  0.00     0.006 A 
HETATM    2  C   UNL     1      41.498 -15.818   2.412  1.00  0.00     0.096 A 
HETATM    3  N   UNL     1      40.249 -16.145   2.061  1.00  0.00    -0.173 NA
HETATM    4  N   UNL     1      39.743 -15.039   1.518  1.00  0.00    -0.282 N 
HETATM    5  H   UNL     1      38.787 -15.074   1.179  1.00  0.00     0.189 HD
HETATM    6  C   UNL     1      40.626 -13.996   1.465  1.00  0.00     0.033 A 
HETATM    7  C   UNL     1      40.244 -12.712   0.834  1.00  0.00     0.070 C 
ENDROOT
BRANCH   1   8
HETATM    8  C   UNL     1      43.108 -13.760   2.238  1.00  0.00     0.146 C 
BRANCH   8   9
HETATM    9  C   UNL     1      43.088 -12.634   3.263  1.00  0.00     0.222 C 
HETATM   10  N   UNL     1      42.554 -12.978   4.489  1.00  0.00    -0.359 N 
HETATM   11  H   UNL     1      42.125 -13.898   4.563  1.00  0.00     0.162 HD
HETATM   12  O   UNL     1      43.534 -11.507   3.041  1.00  0.00    -0.273 OA
BRANCH  10  13
HETATM   13  C   UNL     1      42.354 -12.078   5.623  1.00  0.00     0.155 C 
BRANCH  13  14
HETATM   14  C   UNL     1      40.891 -11.757   5.985  1.00  0.00     0.206 C 
HETATM   15  N   UNL     1      40.683 -10.767   7.124  1.00  0.00    -0.066 N 
HETATM   16  H   UNL     1      40.953 -11.293   7.985  1.00  0.00     0.280 HD
HETATM   17  C   UNL     1      39.197 -10.507   7.077  1.00  0.00     0.235 C 
HETATM   18  C   UNL     1      38.823 -10.620   5.599  1.00  0.00     0.030 C 
HETATM   19  C   UNL     1      40.060 -11.142   4.875  1.00  0.00     0.036 C 
BRANCH  15  20
HETATM   20  C   UNL     1      41.530  -9.517   7.134  1.00  0.00     0.231 C 
HETATM   21  C   UNL     1      40.886  -8.434   7.985  1.00  0.00     0.034 C 
ENDBRANCH  15  20
ENDBRANCH  13  14
ENDBRANCH  10  13
ENDBRANCH   8   9
ENDBRANCH   1   8
BRANCH   2  22
HETATM   22  C   UNL     1      42.370 -16.831   3.003  1.00  0.00    -0.005 A 
HETATM   23  C   UNL     1      42.912 -17.865   2.227  1.00  0.00     0.017 A 
HETATM   24  C   UNL     1      43.747 -18.819   2.815  1.00  0.00     0.043 A 
HETATM   25  C   UNL     1      44.046 -18.731   4.170  1.00  0.00     0.116 A 
HETATM   26  F   UNL     1      44.847 -19.647   4.728  1.00  0.00    -0.206 F 
HETATM   27  C   UNL     1      43.531 -17.705   4.952  1.00  0.00     0.043 A 
HETATM   28  C   UNL     1      42.695 -16.752   4.367  1.00  0.00     0.017 A 
ENDBRANCH   2  22
TORSDOF 6
ENDMDL
MODEL 9
REMARK VINA RESULT:      -6.9      2.877      5.904
REMARK  6 active torsions:
REMARK  status: ('A' for Active; 'I' for Inactive)
REMARK    1  A    between atoms: C_2  and  N_3 
REMARK    2  A    between atoms: C_5  and  C_6 
REMARK    3  A    between atoms: C_6  and  N_7 
REMARK       I    between atoms: N_7  and  C_8 
REMARK    4  A    between atoms: C_8  and  C_9 
REMARK    5  A    between atoms: C_9  and  C_10 
REMARK    6  A    between atoms: C_11  and  C_12 
ROOT
HETATM    1  C   UNL     1      43.573 -18.415   3.058  1.00  0.00     0.006 A 
HETATM    2  C   UNL     1      43.549 -18.389   4.495  1.00  0.00     0.096 A 
HETATM    3  N   UNL     1      43.692 -19.620   5.001  1.00  0.00    -0.173 NA
HETATM    4  N   UNL     1      43.797 -20.419   3.939  1.00  0.00    -0.282 N 
HETATM    5  H   UNL     1      43.915 -21.412   4.105  1.00  0.00     0.189 HD
HETATM    6  C   UNL     1      43.763 -19.755   2.744  1.00  0.00     0.033 A 
HETATM    7  C   UNL     1      43.931 -20.486   1.468  1.00  0.00     0.070 C 
ENDROOT
BRANCH   1   8
HETATM    8  C   UNL     1      43.518 -17.225   2.150  1.00  0.00     0.146 C 
BRANCH   8   9
HETATM    9  C   UNL     1      42.152 -16.555   2.088  1.00  0.00     0.222 C 
HETATM   10  N   UNL     1      42.170 -15.246   1.647  1.00  0.00    -0.359 N 
HETATM   11  H   UNL     1      43.082 -14.817   1.515  1.00  0.00     0.162 HD
HETATM   12  O   UNL     1      41.101 -17.129   2.378  1.00  0.00    -0.273 OA
BRANCH  10  13
HETATM   13  C   UNL     1      41.015 -14.354   1.556  1.00  0.00     0.155 C 
BRANCH  13  14
HETATM   14  C   UNL     1      41.138 -13.184   0.562  1.00  0.00     0.206 C 
HETATM   15  N   UNL     1      40.716 -13.475  -0.873  1.00  0.00    -0.066 N 
HETATM   16  H   UNL     1      41.471 -14.090  -1.251  1.00  0.00     0.280 HD
HETATM   17  C   UNL     1      40.741 -12.110  -1.515  1.00  0.00     0.235 C 
HETATM   18  C   UNL     1      40.348 -11.142  -0.400  1.00  0.00     0.030 C 
HETATM   19  C   UNL     1      40.311 -11.955   0.891  1.00  0.00     0.036 C 
BRANCH  15  20
HETATM   20  C   UNL     1      39.431 -14.238  -1.088  1.00  0.00     0.231 C 
HETATM   21  C   UNL     1      39.238 -14.567  -2.560  1.00  0.00     0.034 C 
ENDBRANCH  15  20
ENDBRANCH  13  14
ENDBRANCH  10  13
ENDBRANCH   8   9
ENDBRANCH   1   8
BRANCH   2  22
HETATM   22  C   UNL     1      43.454 -17.245   5.399  1.00  0.00    -0.005 A 
HETATM   23  C   UNL     1      42.216 -16.809   5.890  1.00  0.00     0.017 A 
HETATM   24  C   UNL     1      42.151 -15.715   6.757  1.00  0.00     0.043 A 
HETATM   25  C   UNL     1      43.322 -15.068   7.138  1.00  0.00     0.116 A 
HETATM   26  F   UNL     1      43.255 -14.021   7.969  1.00  0.00    -0.206 F 
HETATM   27  C   UNL     1      44.559 -15.495   6.674  1.00  0.00     0.043 A 
HETATM   28  C   UNL     1      44.625 -16.586   5.806  1.00  0.00     0.017 A 
ENDBRANCH   2  22
TORSDOF 6
ENDMDL
MODEL 10
REMARK VINA RESULT:      -6.7      2.661      4.782
REMARK  6 active torsions:
REMARK  status: ('A' for Active; 'I' for Inactive)
REMARK    1  A    between atoms: C_2  and  N_3 
REMARK    2  A    between atoms: C_5  and  C_6 
REMARK    3  A    between atoms: C_6  and  N_7 
REMARK       I    between atoms: N_7  and  C_8 
REMARK    4  A    between atoms: C_8  and  C_9 
REMARK    5  A    between atoms: C_9  and  C_10 
REMARK    6  A    between atoms: C_11  and  C_12 
ROOT
HETATM    1  C   UNL     1      43.544 -18.587   3.208  1.00  0.00     0.006 A 
HETATM    2  C   UNL     1      43.646 -18.562   4.642  1.00  0.00     0.096 A 
HETATM    3  N   UNL     1      43.916 -19.780   5.127  1.00  0.00    -0.173 NA
HETATM    4  N   UNL     1      43.980 -20.571   4.056  1.00  0.00    -0.282 N 
HETATM    5  H   UNL     1      44.180 -21.554   4.206  1.00  0.00     0.189 HD
HETATM    6  C   UNL     1      43.796 -19.912   2.872  1.00  0.00     0.033 A 
HETATM    7  C   UNL     1      43.899 -20.631   1.582  1.00  0.00     0.070 C 
ENDROOT
BRANCH   1   8
HETATM    8  C   UNL     1      43.328 -17.405   2.315  1.00  0.00     0.146 C 
BRANCH   8   9
HETATM    9  C   UNL     1      42.287 -16.420   2.831  1.00  0.00     0.222 C 
HETATM   10  N   UNL     1      42.764 -15.144   3.063  1.00  0.00    -0.359 N 
HETATM   11  H   UNL     1      43.768 -15.007   2.982  1.00  0.00     0.162 HD
HETATM   12  O   UNL     1      41.104 -16.714   3.007  1.00  0.00    -0.273 OA
BRANCH  10  13
HETATM   13  C   UNL     1      42.000 -14.030   3.620  1.00  0.00     0.155 C 
BRANCH  13  14
HETATM   14  C   UNL     1      40.808 -13.537   2.779  1.00  0.00     0.206 C 
HETATM   15  N   UNL     1      39.576 -13.091   3.556  1.00  0.00    -0.066 N 
HETATM   16  H   UNL     1      39.161 -13.976   3.924  1.00  0.00     0.280 HD
HETATM   17  C   UNL     1      38.707 -12.475   2.487  1.00  0.00     0.235 C 
HETATM   18  C   UNL     1      39.687 -11.868   1.483  1.00  0.00     0.030 C 
HETATM   19  C   UNL     1      41.080 -12.331   1.899  1.00  0.00     0.036 C 
BRANCH  15  20
HETATM   20  C   UNL     1      39.786 -12.212   4.765  1.00  0.00     0.231 C 
HETATM   21  C   UNL     1      39.727 -13.029   6.045  1.00  0.00     0.034 C 
ENDBRANCH  15  20
ENDBRANCH  13  14
ENDBRANCH  10  13
ENDBRANCH   8   9
ENDBRANCH   1   8
BRANCH   2  22
HETATM   22  C   UNL     1      43.554 -17.426   5.556  1.00  0.00    -0.005 A 
HETATM   23  C   UNL     1      44.650 -16.581   5.777  1.00  0.00     0.017 A 
HETATM   24  C   UNL     1      44.536 -15.498   6.653  1.00  0.00     0.043 A 
HETATM   25  C   UNL     1      43.327 -15.258   7.296  1.00  0.00     0.116 A 
HETATM   26  F   UNL     1      43.222 -14.218   8.134  1.00  0.00    -0.206 F 
HETATM   27  C   UNL     1      42.225 -16.074   7.078  1.00  0.00     0.043 A 
HETATM   28  C   UNL     1      42.338 -17.158   6.205  1.00  0.00     0.017 A 
ENDBRANCH   2  22
TORSDOF 6
ENDMDL
