MODEL 1
REMARK VINA RESULT:      -9.2      0.000      0.000
REMARK  6 active torsions:
REMARK  status: ('A' for Active; 'I' for Inactive)
REMARK    1  A    between atoms: N_6  and  C_7 
REMARK    2  A    between atoms: C_10  and  N_11 
REMARK    3  A    between atoms: N_11  and  C_12 
REMARK    4  A    between atoms: C_12  and  N_13 
REMARK       I    between atoms: N_13  and  C_14 
REMARK    5  A    between atoms: C_14  and  C_15 
REMARK    6  A    between atoms: C_16  and  O_17 
ROOT
HETATM    1  C   UNL     1      44.392 -11.487   7.342  1.00  0.00     0.179 C 
HETATM    2  S   UNL     1      45.931 -10.835   7.404  1.00  0.00    -0.040 SA
ENDROOT
BRANCH   1   3
HETATM    3  N   UNL     1      43.391 -10.879   8.022  1.00  0.00    -0.333 N 
HETATM    4  H   UNL     1      42.518 -10.807   7.508  1.00  0.00     0.168 HD
BRANCH   3   5
HETATM    5  C   UNL     1      43.438 -10.192   9.248  1.00  0.00     0.034 C 
HETATM    6  C   UNL     1      43.278  -8.809   9.245  1.00  0.00     0.032 C 
HETATM    7  C   UNL     1      43.199  -8.100  10.455  1.00  0.00     0.031 C 
HETATM    8  C   UNL     1      43.271  -8.760  11.689  1.00  0.00     0.030 C 
HETATM    9  C   UNL     1      43.587 -10.126  11.657  1.00  0.00     0.031 C 
HETATM   10  C   UNL     1      43.673 -10.832  10.457  1.00  0.00     0.032 C 
BRANCH   8  11
HETATM   11  N   UNL     1      43.032  -8.147  12.927  1.00  0.00    -0.378 N 
HETATM   12  C   UNL     1      42.217  -8.978  13.850  1.00  0.00     0.150 C 
HETATM   13  C   UNL     1      40.712  -8.741  13.608  1.00  0.00     0.254 C 
HETATM   14  N   UNL     1      40.390  -7.255  13.789  1.00  0.00    -0.072 N 
HETATM   15  C   UNL     1      38.926  -6.977  13.646  1.00  0.00     0.269 C 
HETATM   16  H   UNL     1      40.665  -7.007  14.749  1.00  0.00     0.279 HD
HETATM   17  C   UNL     1      41.231  -6.398  12.844  1.00  0.00     0.254 C 
HETATM   18  C   UNL     1      42.738  -6.705  13.000  1.00  0.00     0.150 C 
ENDBRANCH   8  11
ENDBRANCH   3   5
ENDBRANCH   1   3
BRANCH   1  19
HETATM   19  N   UNL     1      44.191 -12.586   6.554  1.00  0.00    -0.299 N 
HETATM   20  C   UNL     1      43.608 -13.811   6.874  1.00  0.00     0.260 C 
HETATM   21  O   UNL     1      43.187 -14.190   7.960  1.00  0.00    -0.267 OA
HETATM   22  H   UNL     1      44.194 -12.355   5.568  1.00  0.00     0.171 HD
BRANCH  20  23
HETATM   23  C   UNL     1      43.394 -14.689   5.710  1.00  0.00     0.068 A 
HETATM   24  C   UNL     1      42.781 -14.225   4.547  1.00  0.00     0.102 A 
HETATM   25  C   UNL     1      42.729 -15.065   3.419  1.00  0.00     0.056 A 
HETATM   26 BR   UNL     1      42.056 -14.355   1.770  1.00  0.00    -0.047 Br
HETATM   27  C   UNL     1      43.210 -16.407   3.480  1.00  0.00    -0.006 A 
HETATM   28  C   UNL     1      43.788 -16.859   4.697  1.00  0.00    -0.024 A 
HETATM   29  C   UNL     1      43.162 -17.334   2.408  1.00  0.00     0.014 A 
HETATM   30  C   UNL     1      43.889 -15.992   5.790  1.00  0.00     0.032 A 
HETATM   31  C   UNL     1      44.278 -18.169   4.808  1.00  0.00     0.012 A 
HETATM   32  C   UNL     1      44.208 -19.054   3.735  1.00  0.00     0.001 A 
HETATM   33  C   UNL     1      43.651 -18.636   2.535  1.00  0.00     0.001 A 
BRANCH  24  34
HETATM   34  O   UNL     1      42.315 -12.935   4.515  1.00  0.00    -0.353 OA
HETATM   35  C   UNL     1      40.928 -12.864   4.865  1.00  0.00     0.210 C 
ENDBRANCH  24  34
ENDBRANCH  20  23
ENDBRANCH   1  19
TORSDOF 6
ENDMDL
MODEL 2
REMARK VINA RESULT:      -8.8      4.471      6.052
REMARK  6 active torsions:
REMARK  status: ('A' for Active; 'I' for Inactive)
REMARK    1  A    between atoms: N_6  and  C_7 
REMARK    2  A    between atoms: C_10  and  N_11 
REMARK    3  A    between atoms: N_11  and  C_12 
REMARK    4  A    between atoms: C_12  and  N_13 
REMARK       I    between atoms: N_13  and  C_14 
REMARK    5  A    between atoms: C_14  and  C_15 
REMARK    6  A    between atoms: C_16  and  O_17 
ROOT
HETATM    1  C   UNL     1      40.881 -14.120   0.835  1.00  0.00     0.179 C 
HETATM    2  S   UNL     1      39.824 -14.629  -0.356  1.00  0.00    -0.040 SA
ENDROOT
BRANCH   1   3
HETATM    3  N   UNL     1      40.986 -12.796   1.101  1.00  0.00    -0.333 N 
HETATM    4  H   UNL     1      41.286 -12.232   0.312  1.00  0.00     0.168 HD
BRANCH   3   5
HETATM    5  C   UNL     1      40.907 -12.128   2.337  1.00  0.00     0.034 C 
HETATM    6  C   UNL     1      39.707 -12.172   3.043  1.00  0.00     0.032 C 
HETATM    7  C   UNL     1      39.622 -11.622   4.332  1.00  0.00     0.031 C 
HETATM    8  C   UNL     1      40.732 -11.024   4.942  1.00  0.00     0.030 C 
HETATM    9  C   UNL     1      41.875 -10.859   4.147  1.00  0.00     0.031 C 
HETATM   10  C   UNL     1      41.963 -11.398   2.863  1.00  0.00     0.032 C 
BRANCH   8  11
HETATM   11  N   UNL     1      40.769 -10.608   6.280  1.00  0.00    -0.378 N 
HETATM   12  C   UNL     1      39.438 -10.224   6.817  1.00  0.00     0.150 C 
HETATM   13  C   UNL     1      39.140  -8.740   6.517  1.00  0.00     0.254 C 
HETATM   14  N   UNL     1      40.242  -7.863   7.120  1.00  0.00    -0.072 N 
HETATM   15  C   UNL     1      39.963  -6.404   6.931  1.00  0.00     0.269 C 
HETATM   16  H   UNL     1      40.252  -8.052   8.130  1.00  0.00     0.279 HD
HETATM   17  C   UNL     1      41.612  -8.260   6.573  1.00  0.00     0.254 C 
HETATM   18  C   UNL     1      41.878  -9.770   6.770  1.00  0.00     0.150 C 
ENDBRANCH   8  11
ENDBRANCH   3   5
ENDBRANCH   1   3
BRANCH   1  19
HETATM   19  N   UNL     1      41.562 -15.073   1.540  1.00  0.00    -0.299 N 
HETATM   20  C   UNL     1      42.889 -15.080   1.966  1.00  0.00     0.260 C 
HETATM   21  O   UNL     1      43.758 -14.242   1.756  1.00  0.00    -0.267 OA
HETATM   22  H   UNL     1      40.940 -15.683   2.056  1.00  0.00     0.171 HD
BRANCH  20  23
HETATM   23  C   UNL     1      43.218 -16.199   2.867  1.00  0.00     0.068 A 
HETATM   24  C   UNL     1      43.336 -16.018   4.245  1.00  0.00     0.102 A 
HETATM   25  C   UNL     1      43.512 -17.144   5.070  1.00  0.00     0.056 A 
HETATM   26 BR   UNL     1      43.484 -16.907   6.973  1.00  0.00    -0.047 Br
HETATM   27  C   UNL     1      43.662 -18.448   4.510  1.00  0.00    -0.006 A 
HETATM   28  C   UNL     1      43.581 -18.587   3.099  1.00  0.00    -0.024 A 
HETATM   29  C   UNL     1      43.883 -19.631   5.261  1.00  0.00     0.014 A 
HETATM   30  C   UNL     1      43.344 -17.466   2.296  1.00  0.00     0.032 A 
HETATM   31  C   UNL     1      43.720 -19.848   2.499  1.00  0.00     0.012 A 
HETATM   32  C   UNL     1      43.942 -20.987   3.268  1.00  0.00     0.001 A 
HETATM   33  C   UNL     1      44.023 -20.879   4.650  1.00  0.00     0.001 A 
BRANCH  24  34
HETATM   34  O   UNL     1      43.200 -14.753   4.760  1.00  0.00    -0.353 OA
HETATM   35  C   UNL     1      41.848 -14.481   5.146  1.00  0.00     0.210 C 
ENDBRANCH  24  34
ENDBRANCH  20  23
ENDBRANCH   1  19
TORSDOF 6
ENDMDL
MODEL 3
REMARK VINA RESULT:      -8.7      2.884      4.383
REMARK  6 active torsions:
REMARK  status: ('A' for Active; 'I' for Inactive)
REMARK    1  A    between atoms: N_6  and  C_7 
REMARK    2  A    between atoms: C_10  and  N_11 
REMARK    3  A    between atoms: N_11  and  C_12 
REMARK    4  A    between atoms: C_12  and  N_13 
REMARK       I    between atoms: N_13  and  C_14 
REMARK    5  A    between atoms: C_14  and  C_15 
REMARK    6  A    between atoms: C_16  and  O_17 
ROOT
HETATM    1  C   UNL     1      39.577 -12.578   4.077  1.00  0.00     0.179 C 
HETATM    2  S   UNL     1      38.929 -12.140   2.599  1.00  0.00    -0.040 SA
ENDROOT
BRANCH   1   3
HETATM    3  N   UNL     1      39.192 -11.907   5.189  1.00  0.00    -0.333 N 
HETATM    4  H   UNL     1      38.201 -11.972   5.397  1.00  0.00     0.168 HD
BRANCH   3   5
HETATM    5  C   UNL     1      39.928 -11.008   5.984  1.00  0.00     0.034 C 
HETATM    6  C   UNL     1      39.316 -10.457   7.107  1.00  0.00     0.032 C 
HETATM    7  C   UNL     1      40.051  -9.651   7.992  1.00  0.00     0.031 C 
HETATM    8  C   UNL     1      41.410  -9.386   7.776  1.00  0.00     0.030 C 
HETATM    9  C   UNL     1      41.952  -9.826   6.560  1.00  0.00     0.031 C 
HETATM   10  C   UNL     1      41.224 -10.622   5.674  1.00  0.00     0.032 C 
BRANCH   8  11
HETATM   11  N   UNL     1      42.244  -8.737   8.696  1.00  0.00    -0.378 N 
HETATM   12  C   UNL     1      43.642  -9.239   8.683  1.00  0.00     0.150 C 
HETATM   13  C   UNL     1      43.793 -10.451   9.625  1.00  0.00     0.254 C 
HETATM   14  N   UNL     1      43.372 -10.055  11.044  1.00  0.00    -0.072 N 
HETATM   15  C   UNL     1      43.574 -11.172  12.021  1.00  0.00     0.269 C 
HETATM   16  H   UNL     1      43.980  -9.276  11.327  1.00  0.00     0.279 HD
HETATM   17  C   UNL     1      41.935  -9.534  11.058  1.00  0.00     0.254 C 
HETATM   18  C   UNL     1      41.744  -8.389  10.038  1.00  0.00     0.150 C 
ENDBRANCH   8  11
ENDBRANCH   3   5
ENDBRANCH   1   3
BRANCH   1  19
HETATM   19  N   UNL     1      40.433 -13.643   4.113  1.00  0.00    -0.299 N 
HETATM   20  C   UNL     1      41.744 -13.741   3.652  1.00  0.00     0.260 C 
HETATM   21  O   UNL     1      42.406 -12.897   3.062  1.00  0.00    -0.267 OA
HETATM   22  H   UNL     1      40.174 -14.316   4.824  1.00  0.00     0.171 HD
BRANCH  20  23
HETATM   23  C   UNL     1      42.416 -14.995   4.036  1.00  0.00     0.068 A 
HETATM   24  C   UNL     1      42.867 -15.215   5.337  1.00  0.00     0.102 A 
HETATM   25  C   UNL     1      43.374 -16.482   5.681  1.00  0.00     0.056 A 
HETATM   26 BR   UNL     1      43.815 -16.832   7.515  1.00  0.00    -0.047 Br
HETATM   27  C   UNL     1      43.515 -17.507   4.700  1.00  0.00    -0.006 A 
HETATM   28  C   UNL     1      43.086 -17.232   3.374  1.00  0.00    -0.024 A 
HETATM   29  C   UNL     1      44.051 -18.796   4.947  1.00  0.00     0.014 A 
HETATM   30  C   UNL     1      42.527 -15.988   3.061  1.00  0.00     0.032 A 
HETATM   31  C   UNL     1      43.201 -18.208   2.372  1.00  0.00     0.012 A 
HETATM   32  C   UNL     1      43.739 -19.462   2.651  1.00  0.00     0.001 A 
HETATM   33  C   UNL     1      44.163 -19.757   3.939  1.00  0.00     0.001 A 
BRANCH  24  34
HETATM   34  O   UNL     1      42.732 -14.210   6.262  1.00  0.00    -0.353 OA
HETATM   35  C   UNL     1      43.936 -13.445   6.393  1.00  0.00     0.210 C 
ENDBRANCH  24  34
ENDBRANCH  20  23
ENDBRANCH   1  19
TORSDOF 6
ENDMDL
MODEL 4
REMARK VINA RESULT:      -8.7      6.834     10.413
REMARK  6 active torsions:
REMARK  status: ('A' for Active; 'I' for Inactive)
REMARK    1  A    between atoms: N_6  and  C_7 
REMARK    2  A    between atoms: C_10  and  N_11 
REMARK    3  A    between atoms: N_11  and  C_12 
REMARK    4  A    between atoms: C_12  and  N_13 
REMARK       I    between atoms: N_13  and  C_14 
REMARK    5  A    between atoms: C_14  and  C_15 
REMARK    6  A    between atoms: C_16  and  O_17 
ROOT
HETATM    1  C   UNL     1      40.145 -13.848   1.504  1.00  0.00     0.179 C 
HETATM    2  S   UNL     1      40.020 -12.408   2.344  1.00  0.00    -0.040 SA
ENDROOT
BRANCH   1   3
HETATM    3  N   UNL     1      39.480 -13.988   0.332  1.00  0.00    -0.333 N 
HETATM    4  H   UNL     1      39.063 -14.903   0.193  1.00  0.00     0.168 HD
BRANCH   3   5
HETATM    5  C   UNL     1      39.433 -13.119  -0.773  1.00  0.00     0.034 C 
HETATM    6  C   UNL     1      38.260 -12.407  -1.012  1.00  0.00     0.032 C 
HETATM    7  C   UNL     1      38.211 -11.441  -2.031  1.00  0.00     0.031 C 
HETATM    8  C   UNL     1      39.332 -11.164  -2.824  1.00  0.00     0.030 C 
HETATM    9  C   UNL     1      40.443 -12.003  -2.660  1.00  0.00     0.031 C 
HETATM   10  C   UNL     1      40.494 -12.968  -1.654  1.00  0.00     0.032 C 
BRANCH   8  11
HETATM   11  N   UNL     1      39.409 -10.105  -3.739  1.00  0.00    -0.378 N 
HETATM   12  C   UNL     1      40.788  -9.585  -3.926  1.00  0.00     0.150 C 
HETATM   13  C   UNL     1      41.109  -8.505  -2.872  1.00  0.00     0.254 C 
HETATM   14  N   UNL     1      40.084  -7.370  -2.971  1.00  0.00    -0.072 N 
HETATM   15  C   UNL     1      40.393  -6.252  -2.025  1.00  0.00     0.269 C 
HETATM   16  H   UNL     1      40.145  -6.999  -3.928  1.00  0.00     0.279 HD
HETATM   17  C   UNL     1      38.664  -7.904  -2.784  1.00  0.00     0.254 C 
HETATM   18  C   UNL     1      38.367  -9.063  -3.763  1.00  0.00     0.150 C 
ENDBRANCH   8  11
ENDBRANCH   3   5
ENDBRANCH   1   3
BRANCH   1  19
HETATM   19  N   UNL     1      40.968 -14.817   2.008  1.00  0.00    -0.299 N 
HETATM   20  C   UNL     1      42.358 -14.837   2.102  1.00  0.00     0.260 C 
HETATM   21  O   UNL     1      43.158 -14.000   1.705  1.00  0.00    -0.267 OA
HETATM   22  H   UNL     1      40.483 -15.435   2.648  1.00  0.00     0.171 HD
BRANCH  20  23
HETATM   23  C   UNL     1      42.884 -15.975   2.878  1.00  0.00     0.068 A 
HETATM   24  C   UNL     1      43.265 -15.837   4.212  1.00  0.00     0.102 A 
HETATM   25  C   UNL     1      43.627 -16.984   4.943  1.00  0.00     0.056 A 
HETATM   26 BR   UNL     1      43.966 -16.810   6.823  1.00  0.00    -0.047 Br
HETATM   27  C   UNL     1      43.695 -18.262   4.315  1.00  0.00    -0.006 A 
HETATM   28  C   UNL     1      43.342 -18.357   2.942  1.00  0.00    -0.024 A 
HETATM   29  C   UNL     1      44.087 -19.462   4.962  1.00  0.00     0.014 A 
HETATM   30  C   UNL     1      42.925 -17.218   2.245  1.00  0.00     0.032 A 
HETATM   31  C   UNL     1      43.391 -19.593   2.279  1.00  0.00     0.012 A 
HETATM   32  C   UNL     1      43.787 -20.749   2.946  1.00  0.00     0.001 A 
HETATM   33  C   UNL     1      44.134 -20.684   4.288  1.00  0.00     0.001 A 
BRANCH  24  34
HETATM   34  O   UNL     1      43.202 -14.594   4.792  1.00  0.00    -0.353 OA
HETATM   35  C   UNL     1      41.937 -14.367   5.423  1.00  0.00     0.210 C 
ENDBRANCH  24  34
ENDBRANCH  20  23
ENDBRANCH   1  19
TORSDOF 6
ENDMDL
MODEL 5
REMARK VINA RESULT:      -8.5      1.693      2.152
REMARK  6 active torsions:
REMARK  status: ('A' for Active; 'I' for Inactive)
REMARK    1  A    between atoms: N_6  and  C_7 
REMARK    2  A    between atoms: C_10  and  N_11 
REMARK    3  A    between atoms: N_11  and  C_12 
REMARK    4  A    between atoms: C_12  and  N_13 
REMARK       I    between atoms: N_13  and  C_14 
REMARK    5  A    between atoms: C_14  and  C_15 
REMARK    6  A    between atoms: C_16  and  O_17 
ROOT
HETATM    1  C   UNL     1      44.373 -12.070   7.148  1.00  0.00     0.179 C 
HETATM    2  S   UNL     1      45.676 -11.120   6.706  1.00  0.00    -0.040 SA
ENDROOT
BRANCH   1   3
HETATM    3  N   UNL     1      43.623 -11.704   8.216  1.00  0.00    -0.333 N 
HETATM    4  H   UNL     1      43.158 -12.474   8.685  1.00  0.00     0.168 HD
BRANCH   3   5
HETATM    5  C   UNL     1      43.266 -10.415   8.653  1.00  0.00     0.034 C 
HETATM    6  C   UNL     1      43.835  -9.927   9.826  1.00  0.00     0.032 C 
HETATM    7  C   UNL     1      43.600  -8.604  10.233  1.00  0.00     0.031 C 
HETATM    8  C   UNL     1      42.798  -7.742   9.473  1.00  0.00     0.030 C 
HETATM    9  C   UNL     1      42.118  -8.309   8.385  1.00  0.00     0.031 C 
HETATM   10  C   UNL     1      42.344  -9.625   7.981  1.00  0.00     0.032 C 
BRANCH   8  11
HETATM   11  N   UNL     1      42.656  -6.370   9.723  1.00  0.00    -0.378 N 
HETATM   12  C   UNL     1      42.387  -6.055  11.150  1.00  0.00     0.150 C 
HETATM   13  C   UNL     1      40.873  -6.115  11.443  1.00  0.00     0.254 C 
HETATM   14  N   UNL     1      40.132  -5.140  10.522  1.00  0.00    -0.072 N 
HETATM   15  C   UNL     1      38.664  -5.096  10.817  1.00  0.00     0.269 C 
HETATM   16  H   UNL     1      40.518  -4.206  10.708  1.00  0.00     0.279 HD
HETATM   17  C   UNL     1      40.412  -5.461   9.054  1.00  0.00     0.254 C 
HETATM   18  C   UNL     1      41.931  -5.510   8.771  1.00  0.00     0.150 C 
ENDBRANCH   8  11
ENDBRANCH   3   5
ENDBRANCH   1   3
BRANCH   1  19
HETATM   19  N   UNL     1      44.077 -13.157   6.374  1.00  0.00    -0.299 N 
HETATM   20  C   UNL     1      43.470 -14.359   6.730  1.00  0.00     0.260 C 
HETATM   21  O   UNL     1      43.107 -14.726   7.841  1.00  0.00    -0.267 OA
HETATM   22  H   UNL     1      44.024 -12.921   5.390  1.00  0.00     0.171 HD
BRANCH  20  23
HETATM   23  C   UNL     1      43.145 -15.224   5.582  1.00  0.00     0.068 A 
HETATM   24  C   UNL     1      42.316 -14.787   4.549  1.00  0.00     0.102 A 
HETATM   25  C   UNL     1      42.153 -15.600   3.412  1.00  0.00     0.056 A 
HETATM   26 BR   UNL     1      41.165 -14.911   1.919  1.00  0.00    -0.047 Br
HETATM   27  C   UNL     1      42.749 -16.894   3.344  1.00  0.00    -0.006 A 
HETATM   28  C   UNL     1      43.551 -17.323   4.435  1.00  0.00    -0.024 A 
HETATM   29  C   UNL     1      42.606 -17.795   2.258  1.00  0.00     0.014 A 
HETATM   30  C   UNL     1      43.754 -16.479   5.531  1.00  0.00     0.032 A 
HETATM   31  C   UNL     1      44.161 -18.587   4.415  1.00  0.00     0.012 A 
HETATM   32  C   UNL     1      43.993 -19.448   3.333  1.00  0.00     0.001 A 
HETATM   33  C   UNL     1      43.217 -19.051   2.254  1.00  0.00     0.001 A 
BRANCH  24  34
HETATM   34  O   UNL     1      41.743 -13.543   4.642  1.00  0.00    -0.353 OA
HETATM   35  C   UNL     1      40.498 -13.584   5.349  1.00  0.00     0.210 C 
ENDBRANCH  24  34
ENDBRANCH  20  23
ENDBRANCH   1  19
TORSDOF 6
ENDMDL
MODEL 6
REMARK VINA RESULT:      -8.5      5.705      9.684
REMARK  6 active torsions:
REMARK  status: ('A' for Active; 'I' for Inactive)
REMARK    1  A    between atoms: N_6  and  C_7 
REMARK    2  A    between atoms: C_10  and  N_11 
REMARK    3  A    between atoms: N_11  and  C_12 
REMARK    4  A    between atoms: C_12  and  N_13 
REMARK       I    between atoms: N_13  and  C_14 
REMARK    5  A    between atoms: C_14  and  C_15 
REMARK    6  A    between atoms: C_16  and  O_17 
ROOT
HETATM    1  C   UNL     1      40.425 -11.978   4.298  1.00  0.00     0.179 C 
HETATM    2  S   UNL     1      39.251 -11.709   5.458  1.00  0.00    -0.040 SA
ENDROOT
BRANCH   1   3
HETATM    3  N   UNL     1      40.713 -10.995   3.411  1.00  0.00    -0.333 N 
HETATM    4  H   UNL     1      41.278 -10.242   3.790  1.00  0.00     0.168 HD
BRANCH   3   5
HETATM    5  C   UNL     1      40.205 -10.789   2.116  1.00  0.00     0.034 C 
HETATM    6  C   UNL     1      41.056 -10.276   1.140  1.00  0.00     0.032 C 
HETATM    7  C   UNL     1      40.624 -10.168  -0.192  1.00  0.00     0.031 C 
HETATM    8  C   UNL     1      39.339 -10.575  -0.575  1.00  0.00     0.030 C 
HETATM    9  C   UNL     1      38.460 -10.939   0.455  1.00  0.00     0.031 C 
HETATM   10  C   UNL     1      38.882 -11.042   1.781  1.00  0.00     0.032 C 
BRANCH   8  11
HETATM   11  N   UNL     1      38.900 -10.655  -1.904  1.00  0.00    -0.378 N 
HETATM   12  C   UNL     1      37.506 -11.153  -2.036  1.00  0.00     0.150 C 
HETATM   13  C   UNL     1      37.484 -12.695  -2.090  1.00  0.00     0.254 C 
HETATM   14  N   UNL     1      38.346 -13.181  -3.259  1.00  0.00    -0.072 N 
HETATM   15  C   UNL     1      38.297 -14.670  -3.411  1.00  0.00     0.269 C 
HETATM   16  H   UNL     1      37.952 -12.764  -4.112  1.00  0.00     0.279 HD
HETATM   17  C   UNL     1      39.779 -12.665  -3.127  1.00  0.00     0.254 C 
HETATM   18  C   UNL     1      39.809 -11.128  -2.962  1.00  0.00     0.150 C 
ENDBRANCH   8  11
ENDBRANCH   3   5
ENDBRANCH   1   3
BRANCH   1  19
HETATM   19  N   UNL     1      41.094 -13.170   4.325  1.00  0.00    -0.299 N 
HETATM   20  C   UNL     1      42.238 -13.559   3.631  1.00  0.00     0.260 C 
HETATM   21  O   UNL     1      42.873 -12.924   2.798  1.00  0.00    -0.267 OA
HETATM   22  H   UNL     1      40.901 -13.697   5.168  1.00  0.00     0.171 HD
BRANCH  20  23
HETATM   23  C   UNL     1      42.779 -14.861   4.060  1.00  0.00     0.068 A 
HETATM   24  C   UNL     1      43.111 -15.112   5.392  1.00  0.00     0.102 A 
HETATM   25  C   UNL     1      43.491 -16.413   5.769  1.00  0.00     0.056 A 
HETATM   26 BR   UNL     1      43.762 -16.793   7.629  1.00  0.00    -0.047 Br
HETATM   27  C   UNL     1      43.626 -17.449   4.797  1.00  0.00    -0.006 A 
HETATM   28  C   UNL     1      43.321 -17.144   3.443  1.00  0.00    -0.024 A 
HETATM   29  C   UNL     1      44.039 -18.776   5.079  1.00  0.00     0.014 A 
HETATM   30  C   UNL     1      42.887 -15.861   3.093  1.00  0.00     0.032 A 
HETATM   31  C   UNL     1      43.436 -18.129   2.449  1.00  0.00     0.012 A 
HETATM   32  C   UNL     1      43.852 -19.420   2.764  1.00  0.00     0.001 A 
HETATM   33  C   UNL     1      44.153 -19.744   4.079  1.00  0.00     0.001 A 
BRANCH  24  34
HETATM   34  O   UNL     1      42.985 -14.097   6.307  1.00  0.00    -0.353 OA
HETATM   35  C   UNL     1      44.187 -13.325   6.411  1.00  0.00     0.210 C 
ENDBRANCH  24  34
ENDBRANCH  20  23
ENDBRANCH   1  19
TORSDOF 6
ENDMDL
MODEL 7
REMARK VINA RESULT:      -8.4      6.853     10.212
REMARK  6 active torsions:
REMARK  status: ('A' for Active; 'I' for Inactive)
REMARK    1  A    between atoms: N_6  and  C_7 
REMARK    2  A    between atoms: C_10  and  N_11 
REMARK    3  A    between atoms: N_11  and  C_12 
REMARK    4  A    between atoms: C_12  and  N_13 
REMARK       I    between atoms: N_13  and  C_14 
REMARK    5  A    between atoms: C_14  and  C_15 
REMARK    6  A    between atoms: C_16  and  O_17 
ROOT
HETATM    1  C   UNL     1      40.874 -13.778   1.468  1.00  0.00     0.179 C 
HETATM    2  S   UNL     1      39.558 -13.112   2.255  1.00  0.00    -0.040 SA
ENDROOT
BRANCH   1   3
HETATM    3  N   UNL     1      41.282 -13.238   0.294  1.00  0.00    -0.333 N 
HETATM    4  H   UNL     1      42.184 -13.573  -0.030  1.00  0.00     0.168 HD
BRANCH   3   5
HETATM    5  C   UNL     1      40.725 -12.173  -0.437  1.00  0.00     0.034 C 
HETATM    6  C   UNL     1      41.131 -10.875  -0.139  1.00  0.00     0.032 C 
HETATM    7  C   UNL     1      40.691  -9.796  -0.923  1.00  0.00     0.031 C 
HETATM    8  C   UNL     1      39.842  -9.993  -2.020  1.00  0.00     0.030 C 
HETATM    9  C   UNL     1      39.330 -11.287  -2.196  1.00  0.00     0.031 C 
HETATM   10  C   UNL     1      39.759 -12.361  -1.416  1.00  0.00     0.032 C 
BRANCH   8  11
HETATM   11  N   UNL     1      39.500  -8.995  -2.942  1.00  0.00    -0.378 N 
HETATM   12  C   UNL     1      40.304  -9.043  -4.191  1.00  0.00     0.150 C 
HETATM   13  C   UNL     1      41.610  -8.238  -4.027  1.00  0.00     0.254 C 
HETATM   14  N   UNL     1      41.277  -6.791  -3.652  1.00  0.00    -0.072 N 
HETATM   15  C   UNL     1      42.506  -5.939  -3.559  1.00  0.00     0.269 C 
HETATM   16  H   UNL     1      40.691  -6.416  -4.409  1.00  0.00     0.279 HD
HETATM   17  C   UNL     1      40.446  -6.740  -2.370  1.00  0.00     0.254 C 
HETATM   18  C   UNL     1      39.188  -7.631  -2.482  1.00  0.00     0.150 C 
ENDBRANCH   8  11
ENDBRANCH   3   5
ENDBRANCH   1   3
BRANCH   1  19
HETATM   19  N   UNL     1      41.529 -14.813   2.074  1.00  0.00    -0.299 N 
HETATM   20  C   UNL     1      42.898 -15.056   2.178  1.00  0.00     0.260 C 
HETATM   21  O   UNL     1      43.822 -14.409   1.701  1.00  0.00    -0.267 OA
HETATM   22  H   UNL     1      40.955 -15.273   2.771  1.00  0.00     0.171 HD
BRANCH  20  23
HETATM   23  C   UNL     1      43.235 -16.180   3.069  1.00  0.00     0.068 A 
HETATM   24  C   UNL     1      43.388 -16.003   4.444  1.00  0.00     0.102 A 
HETATM   25  C   UNL     1      43.572 -17.132   5.264  1.00  0.00     0.056 A 
HETATM   26 BR   UNL     1      43.592 -16.897   7.167  1.00  0.00    -0.047 Br
HETATM   27  C   UNL     1      43.693 -18.436   4.700  1.00  0.00    -0.006 A 
HETATM   28  C   UNL     1      43.576 -18.573   3.291  1.00  0.00    -0.024 A 
HETATM   29  C   UNL     1      43.918 -19.623   5.443  1.00  0.00     0.014 A 
HETATM   30  C   UNL     1      43.332 -17.448   2.495  1.00  0.00     0.032 A 
HETATM   31  C   UNL     1      43.685 -19.835   2.687  1.00  0.00     0.012 A 
HETATM   32  C   UNL     1      43.912 -20.977   3.449  1.00  0.00     0.001 A 
HETATM   33  C   UNL     1      44.028 -20.872   4.828  1.00  0.00     0.001 A 
BRANCH  24  34
HETATM   34  O   UNL     1      43.280 -14.737   4.964  1.00  0.00    -0.353 OA
HETATM   35  C   UNL     1      41.967 -14.486   5.479  1.00  0.00     0.210 C 
ENDBRANCH  24  34
ENDBRANCH  20  23
ENDBRANCH   1  19
TORSDOF 6
ENDMDL
MODEL 8
REMARK VINA RESULT:      -8.3      6.941     10.453
REMARK  6 active torsions:
REMARK  status: ('A' for Active; 'I' for Inactive)
REMARK    1  A    between atoms: N_6  and  C_7 
REMARK    2  A    between atoms: C_10  and  N_11 
REMARK    3  A    between atoms: N_11  and  C_12 
REMARK    4  A    between atoms: C_12  and  N_13 
REMARK       I    between atoms: N_13  and  C_14 
REMARK    5  A    between atoms: C_14  and  C_15 
REMARK    6  A    between atoms: C_16  and  O_17 
ROOT
HETATM    1  C   UNL     1      41.421 -12.910   0.725  1.00  0.00     0.179 C 
HETATM    2  S   UNL     1      41.311 -11.384   1.400  1.00  0.00    -0.040 SA
ENDROOT
BRANCH   1   3
HETATM    3  N   UNL     1      41.142 -13.070  -0.592  1.00  0.00    -0.333 N 
HETATM    4  H   UNL     1      41.843 -13.591  -1.108  1.00  0.00     0.168 HD
BRANCH   3   5
HETATM    5  C   UNL     1      40.125 -12.480  -1.363  1.00  0.00     0.034 C 
HETATM    6  C   UNL     1      38.799 -12.787  -1.066  1.00  0.00     0.032 C 
HETATM    7  C   UNL     1      37.752 -12.129  -1.731  1.00  0.00     0.031 C 
HETATM    8  C   UNL     1      38.008 -11.149  -2.699  1.00  0.00     0.030 C 
HETATM    9  C   UNL     1      39.345 -10.976  -3.083  1.00  0.00     0.031 C 
HETATM   10  C   UNL     1      40.389 -11.632  -2.430  1.00  0.00     0.032 C 
BRANCH   8  11
HETATM   11  N   UNL     1      37.024 -10.336  -3.279  1.00  0.00    -0.378 N 
HETATM   12  C   UNL     1      37.498  -8.961  -3.584  1.00  0.00     0.150 C 
HETATM   13  C   UNL     1      37.326  -8.043  -2.356  1.00  0.00     0.254 C 
HETATM   14  N   UNL     1      35.855  -8.027  -1.929  1.00  0.00    -0.072 N 
HETATM   15  C   UNL     1      35.613  -7.086  -0.789  1.00  0.00     0.269 C 
HETATM   16  H   UNL     1      35.316  -7.688  -2.736  1.00  0.00     0.279 HD
HETATM   17  C   UNL     1      35.365  -9.441  -1.619  1.00  0.00     0.254 C 
HETATM   18  C   UNL     1      35.631 -10.398  -2.803  1.00  0.00     0.150 C 
ENDBRANCH   8  11
ENDBRANCH   3   5
ENDBRANCH   1   3
BRANCH   1  19
HETATM   19  N   UNL     1      41.848 -13.936   1.521  1.00  0.00    -0.299 N 
HETATM   20  C   UNL     1      41.239 -15.160   1.790  1.00  0.00     0.260 C 
HETATM   21  O   UNL     1      40.151 -15.568   1.403  1.00  0.00    -0.267 OA
HETATM   22  H   UNL     1      42.849 -13.909   1.675  1.00  0.00     0.171 HD
BRANCH  20  23
HETATM   23  C   UNL     1      42.090 -16.092   2.551  1.00  0.00     0.068 A 
HETATM   24  C   UNL     1      42.686 -15.720   3.756  1.00  0.00     0.102 A 
HETATM   25  C   UNL     1      43.373 -16.692   4.508  1.00  0.00     0.056 A 
HETATM   26 BR   UNL     1      44.026 -16.219   6.249  1.00  0.00    -0.047 Br
HETATM   27  C   UNL     1      43.541 -18.019   4.014  1.00  0.00    -0.006 A 
HETATM   28  C   UNL     1      42.957 -18.349   2.762  1.00  0.00    -0.024 A 
HETATM   29  C   UNL     1      44.249 -19.049   4.684  1.00  0.00     0.014 A 
HETATM   30  C   UNL     1      42.226 -17.389   2.054  1.00  0.00     0.032 A 
HETATM   31  C   UNL     1      43.092 -19.642   2.233  1.00  0.00     0.012 A 
HETATM   32  C   UNL     1      43.801 -20.626   2.916  1.00  0.00     0.001 A 
HETATM   33  C   UNL     1      44.378 -20.330   4.143  1.00  0.00     0.001 A 
BRANCH  24  34
HETATM   34  O   UNL     1      42.521 -14.434   4.206  1.00  0.00    -0.353 OA
HETATM   35  C   UNL     1      41.376 -14.314   5.058  1.00  0.00     0.210 C 
ENDBRANCH  24  34
ENDBRANCH  20  23
ENDBRANCH   1  19
TORSDOF 6
ENDMDL
MODEL 9
REMARK VINA RESULT:      -8.2      4.729      8.202
REMARK  6 active torsions:
REMARK  status: ('A' for Active; 'I' for Inactive)
REMARK    1  A    between atoms: N_6  and  C_7 
REMARK    2  A    between atoms: C_10  and  N_11 
REMARK    3  A    between atoms: N_11  and  C_12 
REMARK    4  A    between atoms: C_12  and  N_13 
REMARK       I    between atoms: N_13  and  C_14 
REMARK    5  A    between atoms: C_14  and  C_15 
REMARK    6  A    between atoms: C_16  and  O_17 
ROOT
HETATM    1  C   UNL     1      41.505 -10.956   6.157  1.00  0.00     0.179 C 
HETATM    2  S   UNL     1      42.481 -10.150   7.249  1.00  0.00    -0.040 SA
ENDROOT
BRANCH   1   3
HETATM    3  N   UNL     1      40.471 -10.294   5.584  1.00  0.00    -0.333 N 
HETATM    4  H   UNL     1      39.752  -9.995   6.235  1.00  0.00     0.168 HD
BRANCH   3   5
HETATM    5  C   UNL     1      40.174 -10.118   4.220  1.00  0.00     0.034 C 
HETATM    6  C   UNL     1      41.198  -9.733   3.359  1.00  0.00     0.032 C 
HETATM    7  C   UNL     1      40.973  -9.664   1.974  1.00  0.00     0.031 C 
HETATM    8  C   UNL     1      39.725  -9.983   1.424  1.00  0.00     0.030 C 
HETATM    9  C   UNL     1      38.678 -10.214   2.328  1.00  0.00     0.031 C 
HETATM   10  C   UNL     1      38.895 -10.278   3.705  1.00  0.00     0.032 C 
BRANCH   8  11
HETATM   11  N   UNL     1      39.474 -10.099   0.050  1.00  0.00    -0.378 N 
HETATM   12  C   UNL     1      38.191 -10.781  -0.261  1.00  0.00     0.150 C 
HETATM   13  C   UNL     1      38.388 -12.310  -0.317  1.00  0.00     0.254 C 
HETATM   14  N   UNL     1      39.453 -12.653  -1.364  1.00  0.00    -0.072 N 
HETATM   15  C   UNL     1      39.629 -14.132  -1.520  1.00  0.00     0.269 C 
HETATM   16  H   UNL     1      39.117 -12.280  -2.261  1.00  0.00     0.279 HD
HETATM   17  C   UNL     1      40.772 -11.949  -1.048  1.00  0.00     0.254 C 
HETATM   18  C   UNL     1      40.568 -10.425  -0.882  1.00  0.00     0.150 C 
ENDBRANCH   8  11
ENDBRANCH   3   5
ENDBRANCH   1   3
BRANCH   1  19
HETATM   19  N   UNL     1      41.825 -12.246   5.839  1.00  0.00    -0.299 N 
HETATM   20  C   UNL     1      41.035 -13.393   5.890  1.00  0.00     0.260 C 
HETATM   21  O   UNL     1      39.879 -13.502   6.281  1.00  0.00    -0.267 OA
HETATM   22  H   UNL     1      42.623 -12.300   5.217  1.00  0.00     0.171 HD
BRANCH  20  23
HETATM   23  C   UNL     1      41.670 -14.579   5.289  1.00  0.00     0.068 A 
HETATM   24  C   UNL     1      41.984 -14.632   3.931  1.00  0.00     0.102 A 
HETATM   25  C   UNL     1      42.715 -15.730   3.440  1.00  0.00     0.056 A 
HETATM   26 BR   UNL     1      43.303 -15.704   1.614  1.00  0.00    -0.047 Br
HETATM   27  C   UNL     1      43.057 -16.823   4.289  1.00  0.00    -0.006 A 
HETATM   28  C   UNL     1      42.682 -16.754   5.658  1.00  0.00    -0.024 A 
HETATM   29  C   UNL     1      43.756 -17.985   3.873  1.00  0.00     0.014 A 
HETATM   30  C   UNL     1      42.010 -15.628   6.145  1.00  0.00     0.032 A 
HETATM   31  C   UNL     1      42.998 -17.803   6.536  1.00  0.00     0.012 A 
HETATM   32  C   UNL     1      43.680 -18.931   6.089  1.00  0.00     0.001 A 
HETATM   33  C   UNL     1      44.060 -19.022   4.757  1.00  0.00     0.001 A 
BRANCH  24  34
HETATM   34  O   UNL     1      41.634 -13.574   3.130  1.00  0.00    -0.353 OA
HETATM   35  C   UNL     1      40.334 -13.753   2.555  1.00  0.00     0.210 C 
ENDBRANCH  24  34
ENDBRANCH  20  23
ENDBRANCH   1  19
TORSDOF 6
ENDMDL
MODEL 10
REMARK VINA RESULT:      -8.0      3.668      5.497
REMARK  6 active torsions:
REMARK  status: ('A' for Active; 'I' for Inactive)
REMARK    1  A    between atoms: N_6  and  C_7 
REMARK    2  A    between atoms: C_10  and  N_11 
REMARK    3  A    between atoms: N_11  and  C_12 
REMARK    4  A    between atoms: C_12  and  N_13 
REMARK       I    between atoms: N_13  and  C_14 
REMARK    5  A    between atoms: C_14  and  C_15 
REMARK    6  A    between atoms: C_16  and  O_17 
ROOT
HETATM    1  C   UNL     1      42.618 -14.904   4.755  1.00  0.00     0.179 C 
HETATM    2  S   UNL     1      43.564 -16.282   4.707  1.00  0.00    -0.040 SA
ENDROOT
BRANCH   1   3
HETATM    3  N   UNL     1      42.489 -14.234   5.926  1.00  0.00    -0.333 N 
HETATM    4  H   UNL     1      41.792 -14.620   6.555  1.00  0.00     0.168 HD
BRANCH   3   5
HETATM    5  C   UNL     1      43.051 -13.004   6.313  1.00  0.00     0.034 C 
HETATM    6  C   UNL     1      42.260 -11.859   6.246  1.00  0.00     0.032 C 
HETATM    7  C   UNL     1      42.742 -10.634   6.735  1.00  0.00     0.031 C 
HETATM    8  C   UNL     1      44.018 -10.530   7.305  1.00  0.00     0.030 C 
HETATM    9  C   UNL     1      44.842 -11.661   7.215  1.00  0.00     0.031 C 
HETATM   10  C   UNL     1      44.370 -12.879   6.724  1.00  0.00     0.032 C 
BRANCH   8  11
HETATM   11  N   UNL     1      44.498  -9.389   7.962  1.00  0.00    -0.378 N 
HETATM   12  C   UNL     1      45.495  -9.693   9.021  1.00  0.00     0.150 C 
HETATM   13  C   UNL     1      44.790  -9.989  10.361  1.00  0.00     0.254 C 
HETATM   14  N   UNL     1      43.923  -8.790  10.760  1.00  0.00    -0.072 N 
HETATM   15  C   UNL     1      43.276  -8.987  12.097  1.00  0.00     0.269 C 
HETATM   16  H   UNL     1      44.551  -7.980  10.832  1.00  0.00     0.279 HD
HETATM   17  C   UNL     1      42.900  -8.474   9.670  1.00  0.00     0.254 C 
HETATM   18  C   UNL     1      43.586  -8.282   8.297  1.00  0.00     0.150 C 
ENDBRANCH   8  11
ENDBRANCH   3   5
ENDBRANCH   1   3
BRANCH   1  19
HETATM   19  N   UNL     1      42.053 -14.470   3.589  1.00  0.00    -0.299 N 
HETATM   20  C   UNL     1      40.793 -13.919   3.366  1.00  0.00     0.260 C 
HETATM   21  O   UNL     1      39.888 -13.745   4.172  1.00  0.00    -0.267 OA
HETATM   22  H   UNL     1      42.749 -14.255   2.884  1.00  0.00     0.171 HD
BRANCH  20  23
HETATM   23  C   UNL     1      40.606 -13.396   2.001  1.00  0.00     0.068 A 
HETATM   24  C   UNL     1      40.974 -12.095   1.659  1.00  0.00     0.102 A 
HETATM   25  C   UNL     1      40.903 -11.695   0.312  1.00  0.00     0.056 A 
HETATM   26 BR   UNL     1      41.588  -9.971  -0.176  1.00  0.00    -0.047 Br
HETATM   27  C   UNL     1      40.378 -12.569  -0.686  1.00  0.00    -0.006 A 
HETATM   28  C   UNL     1      39.971 -13.872  -0.293  1.00  0.00    -0.024 A 
HETATM   29  C   UNL     1      40.233 -12.237  -2.057  1.00  0.00     0.014 A 
HETATM   30  C   UNL     1      40.105 -14.276   1.040  1.00  0.00     0.032 A 
HETATM   31  C   UNL     1      39.450 -14.770  -1.237  1.00  0.00     0.012 A 
HETATM   32  C   UNL     1      39.316 -14.406  -2.574  1.00  0.00     0.001 A 
HETATM   33  C   UNL     1      39.709 -13.140  -2.985  1.00  0.00     0.001 A 
BRANCH  24  34
HETATM   34  O   UNL     1      41.466 -11.268   2.638  1.00  0.00    -0.353 OA
HETATM   35  C   UNL     1      40.447 -10.415   3.172  1.00  0.00     0.210 C 
ENDBRANCH  24  34
ENDBRANCH  20  23
ENDBRANCH   1  19
TORSDOF 6
ENDMDL
