MODEL 1
REMARK VINA RESULT:      -7.6      0.000      0.000
REMARK  5 active torsions:
REMARK  status: ('A' for Active; 'I' for Inactive)
REMARK    1  A    between atoms: C_2  and  O_3 
REMARK    2  A    between atoms: O_3  and  C_4 
REMARK    3  A    between atoms: C_6  and  C_7 
REMARK    4  A    between atoms: C_11  and  N_12 
REMARK       I    between atoms: N_12  and  C_13 
REMARK       I    between atoms: C_13  and  N_14 
REMARK    5  A    between atoms: N_14  and  C_15 
ROOT
HETATM    1  N   UNL     1      40.101 -15.141   3.704  1.00  0.00    -0.308 N 
HETATM    2  C   UNL     1      40.067 -13.925   3.059  1.00  0.00     0.325 C 
HETATM    3  N   UNL     1      41.265 -13.428   2.624  1.00  0.00    -0.305 N 
HETATM    4  O   UNL     1      38.984 -13.349   3.001  1.00  0.00    -0.247 OA
HETATM    5  H   UNL     1      39.260 -15.262   4.263  1.00  0.00     0.170 HD
HETATM    6  H   UNL     1      42.065 -14.033   2.663  1.00  0.00     0.171 HD
ENDROOT
BRANCH   1   7
HETATM    7  C   UNL     1      41.152 -16.063   3.868  1.00  0.00     0.051 C 
HETATM    8  C   UNL     1      41.646 -16.346   5.154  1.00  0.00     0.077 C 
HETATM    9  C   UNL     1      42.784 -17.168   5.282  1.00  0.00     0.055 C 
HETATM   10  C   UNL     1      43.386 -17.728   4.158  1.00  0.00     0.069 C 
HETATM   11  C   UNL     1      42.807 -17.562   2.907  1.00  0.00     0.039 C 
HETATM   12  C   UNL     1      41.694 -16.735   2.763  1.00  0.00     0.033 C 
BRANCH   8  13
HETATM   13  C   UNL     1      41.072 -15.712   6.394  1.00  0.00     0.419 C 
HETATM   14  F   UNL     1      39.776 -16.061   6.626  1.00  0.00    -0.166 F 
HETATM   15  F   UNL     1      41.757 -16.061   7.517  1.00  0.00    -0.166 F 
HETATM   16  F   UNL     1      41.086 -14.349   6.355  1.00  0.00    -0.166 F 
ENDBRANCH   8  13
BRANCH  10  17
HETATM   17  O   UNL     1      44.524 -18.482   4.209  1.00  0.00    -0.351 OA
BRANCH  17  18
HETATM   18  C   UNL     1      44.296 -19.871   3.944  1.00  0.00     0.171 C 
HETATM   19  C   UNL     1      44.214 -20.596   5.276  1.00  0.00     0.034 C 
ENDBRANCH  17  18
ENDBRANCH  10  17
ENDBRANCH   1   7
BRANCH   3  20
HETATM   20  C   UNL     1      41.524 -12.164   2.125  1.00  0.00     0.086 A 
HETATM   21  C   UNL     1      41.391 -11.564   0.839  1.00  0.00     0.079 A 
HETATM   22  C   UNL     1      40.858 -12.118  -0.430  1.00  0.00     0.075 C 
HETATM   23  N   UNL     1      41.767 -10.275   0.861  1.00  0.00    -0.177 NA
HETATM   24  N   UNL     1      42.122 -10.055   2.129  1.00  0.00    -0.280 N 
HETATM   25  H   UNL     1      42.449  -9.127   2.376  1.00  0.00     0.189 HD
HETATM   26  C   UNL     1      41.978 -11.144   2.940  1.00  0.00     0.052 A 
HETATM   27  C   UNL     1      42.326 -11.093   4.381  1.00  0.00     0.072 C 
ENDBRANCH   3  20
TORSDOF 5
ENDMDL
MODEL 2
REMARK VINA RESULT:      -7.5      2.912      3.549
REMARK  5 active torsions:
REMARK  status: ('A' for Active; 'I' for Inactive)
REMARK    1  A    between atoms: C_2  and  O_3 
REMARK    2  A    between atoms: O_3  and  C_4 
REMARK    3  A    between atoms: C_6  and  C_7 
REMARK    4  A    between atoms: C_11  and  N_12 
REMARK       I    between atoms: N_12  and  C_13 
REMARK       I    between atoms: C_13  and  N_14 
REMARK    5  A    between atoms: N_14  and  C_15 
ROOT
HETATM    1  N   UNL     1      40.503 -15.189   5.251  1.00  0.00    -0.308 N 
HETATM    2  C   UNL     1      40.457 -13.844   5.544  1.00  0.00     0.325 C 
HETATM    3  N   UNL     1      41.601 -13.129   5.323  1.00  0.00    -0.305 N 
HETATM    4  O   UNL     1      39.426 -13.416   6.055  1.00  0.00    -0.247 OA
HETATM    5  H   UNL     1      39.757 -15.678   5.741  1.00  0.00     0.170 HD
HETATM    6  H   UNL     1      42.349 -13.582   4.829  1.00  0.00     0.171 HD
ENDROOT
BRANCH   1   7
HETATM    7  C   UNL     1      41.493 -15.953   4.605  1.00  0.00     0.051 C 
HETATM    8  C   UNL     1      41.443 -16.136   3.211  1.00  0.00     0.077 C 
HETATM    9  C   UNL     1      42.365 -17.013   2.605  1.00  0.00     0.055 C 
HETATM   10  C   UNL     1      43.339 -17.656   3.365  1.00  0.00     0.069 C 
HETATM   11  C   UNL     1      43.473 -17.359   4.714  1.00  0.00     0.039 C 
HETATM   12  C   UNL     1      42.555 -16.510   5.332  1.00  0.00     0.033 C 
BRANCH   8  13
HETATM   13  C   UNL     1      40.369 -15.516   2.357  1.00  0.00     0.419 C 
HETATM   14  F   UNL     1      40.497 -15.811   1.033  1.00  0.00    -0.166 F 
HETATM   15  F   UNL     1      39.123 -15.933   2.711  1.00  0.00    -0.166 F 
HETATM   16  F   UNL     1      40.343 -14.155   2.430  1.00  0.00    -0.166 F 
ENDBRANCH   8  13
BRANCH  10  17
HETATM   17  O   UNL     1      44.221 -18.562   2.849  1.00  0.00    -0.351 OA
BRANCH  17  18
HETATM   18  C   UNL     1      43.810 -19.922   3.032  1.00  0.00     0.171 C 
HETATM   19  C   UNL     1      43.469 -20.497   1.669  1.00  0.00     0.034 C 
ENDBRANCH  17  18
ENDBRANCH  10  17
ENDBRANCH   1   7
BRANCH   3  20
HETATM   20  C   UNL     1      41.871 -11.828   5.706  1.00  0.00     0.086 A 
HETATM   21  C   UNL     1      41.242 -10.574   5.453  1.00  0.00     0.079 A 
HETATM   22  C   UNL     1      40.004 -10.254   4.701  1.00  0.00     0.075 C 
HETATM   23  N   UNL     1      41.885  -9.572   6.073  1.00  0.00    -0.177 NA
HETATM   24  N   UNL     1      42.894 -10.170   6.711  1.00  0.00    -0.280 N 
HETATM   25  H   UNL     1      43.523  -9.588   7.253  1.00  0.00     0.189 HD
HETATM   26  C   UNL     1      42.926 -11.525   6.547  1.00  0.00     0.052 A 
HETATM   27  C   UNL     1      43.975 -12.361   7.178  1.00  0.00     0.072 C 
ENDBRANCH   3  20
TORSDOF 5
ENDMDL
MODEL 3
REMARK VINA RESULT:      -7.3      2.230      3.027
REMARK  5 active torsions:
REMARK  status: ('A' for Active; 'I' for Inactive)
REMARK    1  A    between atoms: C_2  and  O_3 
REMARK    2  A    between atoms: O_3  and  C_4 
REMARK    3  A    between atoms: C_6  and  C_7 
REMARK    4  A    between atoms: C_11  and  N_12 
REMARK       I    between atoms: N_12  and  C_13 
REMARK       I    between atoms: C_13  and  N_14 
REMARK    5  A    between atoms: N_14  and  C_15 
ROOT
HETATM    1  N   UNL     1      43.057 -13.548   2.570  1.00  0.00    -0.308 N 
HETATM    2  C   UNL     1      42.018 -12.739   2.166  1.00  0.00     0.325 C 
HETATM    3  N   UNL     1      40.863 -13.366   1.790  1.00  0.00    -0.305 N 
HETATM    4  O   UNL     1      42.240 -11.533   2.098  1.00  0.00    -0.247 OA
HETATM    5  H   UNL     1      43.937 -13.042   2.508  1.00  0.00     0.170 HD
HETATM    6  H   UNL     1      40.785 -14.351   1.967  1.00  0.00     0.171 HD
ENDROOT
BRANCH   1   7
HETATM    7  C   UNL     1      43.097 -14.933   2.817  1.00  0.00     0.051 C 
HETATM    8  C   UNL     1      42.928 -15.420   4.126  1.00  0.00     0.077 C 
HETATM    9  C   UNL     1      43.105 -16.796   4.371  1.00  0.00     0.055 C 
HETATM   10  C   UNL     1      43.400 -17.670   3.327  1.00  0.00     0.069 C 
HETATM   11  C   UNL     1      43.421 -17.206   2.019  1.00  0.00     0.039 C 
HETATM   12  C   UNL     1      43.269 -15.844   1.765  1.00  0.00     0.033 C 
BRANCH   8  13
HETATM   13  C   UNL     1      42.675 -14.506   5.297  1.00  0.00     0.419 C 
HETATM   14  F   UNL     1      42.643 -15.160   6.492  1.00  0.00    -0.166 F 
HETATM   15  F   UNL     1      43.636 -13.550   5.423  1.00  0.00    -0.166 F 
HETATM   16  F   UNL     1      41.490 -13.837   5.210  1.00  0.00    -0.166 F 
ENDBRANCH   8  13
BRANCH  10  17
HETATM   17  O   UNL     1      43.642 -19.002   3.506  1.00  0.00    -0.351 OA
BRANCH  17  18
HETATM   18  C   UNL     1      44.350 -19.293   4.718  1.00  0.00     0.171 C 
HETATM   19  C   UNL     1      44.001 -20.710   5.137  1.00  0.00     0.034 C 
ENDBRANCH  17  18
ENDBRANCH  10  17
ENDBRANCH   1   7
BRANCH   3  20
HETATM   20  C   UNL     1      39.758 -12.804   1.176  1.00  0.00     0.086 A 
HETATM   21  C   UNL     1      38.809 -11.815   1.567  1.00  0.00     0.079 A 
HETATM   22  C   UNL     1      38.727 -10.995   2.800  1.00  0.00     0.075 C 
HETATM   23  N   UNL     1      37.908 -11.593   0.596  1.00  0.00    -0.177 NA
HETATM   24  N   UNL     1      38.278 -12.411  -0.392  1.00  0.00    -0.280 N 
HETATM   25  H   UNL     1      37.723 -12.410  -1.242  1.00  0.00     0.189 HD
HETATM   26  C   UNL     1      39.393 -13.148  -0.112  1.00  0.00     0.052 A 
HETATM   27  C   UNL     1      39.952 -14.115  -1.087  1.00  0.00     0.072 C 
ENDBRANCH   3  20
TORSDOF 5
ENDMDL
MODEL 4
REMARK VINA RESULT:      -7.3      3.032      6.689
REMARK  5 active torsions:
REMARK  status: ('A' for Active; 'I' for Inactive)
REMARK    1  A    between atoms: C_2  and  O_3 
REMARK    2  A    between atoms: O_3  and  C_4 
REMARK    3  A    between atoms: C_6  and  C_7 
REMARK    4  A    between atoms: C_11  and  N_12 
REMARK       I    between atoms: N_12  and  C_13 
REMARK       I    between atoms: C_13  and  N_14 
REMARK    5  A    between atoms: N_14  and  C_15 
ROOT
HETATM    1  N   UNL     1      39.811 -15.435   3.425  1.00  0.00    -0.308 N 
HETATM    2  C   UNL     1      40.786 -16.036   4.190  1.00  0.00     0.325 C 
HETATM    3  N   UNL     1      42.016 -16.180   3.610  1.00  0.00    -0.305 N 
HETATM    4  O   UNL     1      40.453 -16.464   5.291  1.00  0.00    -0.247 OA
HETATM    5  H   UNL     1      38.890 -15.667   3.792  1.00  0.00     0.170 HD
HETATM    6  H   UNL     1      42.180 -15.717   2.735  1.00  0.00     0.171 HD
ENDROOT
BRANCH   1   7
HETATM    7  C   UNL     1      39.892 -14.789   2.177  1.00  0.00     0.051 C 
HETATM    8  C   UNL     1      39.997 -13.388   2.116  1.00  0.00     0.077 C 
HETATM    9  C   UNL     1      39.942 -12.754   0.858  1.00  0.00     0.055 C 
HETATM   10  C   UNL     1      39.828 -13.504  -0.310  1.00  0.00     0.069 C 
HETATM   11  C   UNL     1      39.871 -14.890  -0.251  1.00  0.00     0.039 C 
HETATM   12  C   UNL     1      39.904 -15.530   0.987  1.00  0.00     0.033 C 
BRANCH   8  13
HETATM   13  C   UNL     1      40.054 -12.531   3.353  1.00  0.00     0.419 C 
HETATM   14  F   UNL     1      41.180 -12.728   4.094  1.00  0.00    -0.166 F 
HETATM   15  F   UNL     1      40.031 -11.201   3.062  1.00  0.00    -0.166 F 
HETATM   16  F   UNL     1      39.011 -12.746   4.204  1.00  0.00    -0.166 F 
ENDBRANCH   8  13
BRANCH  10  17
HETATM   17  O   UNL     1      39.709 -12.949  -1.552  1.00  0.00    -0.351 OA
BRANCH  17  18
HETATM   18  C   UNL     1      38.991 -13.775  -2.476  1.00  0.00     0.171 C 
HETATM   19  C   UNL     1      37.585 -13.218  -2.609  1.00  0.00     0.034 C 
ENDBRANCH  17  18
ENDBRANCH  10  17
ENDBRANCH   1   7
BRANCH   3  20
HETATM   20  C   UNL     1      43.094 -16.906   4.086  1.00  0.00     0.086 A 
HETATM   21  C   UNL     1      43.963 -16.763   5.206  1.00  0.00     0.079 A 
HETATM   22  C   UNL     1      43.958 -15.766   6.306  1.00  0.00     0.075 C 
HETATM   23  N   UNL     1      44.868 -17.753   5.251  1.00  0.00    -0.177 NA
HETATM   24  N   UNL     1      44.580 -18.514   4.192  1.00  0.00    -0.280 N 
HETATM   25  H   UNL     1      45.153 -19.334   4.028  1.00  0.00     0.189 HD
HETATM   26  C   UNL     1      43.512 -18.069   3.466  1.00  0.00     0.052 A 
HETATM   27  C   UNL     1      43.045 -18.782   2.253  1.00  0.00     0.072 C 
ENDBRANCH   3  20
TORSDOF 5
ENDMDL
MODEL 5
REMARK VINA RESULT:      -7.3      3.015      6.516
REMARK  5 active torsions:
REMARK  status: ('A' for Active; 'I' for Inactive)
REMARK    1  A    between atoms: C_2  and  O_3 
REMARK    2  A    between atoms: O_3  and  C_4 
REMARK    3  A    between atoms: C_6  and  C_7 
REMARK    4  A    between atoms: C_11  and  N_12 
REMARK       I    between atoms: N_12  and  C_13 
REMARK       I    between atoms: C_13  and  N_14 
REMARK    5  A    between atoms: N_14  and  C_15 
ROOT
HETATM    1  N   UNL     1      39.773 -15.448   3.352  1.00  0.00    -0.308 N 
HETATM    2  C   UNL     1      40.729 -16.092   4.105  1.00  0.00     0.325 C 
HETATM    3  N   UNL     1      41.958 -16.254   3.526  1.00  0.00    -0.305 N 
HETATM    4  O   UNL     1      40.381 -16.539   5.194  1.00  0.00    -0.247 OA
HETATM    5  H   UNL     1      38.845 -15.664   3.710  1.00  0.00     0.170 HD
HETATM    6  H   UNL     1      42.137 -15.774   2.663  1.00  0.00     0.171 HD
ENDROOT
BRANCH   1   7
HETATM    7  C   UNL     1      39.875 -14.774   2.121  1.00  0.00     0.051 C 
HETATM    8  C   UNL     1      40.007 -13.374   2.094  1.00  0.00     0.077 C 
HETATM    9  C   UNL     1      39.973 -12.709   0.852  1.00  0.00     0.055 C 
HETATM   10  C   UNL     1      39.855 -13.428  -0.335  1.00  0.00     0.069 C 
HETATM   11  C   UNL     1      39.873 -14.815  -0.309  1.00  0.00     0.039 C 
HETATM   12  C   UNL     1      39.884 -15.486   0.913  1.00  0.00     0.033 C 
BRANCH   8  13
HETATM   13  C   UNL     1      40.069 -12.547   3.352  1.00  0.00     0.419 C 
HETATM   14  F   UNL     1      40.090 -11.206   3.115  1.00  0.00    -0.166 F 
HETATM   15  F   UNL     1      39.000 -12.764   4.166  1.00  0.00    -0.166 F 
HETATM   16  F   UNL     1      41.174 -12.805   4.109  1.00  0.00    -0.166 F 
ENDBRANCH   8  13
BRANCH  10  17
HETATM   17  O   UNL     1      39.756 -12.841  -1.565  1.00  0.00    -0.351 OA
BRANCH  17  18
HETATM   18  C   UNL     1      38.943 -13.582  -2.483  1.00  0.00     0.171 C 
HETATM   19  C   UNL     1      37.548 -12.985  -2.461  1.00  0.00     0.034 C 
ENDBRANCH  17  18
ENDBRANCH  10  17
ENDBRANCH   1   7
BRANCH   3  20
HETATM   20  C   UNL     1      43.014 -17.019   3.987  1.00  0.00     0.086 A 
HETATM   21  C   UNL     1      43.614 -18.237   3.552  1.00  0.00     0.079 A 
HETATM   22  C   UNL     1      43.313 -19.091   2.377  1.00  0.00     0.075 C 
HETATM   23  N   UNL     1      44.649 -18.578   4.336  1.00  0.00    -0.177 NA
HETATM   24  N   UNL     1      44.714 -17.600   5.243  1.00  0.00    -0.280 N 
HETATM   25  H   UNL     1      45.438 -17.657   5.951  1.00  0.00     0.189 HD
HETATM   26  C   UNL     1      43.773 -16.625   5.073  1.00  0.00     0.052 A 
HETATM   27  C   UNL     1      43.687 -15.459   5.985  1.00  0.00     0.072 C 
ENDBRANCH   3  20
TORSDOF 5
ENDMDL
MODEL 6
REMARK VINA RESULT:      -7.3      1.014      2.007
REMARK  5 active torsions:
REMARK  status: ('A' for Active; 'I' for Inactive)
REMARK    1  A    between atoms: C_2  and  O_3 
REMARK    2  A    between atoms: O_3  and  C_4 
REMARK    3  A    between atoms: C_6  and  C_7 
REMARK    4  A    between atoms: C_11  and  N_12 
REMARK       I    between atoms: N_12  and  C_13 
REMARK       I    between atoms: C_13  and  N_14 
REMARK    5  A    between atoms: N_14  and  C_15 
ROOT
HETATM    1  N   UNL     1      40.186 -14.819   3.819  1.00  0.00    -0.308 N 
HETATM    2  C   UNL     1      39.914 -13.869   2.859  1.00  0.00     0.325 C 
HETATM    3  N   UNL     1      40.813 -13.757   1.834  1.00  0.00    -0.305 N 
HETATM    4  O   UNL     1      38.938 -13.147   3.044  1.00  0.00    -0.247 OA
HETATM    5  H   UNL     1      39.675 -14.608   4.672  1.00  0.00     0.170 HD
HETATM    6  H   UNL     1      41.526 -14.459   1.758  1.00  0.00     0.171 HD
ENDROOT
BRANCH   1   7
HETATM    7  C   UNL     1      41.168 -15.827   3.858  1.00  0.00     0.051 C 
HETATM    8  C   UNL     1      41.661 -16.281   5.094  1.00  0.00     0.077 C 
HETATM    9  C   UNL     1      42.736 -17.192   5.107  1.00  0.00     0.055 C 
HETATM   10  C   UNL     1      43.276 -17.671   3.915  1.00  0.00     0.069 C 
HETATM   11  C   UNL     1      42.690 -17.330   2.704  1.00  0.00     0.039 C 
HETATM   12  C   UNL     1      41.640 -16.413   2.675  1.00  0.00     0.033 C 
BRANCH   8  13
HETATM   13  C   UNL     1      41.156 -15.744   6.408  1.00  0.00     0.419 C 
HETATM   14  F   UNL     1      39.838 -16.007   6.627  1.00  0.00    -0.166 F 
HETATM   15  F   UNL     1      41.822 -16.272   7.471  1.00  0.00    -0.166 F 
HETATM   16  F   UNL     1      41.286 -14.391   6.520  1.00  0.00    -0.166 F 
ENDBRANCH   8  13
BRANCH  10  17
HETATM   17  O   UNL     1      44.354 -18.506   3.858  1.00  0.00    -0.351 OA
BRANCH  17  18
HETATM   18  C   UNL     1      44.280 -19.593   4.789  1.00  0.00     0.171 C 
HETATM   19  C   UNL     1      43.922 -20.849   4.015  1.00  0.00     0.034 C 
ENDBRANCH  17  18
ENDBRANCH  10  17
ENDBRANCH   1   7
BRANCH   3  20
HETATM   20  C   UNL     1      40.870 -12.773   0.864  1.00  0.00     0.086 A 
HETATM   21  C   UNL     1      41.311 -11.418   0.858  1.00  0.00     0.079 A 
HETATM   22  C   UNL     1      41.927 -10.603   1.934  1.00  0.00     0.075 C 
HETATM   23  N   UNL     1      41.177 -10.867  -0.359  1.00  0.00    -0.177 NA
HETATM   24  N   UNL     1      40.673 -11.847  -1.113  1.00  0.00    -0.280 N 
HETATM   25  H   UNL     1      40.486 -11.645  -2.089  1.00  0.00     0.189 HD
HETATM   26  C   UNL     1      40.486 -13.021  -0.441  1.00  0.00     0.052 A 
HETATM   27  C   UNL     1      39.931 -14.221  -1.111  1.00  0.00     0.072 C 
ENDBRANCH   3  20
TORSDOF 5
ENDMDL
MODEL 7
REMARK VINA RESULT:      -7.2      1.029      2.269
REMARK  5 active torsions:
REMARK  status: ('A' for Active; 'I' for Inactive)
REMARK    1  A    between atoms: C_2  and  O_3 
REMARK    2  A    between atoms: O_3  and  C_4 
REMARK    3  A    between atoms: C_6  and  C_7 
REMARK    4  A    between atoms: C_11  and  N_12 
REMARK       I    between atoms: N_12  and  C_13 
REMARK       I    between atoms: C_13  and  N_14 
REMARK    5  A    between atoms: N_14  and  C_15 
ROOT
HETATM    1  N   UNL     1      39.906 -14.854   3.705  1.00  0.00    -0.308 N 
HETATM    2  C   UNL     1      39.947 -13.480   3.634  1.00  0.00     0.325 C 
HETATM    3  N   UNL     1      41.185 -12.900   3.676  1.00  0.00    -0.305 N 
HETATM    4  O   UNL     1      38.873 -12.885   3.623  1.00  0.00    -0.247 OA
HETATM    5  H   UNL     1      38.980 -15.160   3.995  1.00  0.00     0.170 HD
HETATM    6  H   UNL     1      41.986 -13.501   3.605  1.00  0.00     0.171 HD
ENDROOT
BRANCH   1   7
HETATM    7  C   UNL     1      40.941 -15.806   3.658  1.00  0.00     0.051 C 
HETATM    8  C   UNL     1      41.525 -16.270   4.851  1.00  0.00     0.077 C 
HETATM    9  C   UNL     1      42.648 -17.119   4.776  1.00  0.00     0.055 C 
HETATM   10  C   UNL     1      43.146 -17.529   3.542  1.00  0.00     0.069 C 
HETATM   11  C   UNL     1      42.478 -17.186   2.375  1.00  0.00     0.039 C 
HETATM   12  C   UNL     1      41.379 -16.329   2.433  1.00  0.00     0.033 C 
BRANCH   8  13
HETATM   13  C   UNL     1      41.065 -15.802   6.207  1.00  0.00     0.419 C 
HETATM   14  F   UNL     1      41.712 -16.415   7.236  1.00  0.00    -0.166 F 
HETATM   15  F   UNL     1      41.262 -14.467   6.386  1.00  0.00    -0.166 F 
HETATM   16  F   UNL     1      39.737 -16.017   6.426  1.00  0.00    -0.166 F 
ENDBRANCH   8  13
BRANCH  10  17
HETATM   17  O   UNL     1      44.264 -18.301   3.400  1.00  0.00    -0.351 OA
BRANCH  17  18
HETATM   18  C   UNL     1      44.025 -19.694   3.628  1.00  0.00     0.171 C 
HETATM   19  C   UNL     1      43.752 -20.350   2.286  1.00  0.00     0.034 C 
ENDBRANCH  17  18
ENDBRANCH  10  17
ENDBRANCH   1   7
BRANCH   3  20
HETATM   20  C   UNL     1      41.485 -11.556   3.809  1.00  0.00     0.086 A 
HETATM   21  C   UNL     1      41.767 -10.715   4.925  1.00  0.00     0.079 A 
HETATM   22  C   UNL     1      41.883 -11.038   6.368  1.00  0.00     0.075 C 
HETATM   23  N   UNL     1      42.019  -9.455   4.534  1.00  0.00    -0.177 NA
HETATM   24  N   UNL     1      41.909  -9.494   3.203  1.00  0.00    -0.280 N 
HETATM   25  H   UNL     1      42.060  -8.631   2.690  1.00  0.00     0.189 HD
HETATM   26  C   UNL     1      41.612 -10.731   2.708  1.00  0.00     0.052 A 
HETATM   27  C   UNL     1      41.447 -10.968   1.254  1.00  0.00     0.072 C 
ENDBRANCH   3  20
TORSDOF 5
ENDMDL
MODEL 8
REMARK VINA RESULT:      -7.0     14.942     17.177
REMARK  5 active torsions:
REMARK  status: ('A' for Active; 'I' for Inactive)
REMARK    1  A    between atoms: C_2  and  O_3 
REMARK    2  A    between atoms: O_3  and  C_4 
REMARK    3  A    between atoms: C_6  and  C_7 
REMARK    4  A    between atoms: C_11  and  N_12 
REMARK       I    between atoms: N_12  and  C_13 
REMARK       I    between atoms: C_13  and  N_14 
REMARK    5  A    between atoms: N_14  and  C_15 
ROOT
HETATM    1  N   UNL     1      45.754 -28.004  -0.079  1.00  0.00    -0.308 N 
HETATM    2  C   UNL     1      46.964 -28.270   0.521  1.00  0.00     0.325 C 
HETATM    3  N   UNL     1      47.736 -29.239  -0.058  1.00  0.00    -0.305 N 
HETATM    4  O   UNL     1      47.215 -27.678   1.568  1.00  0.00    -0.247 OA
HETATM    5  H   UNL     1      45.134 -27.538   0.580  1.00  0.00     0.170 HD
HETATM    6  H   UNL     1      47.452 -29.591  -0.954  1.00  0.00     0.171 HD
ENDROOT
BRANCH   1   7
HETATM    7  C   UNL     1      45.217 -28.453  -1.300  1.00  0.00     0.051 C 
HETATM    8  C   UNL     1      44.371 -29.576  -1.326  1.00  0.00     0.077 C 
HETATM    9  C   UNL     1      43.954 -30.088  -2.571  1.00  0.00     0.055 C 
HETATM   10  C   UNL     1      44.338 -29.468  -3.758  1.00  0.00     0.069 C 
HETATM   11  C   UNL     1      45.052 -28.278  -3.719  1.00  0.00     0.039 C 
HETATM   12  C   UNL     1      45.488 -27.772  -2.495  1.00  0.00     0.033 C 
BRANCH   8  13
HETATM   13  C   UNL     1      43.983 -30.321  -0.075  1.00  0.00     0.419 C 
HETATM   14  F   UNL     1      43.292 -29.555   0.815  1.00  0.00    -0.166 F 
HETATM   15  F   UNL     1      43.189 -31.394  -0.338  1.00  0.00    -0.166 F 
HETATM   16  F   UNL     1      45.055 -30.808   0.613  1.00  0.00    -0.166 F 
ENDBRANCH   8  13
BRANCH  10  17
HETATM   17  O   UNL     1      44.019 -29.948  -4.996  1.00  0.00    -0.351 OA
BRANCH  17  18
HETATM   18  C   UNL     1      44.337 -31.334  -5.166  1.00  0.00     0.171 C 
HETATM   19  C   UNL     1      45.794 -31.433  -5.583  1.00  0.00     0.034 C 
ENDBRANCH  17  18
ENDBRANCH  10  17
ENDBRANCH   1   7
BRANCH   3  20
HETATM   20  C   UNL     1      48.887 -29.817   0.447  1.00  0.00     0.086 A 
HETATM   21  C   UNL     1      49.296 -30.224   1.750  1.00  0.00     0.079 A 
HETATM   22  C   UNL     1      48.562 -30.204   3.039  1.00  0.00     0.075 C 
HETATM   23  N   UNL     1      50.527 -30.760   1.729  1.00  0.00    -0.177 NA
HETATM   24  N   UNL     1      50.891 -30.704   0.446  1.00  0.00    -0.280 N 
HETATM   25  H   UNL     1      51.808 -31.061   0.197  1.00  0.00     0.189 HD
HETATM   26  C   UNL     1      49.941 -30.168  -0.375  1.00  0.00     0.052 A 
HETATM   27  C   UNL     1      50.166 -30.021  -1.834  1.00  0.00     0.072 C 
ENDBRANCH   3  20
TORSDOF 5
ENDMDL
MODEL 9
REMARK VINA RESULT:      -7.0      3.430      5.679
REMARK  5 active torsions:
REMARK  status: ('A' for Active; 'I' for Inactive)
REMARK    1  A    between atoms: C_2  and  O_3 
REMARK    2  A    between atoms: O_3  and  C_4 
REMARK    3  A    between atoms: C_6  and  C_7 
REMARK    4  A    between atoms: C_11  and  N_12 
REMARK       I    between atoms: N_12  and  C_13 
REMARK       I    between atoms: C_13  and  N_14 
REMARK    5  A    between atoms: N_14  and  C_15 
ROOT
HETATM    1  N   UNL     1      39.513 -13.676   4.264  1.00  0.00    -0.308 N 
HETATM    2  C   UNL     1      40.252 -13.213   5.330  1.00  0.00     0.325 C 
HETATM    3  N   UNL     1      41.492 -12.713   5.044  1.00  0.00    -0.305 N 
HETATM    4  O   UNL     1      39.776 -13.363   6.451  1.00  0.00    -0.247 OA
HETATM    5  H   UNL     1      38.786 -14.307   4.593  1.00  0.00     0.170 HD
HETATM    6  H   UNL     1      41.731 -12.575   4.079  1.00  0.00     0.171 HD
ENDROOT
BRANCH   1   7
HETATM    7  C   UNL     1      39.745 -13.587   2.879  1.00  0.00     0.051 C 
HETATM    8  C   UNL     1      40.439 -14.614   2.214  1.00  0.00     0.077 C 
HETATM    9  C   UNL     1      40.777 -14.441   0.857  1.00  0.00     0.055 C 
HETATM   10  C   UNL     1      40.394 -13.292   0.170  1.00  0.00     0.069 C 
HETATM   11  C   UNL     1      39.586 -12.350   0.792  1.00  0.00     0.039 C 
HETATM   12  C   UNL     1      39.261 -12.497   2.140  1.00  0.00     0.033 C 
BRANCH   8  13
HETATM   13  C   UNL     1      40.933 -15.845   2.929  1.00  0.00     0.419 C 
HETATM   14  F   UNL     1      41.304 -16.846   2.083  1.00  0.00    -0.166 F 
HETATM   15  F   UNL     1      42.022 -15.589   3.703  1.00  0.00    -0.166 F 
HETATM   16  F   UNL     1      40.002 -16.392   3.761  1.00  0.00    -0.166 F 
ENDBRANCH   8  13
BRANCH  10  17
HETATM   17  O   UNL     1      40.741 -13.037  -1.126  1.00  0.00    -0.351 OA
BRANCH  17  18
HETATM   18  C   UNL     1      39.619 -12.983  -2.014  1.00  0.00     0.171 C 
HETATM   19  C   UNL     1      39.452 -14.354  -2.644  1.00  0.00     0.034 C 
ENDBRANCH  17  18
ENDBRANCH  10  17
ENDBRANCH   1   7
BRANCH   3  20
HETATM   20  C   UNL     1      42.490 -12.367   5.938  1.00  0.00     0.086 A 
HETATM   21  C   UNL     1      43.477 -13.108   6.651  1.00  0.00     0.079 A 
HETATM   22  C   UNL     1      43.797 -14.556   6.624  1.00  0.00     0.075 C 
HETATM   23  N   UNL     1      44.245 -12.301   7.401  1.00  0.00    -0.177 NA
HETATM   24  N   UNL     1      43.767 -11.077   7.166  1.00  0.00    -0.280 N 
HETATM   25  H   UNL     1      44.208 -10.297   7.642  1.00  0.00     0.189 HD
HETATM   26  C   UNL     1      42.728 -11.049   6.280  1.00  0.00     0.052 A 
HETATM   27  C   UNL     1      42.065  -9.779   5.898  1.00  0.00     0.072 C 
ENDBRANCH   3  20
TORSDOF 5
ENDMDL
MODEL 10
REMARK VINA RESULT:      -7.0      2.331      3.355
REMARK  5 active torsions:
REMARK  status: ('A' for Active; 'I' for Inactive)
REMARK    1  A    between atoms: C_2  and  O_3 
REMARK    2  A    between atoms: O_3  and  C_4 
REMARK    3  A    between atoms: C_6  and  C_7 
REMARK    4  A    between atoms: C_11  and  N_12 
REMARK       I    between atoms: N_12  and  C_13 
REMARK       I    between atoms: C_13  and  N_14 
REMARK    5  A    between atoms: N_14  and  C_15 
ROOT
HETATM    1  N   UNL     1      40.224 -14.815   3.660  1.00  0.00    -0.308 N 
HETATM    2  C   UNL     1      40.125 -13.452   3.491  1.00  0.00     0.325 C 
HETATM    3  N   UNL     1      41.171 -12.700   3.951  1.00  0.00    -0.305 N 
HETATM    4  O   UNL     1      39.078 -13.018   3.020  1.00  0.00    -0.247 OA
HETATM    5  H   UNL     1      39.302 -15.240   3.601  1.00  0.00     0.170 HD
HETATM    6  H   UNL     1      42.001 -13.181   4.244  1.00  0.00     0.171 HD
ENDROOT
BRANCH   1   7
HETATM    7  C   UNL     1      41.301 -15.609   4.095  1.00  0.00     0.051 C 
HETATM    8  C   UNL     1      42.300 -16.000   3.185  1.00  0.00     0.077 C 
HETATM    9  C   UNL     1      43.295 -16.904   3.610  1.00  0.00     0.055 C 
HETATM   10  C   UNL     1      43.316 -17.370   4.923  1.00  0.00     0.069 C 
HETATM   11  C   UNL     1      42.414 -16.868   5.851  1.00  0.00     0.039 C 
HETATM   12  C   UNL     1      41.412 -15.990   5.440  1.00  0.00     0.033 C 
BRANCH   8  13
HETATM   13  C   UNL     1      42.282 -15.576   1.740  1.00  0.00     0.419 C 
HETATM   14  F   UNL     1      41.065 -15.734   1.148  1.00  0.00    -0.166 F 
HETATM   15  F   UNL     1      42.604 -14.263   1.583  1.00  0.00    -0.166 F 
HETATM   16  F   UNL     1      43.162 -16.273   0.965  1.00  0.00    -0.166 F 
ENDBRANCH   8  13
BRANCH  10  17
HETATM   17  O   UNL     1      44.214 -18.291   5.380  1.00  0.00    -0.351 OA
BRANCH  17  18
HETATM   18  C   UNL     1      43.599 -19.485   5.878  1.00  0.00     0.171 C 
HETATM   19  C   UNL     1      44.104 -20.653   5.050  1.00  0.00     0.034 C 
ENDBRANCH  17  18
ENDBRANCH  10  17
ENDBRANCH   1   7
BRANCH   3  20
HETATM   20  C   UNL     1      41.233 -11.323   4.071  1.00  0.00     0.086 A 
HETATM   21  C   UNL     1      41.065 -10.419   5.160  1.00  0.00     0.079 A 
HETATM   22  C   UNL     1      40.805 -10.683   6.597  1.00  0.00     0.075 C 
HETATM   23  N   UNL     1      41.243  -9.147   4.770  1.00  0.00    -0.177 NA
HETATM   24  N   UNL     1      41.527  -9.236   3.468  1.00  0.00    -0.280 N 
HETATM   25  H   UNL     1      41.699  -8.375   2.961  1.00  0.00     0.189 HD
HETATM   26  C   UNL     1      41.556 -10.517   2.996  1.00  0.00     0.052 A 
HETATM   27  C   UNL     1      41.850 -10.815   1.573  1.00  0.00     0.072 C 
ENDBRANCH   3  20
TORSDOF 5
ENDMDL
