MODEL 1
REMARK VINA RESULT:      -9.7      0.000      0.000
REMARK  8 active torsions:
REMARK  status: ('A' for Active; 'I' for Inactive)
REMARK    1  A    between atoms: C_7  and  C_8 
REMARK       I    between atoms: C_8  and  N_9 
REMARK    2  A    between atoms: N_9  and  N_10 
REMARK    3  A    between atoms: N_10  and  C_11 
REMARK    4  A    between atoms: C_11  and  N_12 
REMARK    5  A    between atoms: N_12  and  C_13 
REMARK    6  A    between atoms: N_15  and  C_16 
REMARK    7  A    between atoms: C_16  and  C_17 
REMARK    8  A    between atoms: C_29  and  C_30 
ROOT
HETATM    1  C   UNL     1      39.944 -14.673   2.513  1.00  0.00     0.290 C 
HETATM    2  N   UNL     1      40.125 -13.749   3.523  1.00  0.00    -0.262 N 
HETATM    3  O   UNL     1      39.850 -15.886   2.677  1.00  0.00    -0.264 OA
HETATM    4  H   UNL     1      40.054 -12.761   3.281  1.00  0.00     0.190 HD
ENDROOT
BRANCH   2   5
HETATM    5  N   UNL     1      39.988 -14.113   4.861  1.00  0.00    -0.273 N 
HETATM    6  H   UNL     1      39.776 -15.094   5.070  1.00  0.00     0.189 HD
BRANCH   5   7
HETATM    7  C   UNL     1      40.440 -13.313   5.878  1.00  0.00     0.192 C 
HETATM    8  S   UNL     1      39.741 -11.854   6.326  1.00  0.00    -0.039 SA
BRANCH   7   9
HETATM    9  N   UNL     1      41.546 -13.731   6.563  1.00  0.00    -0.315 N 
HETATM   10  H   UNL     1      41.985 -13.037   7.152  1.00  0.00     0.170 HD
BRANCH   9  11
HETATM   11  C   UNL     1      42.186 -14.949   6.458  1.00  0.00     0.151 A 
HETATM   12  N   UNL     1      43.239 -15.180   5.669  1.00  0.00    -0.154 NA
HETATM   13  N   UNL     1      43.562 -16.468   5.911  1.00  0.00    -0.275 N 
HETATM   14  C   UNL     1      42.732 -17.068   6.813  1.00  0.00     0.116 A 
HETATM   15  C   UNL     1      41.821 -16.106   7.182  1.00  0.00     0.071 A 
BRANCH  13  16
HETATM   16  C   UNL     1      44.659 -17.095   5.184  1.00  0.00     0.192 C 
BRANCH  16  17
HETATM   17  C   UNL     1      44.166 -18.173   4.261  1.00  0.00     0.000 A 
HETATM   18  C   UNL     1      43.529 -17.841   3.065  1.00  0.00     0.124 A 
HETATM   19  F   UNL     1      43.369 -16.552   2.733  1.00  0.00    -0.205 F 
HETATM   20  C   UNL     1      43.055 -18.821   2.198  1.00  0.00     0.043 A 
HETATM   21  C   UNL     1      43.214 -20.167   2.527  1.00  0.00     0.003 A 
HETATM   22  C   UNL     1      43.841 -20.520   3.724  1.00  0.00     0.001 A 
HETATM   23  C   UNL     1      44.310 -19.530   4.590  1.00  0.00     0.012 A 
ENDBRANCH  16  17
ENDBRANCH  13  16
ENDBRANCH   9  11
ENDBRANCH   7   9
ENDBRANCH   5   7
ENDBRANCH   2   5
BRANCH   1  24
HETATM   24  C   UNL     1      39.867 -14.030   1.191  1.00  0.00     0.150 A 
HETATM   25  N   UNL     1      40.071 -14.732   0.052  1.00  0.00    -0.165 NA
HETATM   26  N   UNL     1      39.906 -13.814  -0.914  1.00  0.00    -0.240 N 
HETATM   27  C   UNL     1      39.712 -12.543  -0.453  1.00  0.00     0.123 A 
HETATM   28  C   UNL     1      40.008 -14.156  -2.320  1.00  0.00     0.221 C 
HETATM   29  N   UNL     1      39.669 -11.488  -1.294  1.00  0.00    -0.371 N 
HETATM   30  C   UNL     1      39.620 -12.656   0.911  1.00  0.00     0.089 A 
HETATM   31  C   UNL     1      39.731 -11.660  -2.745  1.00  0.00     0.081 C 
HETATM   32  H   UNL     1      39.366 -10.574  -0.959  1.00  0.00     0.161 HD
HETATM   33  C   UNL     1      40.401 -10.436  -3.365  1.00  0.00     0.032 C 
HETATM   34  C   UNL     1      40.520 -12.935  -3.100  1.00  0.00     0.061 C 
BRANCH  28  35
HETATM   35  C   UNL     1      38.672 -14.653  -2.823  1.00  0.00     0.409 C 
HETATM   36  F   UNL     1      38.482 -15.969  -2.585  1.00  0.00    -0.169 F 
HETATM   37  F   UNL     1      37.618 -13.988  -2.302  1.00  0.00    -0.169 F 
HETATM   38  F   UNL     1      38.600 -14.493  -4.171  1.00  0.00    -0.169 F 
ENDBRANCH  28  35
ENDBRANCH   1  24
TORSDOF 8
ENDMDL
MODEL 2
REMARK VINA RESULT:      -9.5      3.925      6.666
REMARK  8 active torsions:
REMARK  status: ('A' for Active; 'I' for Inactive)
REMARK    1  A    between atoms: C_7  and  C_8 
REMARK       I    between atoms: C_8  and  N_9 
REMARK    2  A    between atoms: N_9  and  N_10 
REMARK    3  A    between atoms: N_10  and  C_11 
REMARK    4  A    between atoms: C_11  and  N_12 
REMARK    5  A    between atoms: N_12  and  C_13 
REMARK    6  A    between atoms: N_15  and  C_16 
REMARK    7  A    between atoms: C_16  and  C_17 
REMARK    8  A    between atoms: C_29  and  C_30 
ROOT
HETATM    1  C   UNL     1      41.587 -11.855   1.763  1.00  0.00     0.290 C 
HETATM    2  N   UNL     1      41.939 -12.871   0.896  1.00  0.00    -0.262 N 
HETATM    3  O   UNL     1      40.753 -10.985   1.526  1.00  0.00    -0.264 OA
HETATM    4  H   UNL     1      42.543 -13.611   1.253  1.00  0.00     0.190 HD
ENDROOT
BRANCH   2   5
HETATM    5  N   UNL     1      41.194 -13.121  -0.254  1.00  0.00    -0.273 N 
HETATM    6  H   UNL     1      41.696 -13.172  -1.147  1.00  0.00     0.189 HD
BRANCH   5   7
HETATM    7  C   UNL     1      39.917 -13.615  -0.196  1.00  0.00     0.192 C 
HETATM    8  S   UNL     1      38.560 -12.825  -0.790  1.00  0.00    -0.039 SA
BRANCH   7   9
HETATM    9  N   UNL     1      39.740 -14.831   0.403  1.00  0.00    -0.315 N 
HETATM   10  H   UNL     1      38.942 -15.363   0.086  1.00  0.00     0.170 HD
BRANCH   9  11
HETATM   11  C   UNL     1      40.461 -15.361   1.454  1.00  0.00     0.151 A 
HETATM   12  N   UNL     1      41.778 -15.586   1.425  1.00  0.00    -0.154 NA
HETATM   13  N   UNL     1      42.063 -16.057   2.657  1.00  0.00    -0.275 N 
HETATM   14  C   UNL     1      40.964 -16.159   3.459  1.00  0.00     0.116 A 
HETATM   15  C   UNL     1      39.904 -15.719   2.701  1.00  0.00     0.071 A 
BRANCH  13  16
HETATM   16  C   UNL     1      43.424 -16.460   2.987  1.00  0.00     0.192 C 
BRANCH  16  17
HETATM   17  C   UNL     1      43.535 -17.948   3.159  1.00  0.00     0.000 A 
HETATM   18  C   UNL     1      44.042 -18.486   4.344  1.00  0.00     0.124 A 
HETATM   19  F   UNL     1      44.416 -17.667   5.337  1.00  0.00    -0.205 F 
HETATM   20  C   UNL     1      44.163 -19.860   4.523  1.00  0.00     0.043 A 
HETATM   21  C   UNL     1      43.777 -20.725   3.500  1.00  0.00     0.003 A 
HETATM   22  C   UNL     1      43.278 -20.207   2.304  1.00  0.00     0.001 A 
HETATM   23  C   UNL     1      43.162 -18.826   2.130  1.00  0.00     0.012 A 
ENDBRANCH  16  17
ENDBRANCH  13  16
ENDBRANCH   9  11
ENDBRANCH   7   9
ENDBRANCH   5   7
ENDBRANCH   2   5
BRANCH   1  24
HETATM   24  C   UNL     1      42.330 -11.935   3.031  1.00  0.00     0.150 A 
HETATM   25  N   UNL     1      41.744 -12.379   4.167  1.00  0.00    -0.165 NA
HETATM   26  N   UNL     1      42.731 -12.315   5.074  1.00  0.00    -0.240 N 
HETATM   27  C   UNL     1      43.886 -11.756   4.607  1.00  0.00     0.123 A 
HETATM   28  C   UNL     1      42.536 -12.737   6.448  1.00  0.00     0.221 C 
HETATM   29  N   UNL     1      44.924 -11.492   5.430  1.00  0.00    -0.371 N 
HETATM   30  C   UNL     1      43.682 -11.553   3.266  1.00  0.00     0.089 A 
HETATM   31  C   UNL     1      44.901 -11.878   6.840  1.00  0.00     0.081 C 
HETATM   32  H   UNL     1      45.831 -11.228   5.047  1.00  0.00     0.161 HD
HETATM   33  C   UNL     1      45.730 -10.879   7.645  1.00  0.00     0.032 C 
HETATM   34  C   UNL     1      43.453 -11.912   7.364  1.00  0.00     0.061 C 
BRANCH  28  35
HETATM   35  C   UNL     1      42.780 -14.225   6.564  1.00  0.00     0.409 C 
HETATM   36  F   UNL     1      41.660 -14.954   6.364  1.00  0.00    -0.169 F 
HETATM   37  F   UNL     1      43.723 -14.685   5.714  1.00  0.00    -0.169 F 
HETATM   38  F   UNL     1      43.212 -14.523   7.818  1.00  0.00    -0.169 F 
ENDBRANCH  28  35
ENDBRANCH   1  24
TORSDOF 8
ENDMDL
MODEL 3
REMARK VINA RESULT:      -9.2      2.049      2.656
REMARK  8 active torsions:
REMARK  status: ('A' for Active; 'I' for Inactive)
REMARK    1  A    between atoms: C_7  and  C_8 
REMARK       I    between atoms: C_8  and  N_9 
REMARK    2  A    between atoms: N_9  and  N_10 
REMARK    3  A    between atoms: N_10  and  C_11 
REMARK    4  A    between atoms: C_11  and  N_12 
REMARK    5  A    between atoms: N_12  and  C_13 
REMARK    6  A    between atoms: N_15  and  C_16 
REMARK    7  A    between atoms: C_16  and  C_17 
REMARK    8  A    between atoms: C_29  and  C_30 
ROOT
HETATM    1  C   UNL     1      42.069 -13.514   2.409  1.00  0.00     0.290 C 
HETATM    2  N   UNL     1      41.772 -12.428   3.209  1.00  0.00    -0.262 N 
HETATM    3  O   UNL     1      42.833 -14.425   2.716  1.00  0.00    -0.264 OA
HETATM    4  H   UNL     1      41.023 -11.807   2.904  1.00  0.00     0.190 HD
ENDROOT
BRANCH   2   5
HETATM    5  N   UNL     1      42.154 -12.398   4.548  1.00  0.00    -0.273 N 
HETATM    6  H   UNL     1      42.958 -11.816   4.803  1.00  0.00     0.189 HD
BRANCH   5   7
HETATM    7  C   UNL     1      41.323 -12.834   5.547  1.00  0.00     0.192 C 
HETATM    8  S   UNL     1      39.699 -12.430   5.683  1.00  0.00    -0.039 SA
BRANCH   7   9
HETATM    9  N   UNL     1      41.865 -13.645   6.505  1.00  0.00    -0.315 N 
HETATM   10  H   UNL     1      42.045 -13.206   7.398  1.00  0.00     0.170 HD
BRANCH   9  11
HETATM   11  C   UNL     1      42.285 -14.951   6.359  1.00  0.00     0.151 A 
HETATM   12  N   UNL     1      43.418 -15.312   5.749  1.00  0.00    -0.154 NA
HETATM   13  N   UNL     1      43.451 -16.656   5.875  1.00  0.00    -0.275 N 
HETATM   14  C   UNL     1      42.363 -17.159   6.527  1.00  0.00     0.116 A 
HETATM   15  C   UNL     1      41.582 -16.074   6.849  1.00  0.00     0.071 A 
BRANCH  13  16
HETATM   16  C   UNL     1      44.542 -17.418   5.281  1.00  0.00     0.192 C 
BRANCH  16  17
HETATM   17  C   UNL     1      44.049 -18.343   4.205  1.00  0.00     0.000 A 
HETATM   18  C   UNL     1      44.161 -19.726   4.359  1.00  0.00     0.124 A 
HETATM   19  F   UNL     1      44.697 -20.228   5.481  1.00  0.00    -0.205 F 
HETATM   20  C   UNL     1      43.720 -20.604   3.373  1.00  0.00     0.043 A 
HETATM   21  C   UNL     1      43.159 -20.099   2.202  1.00  0.00     0.003 A 
HETATM   22  C   UNL     1      43.048 -18.719   2.024  1.00  0.00     0.001 A 
HETATM   23  C   UNL     1      43.495 -17.843   3.017  1.00  0.00     0.012 A 
ENDBRANCH  16  17
ENDBRANCH  13  16
ENDBRANCH   9  11
ENDBRANCH   7   9
ENDBRANCH   5   7
ENDBRANCH   2   5
BRANCH   1  24
HETATM   24  C   UNL     1      41.351 -13.462   1.126  1.00  0.00     0.150 A 
HETATM   25  N   UNL     1      41.044 -12.283   0.536  1.00  0.00    -0.165 NA
HETATM   26  N   UNL     1      40.417 -12.653  -0.592  1.00  0.00    -0.240 N 
HETATM   27  C   UNL     1      40.212 -13.998  -0.706  1.00  0.00     0.123 A 
HETATM   28  C   UNL     1      39.938 -11.680  -1.555  1.00  0.00     0.221 C 
HETATM   29  N   UNL     1      39.475 -14.516  -1.712  1.00  0.00    -0.371 N 
HETATM   30  C   UNL     1      40.860 -14.561   0.365  1.00  0.00     0.089 A 
HETATM   31  C   UNL     1      38.940 -13.676  -2.782  1.00  0.00     0.081 C 
HETATM   32  H   UNL     1      39.464 -15.522  -1.876  1.00  0.00     0.161 HD
HETATM   33  C   UNL     1      37.632 -14.282  -3.286  1.00  0.00     0.032 C 
HETATM   34  C   UNL     1      38.700 -12.244  -2.269  1.00  0.00     0.061 C 
BRANCH  28  35
HETATM   35  C   UNL     1      41.051 -11.319  -2.514  1.00  0.00     0.409 C 
HETATM   36  F   UNL     1      41.769 -12.394  -2.907  1.00  0.00    -0.169 F 
HETATM   37  F   UNL     1      40.620 -10.687  -3.627  1.00  0.00    -0.169 F 
HETATM   38  F   UNL     1      41.926 -10.476  -1.906  1.00  0.00    -0.169 F 
ENDBRANCH  28  35
ENDBRANCH   1  24
TORSDOF 8
ENDMDL
MODEL 4
REMARK VINA RESULT:      -8.9      4.623      8.438
REMARK  8 active torsions:
REMARK  status: ('A' for Active; 'I' for Inactive)
REMARK    1  A    between atoms: C_7  and  C_8 
REMARK       I    between atoms: C_8  and  N_9 
REMARK    2  A    between atoms: N_9  and  N_10 
REMARK    3  A    between atoms: N_10  and  C_11 
REMARK    4  A    between atoms: C_11  and  N_12 
REMARK    5  A    between atoms: N_12  and  C_13 
REMARK    6  A    between atoms: N_15  and  C_16 
REMARK    7  A    between atoms: C_16  and  C_17 
REMARK    8  A    between atoms: C_29  and  C_30 
ROOT
HETATM    1  C   UNL     1      42.451 -10.940   4.493  1.00  0.00     0.290 C 
HETATM    2  N   UNL     1      41.163 -11.374   4.250  1.00  0.00    -0.262 N 
HETATM    3  O   UNL     1      43.332 -10.842   3.645  1.00  0.00    -0.264 OA
HETATM    4  H   UNL     1      40.482 -11.286   5.004  1.00  0.00     0.190 HD
ENDROOT
BRANCH   2   5
HETATM    5  N   UNL     1      40.691 -11.526   2.948  1.00  0.00    -0.273 N 
HETATM    6  H   UNL     1      41.360 -11.409   2.180  1.00  0.00     0.189 HD
BRANCH   5   7
HETATM    7  C   UNL     1      39.491 -12.130   2.679  1.00  0.00     0.192 C 
HETATM    8  S   UNL     1      38.183 -11.373   1.947  1.00  0.00    -0.039 SA
BRANCH   7   9
HETATM    9  N   UNL     1      39.349 -13.438   3.050  1.00  0.00    -0.315 N 
HETATM   10  H   UNL     1      38.526 -13.652   3.595  1.00  0.00     0.170 HD
BRANCH   9  11
HETATM   11  C   UNL     1      40.249 -14.466   2.855  1.00  0.00     0.151 A 
HETATM   12  N   UNL     1      41.508 -14.460   3.304  1.00  0.00    -0.154 NA
HETATM   13  N   UNL     1      42.001 -15.660   2.933  1.00  0.00    -0.275 N 
HETATM   14  C   UNL     1      41.100 -16.419   2.244  1.00  0.00     0.116 A 
HETATM   15  C   UNL     1      39.952 -15.666   2.171  1.00  0.00     0.071 A 
BRANCH  13  16
HETATM   16  C   UNL     1      43.389 -15.998   3.220  1.00  0.00     0.192 C 
BRANCH  16  17
HETATM   17  C   UNL     1      43.492 -17.115   4.219  1.00  0.00     0.000 A 
HETATM   18  C   UNL     1      43.940 -18.377   3.823  1.00  0.00     0.124 A 
HETATM   19  F   UNL     1      44.292 -18.586   2.547  1.00  0.00    -0.205 F 
HETATM   20  C   UNL     1      44.035 -19.430   4.728  1.00  0.00     0.043 A 
HETATM   21  C   UNL     1      43.674 -19.229   6.060  1.00  0.00     0.003 A 
HETATM   22  C   UNL     1      43.215 -17.977   6.474  1.00  0.00     0.001 A 
HETATM   23  C   UNL     1      43.119 -16.925   5.559  1.00  0.00     0.012 A 
ENDBRANCH  16  17
ENDBRANCH  13  16
ENDBRANCH   9  11
ENDBRANCH   7   9
ENDBRANCH   5   7
ENDBRANCH   2   5
BRANCH   1  24
HETATM   24  C   UNL     1      42.653 -10.593   5.910  1.00  0.00     0.150 A 
HETATM   25  N   UNL     1      43.797 -10.914   6.559  1.00  0.00    -0.165 NA
HETATM   26  N   UNL     1      43.601 -10.428   7.795  1.00  0.00    -0.240 N 
HETATM   27  C   UNL     1      42.355  -9.909   8.003  1.00  0.00     0.123 A 
HETATM   28  C   UNL     1      44.615 -10.530   8.826  1.00  0.00     0.221 C 
HETATM   29  N   UNL     1      41.955  -9.508   9.229  1.00  0.00    -0.371 N 
HETATM   30  C   UNL     1      41.732  -9.945   6.781  1.00  0.00     0.089 A 
HETATM   31  C   UNL     1      42.863  -9.521  10.374  1.00  0.00     0.081 C 
HETATM   32  H   UNL     1      41.091  -8.979   9.341  1.00  0.00     0.161 HD
HETATM   33  C   UNL     1      42.058  -9.767  11.648  1.00  0.00     0.032 C 
HETATM   34  C   UNL     1      43.931 -10.616  10.199  1.00  0.00     0.061 C 
BRANCH  28  35
HETATM   35  C   UNL     1      45.570  -9.362   8.721  1.00  0.00     0.409 C 
HETATM   36  F   UNL     1      44.966  -8.232   8.291  1.00  0.00    -0.169 F 
HETATM   37  F   UNL     1      46.198  -9.072   9.882  1.00  0.00    -0.169 F 
HETATM   38  F   UNL     1      46.543  -9.644   7.816  1.00  0.00    -0.169 F 
ENDBRANCH  28  35
ENDBRANCH   1  24
TORSDOF 8
ENDMDL
MODEL 5
REMARK VINA RESULT:      -8.9      5.168      8.384
REMARK  8 active torsions:
REMARK  status: ('A' for Active; 'I' for Inactive)
REMARK    1  A    between atoms: C_7  and  C_8 
REMARK       I    between atoms: C_8  and  N_9 
REMARK    2  A    between atoms: N_9  and  N_10 
REMARK    3  A    between atoms: N_10  and  C_11 
REMARK    4  A    between atoms: C_11  and  N_12 
REMARK    5  A    between atoms: N_12  and  C_13 
REMARK    6  A    between atoms: N_15  and  C_16 
REMARK    7  A    between atoms: C_16  and  C_17 
REMARK    8  A    between atoms: C_29  and  C_30 
ROOT
HETATM    1  C   UNL     1      42.203 -10.774   4.931  1.00  0.00     0.290 C 
HETATM    2  N   UNL     1      42.227 -12.151   5.023  1.00  0.00    -0.262 N 
HETATM    3  O   UNL     1      41.998 -10.141   3.898  1.00  0.00    -0.264 OA
HETATM    4  H   UNL     1      42.273 -12.563   5.955  1.00  0.00     0.190 HD
ENDROOT
BRANCH   2   5
HETATM    5  N   UNL     1      41.787 -12.948   3.969  1.00  0.00    -0.273 N 
HETATM    6  H   UNL     1      42.496 -13.367   3.359  1.00  0.00     0.189 HD
BRANCH   5   7
HETATM    7  C   UNL     1      40.510 -13.445   3.922  1.00  0.00     0.192 C 
HETATM    8  S   UNL     1      39.180 -12.602   3.339  1.00  0.00    -0.039 SA
BRANCH   7   9
HETATM    9  N   UNL     1      40.310 -14.710   4.398  1.00  0.00    -0.315 N 
HETATM   10  H   UNL     1      39.370 -15.069   4.305  1.00  0.00     0.170 HD
BRANCH   9  11
HETATM   11  C   UNL     1      41.211 -15.502   5.078  1.00  0.00     0.151 A 
HETATM   12  N   UNL     1      42.308 -16.035   4.531  1.00  0.00    -0.154 NA
HETATM   13  N   UNL     1      42.909 -16.684   5.550  1.00  0.00    -0.275 N 
HETATM   14  C   UNL     1      42.215 -16.598   6.722  1.00  0.00     0.116 A 
HETATM   15  C   UNL     1      41.101 -15.841   6.445  1.00  0.00     0.071 A 
BRANCH  13  16
HETATM   16  C   UNL     1      44.135 -17.435   5.315  1.00  0.00     0.192 C 
BRANCH  16  17
HETATM   17  C   UNL     1      43.933 -18.522   4.299  1.00  0.00     0.000 A 
HETATM   18  C   UNL     1      43.996 -19.864   4.680  1.00  0.00     0.124 A 
HETATM   19  F   UNL     1      44.224 -20.180   5.962  1.00  0.00    -0.205 F 
HETATM   20  C   UNL     1      43.821 -20.890   3.755  1.00  0.00     0.043 A 
HETATM   21  C   UNL     1      43.582 -20.578   2.418  1.00  0.00     0.003 A 
HETATM   22  C   UNL     1      43.525 -19.243   2.015  1.00  0.00     0.001 A 
HETATM   23  C   UNL     1      43.704 -18.218   2.948  1.00  0.00     0.012 A 
ENDBRANCH  16  17
ENDBRANCH  13  16
ENDBRANCH   9  11
ENDBRANCH   7   9
ENDBRANCH   5   7
ENDBRANCH   2   5
BRANCH   1  24
HETATM   24  C   UNL     1      42.450 -10.133   6.233  1.00  0.00     0.150 A 
HETATM   25  N   UNL     1      43.166 -10.752   7.200  1.00  0.00    -0.165 NA
HETATM   26  N   UNL     1      43.175  -9.859   8.202  1.00  0.00    -0.240 N 
HETATM   27  C   UNL     1      42.416  -8.748   7.970  1.00  0.00     0.123 A 
HETATM   28  C   UNL     1      43.876 -10.113   9.446  1.00  0.00     0.221 C 
HETATM   29  N   UNL     1      42.209  -7.823   8.932  1.00  0.00    -0.371 N 
HETATM   30  C   UNL     1      41.978  -8.864   6.675  1.00  0.00     0.089 A 
HETATM   31  C   UNL     1      42.862  -7.914  10.237  1.00  0.00     0.081 C 
HETATM   32  H   UNL     1      41.779  -6.928   8.702  1.00  0.00     0.161 HD
HETATM   33  C   UNL     1      41.957  -7.286  11.294  1.00  0.00     0.032 C 
HETATM   34  C   UNL     1      43.152  -9.385  10.590  1.00  0.00     0.061 C 
BRANCH  28  35
HETATM   35  C   UNL     1      45.323  -9.696   9.312  1.00  0.00     0.409 C 
HETATM   36  F   UNL     1      45.489  -8.653   8.470  1.00  0.00    -0.169 F 
HETATM   37  F   UNL     1      45.900  -9.366  10.488  1.00  0.00    -0.169 F 
HETATM   38  F   UNL     1      46.051 -10.722   8.800  1.00  0.00    -0.169 F 
ENDBRANCH  28  35
ENDBRANCH   1  24
TORSDOF 8
ENDMDL
MODEL 6
REMARK VINA RESULT:      -8.8      6.013      9.682
REMARK  8 active torsions:
REMARK  status: ('A' for Active; 'I' for Inactive)
REMARK    1  A    between atoms: C_7  and  C_8 
REMARK       I    between atoms: C_8  and  N_9 
REMARK    2  A    between atoms: N_9  and  N_10 
REMARK    3  A    between atoms: N_10  and  C_11 
REMARK    4  A    between atoms: C_11  and  N_12 
REMARK    5  A    between atoms: N_12  and  C_13 
REMARK    6  A    between atoms: N_15  and  C_16 
REMARK    7  A    between atoms: C_16  and  C_17 
REMARK    8  A    between atoms: C_29  and  C_30 
ROOT
HETATM    1  C   UNL     1      44.418 -10.787   8.106  1.00  0.00     0.290 C 
HETATM    2  N   UNL     1      43.812 -12.008   7.883  1.00  0.00    -0.262 N 
HETATM    3  O   UNL     1      45.330 -10.321   7.429  1.00  0.00    -0.264 OA
HETATM    4  H   UNL     1      42.978 -12.229   8.427  1.00  0.00     0.190 HD
ENDROOT
BRANCH   2   5
HETATM    5  N   UNL     1      44.045 -12.721   6.710  1.00  0.00    -0.273 N 
HETATM    6  H   UNL     1      44.767 -13.448   6.728  1.00  0.00     0.189 HD
BRANCH   5   7
HETATM    7  C   UNL     1      43.151 -12.716   5.670  1.00  0.00     0.192 C 
HETATM    8  S   UNL     1      43.087 -11.540   4.473  1.00  0.00    -0.039 SA
BRANCH   7   9
HETATM    9  N   UNL     1      42.242 -13.735   5.619  1.00  0.00    -0.315 N 
HETATM   10  H   UNL     1      41.631 -13.817   6.420  1.00  0.00     0.170 HD
BRANCH   9  11
HETATM   11  C   UNL     1      42.136 -14.716   4.656  1.00  0.00     0.151 A 
HETATM   12  N   UNL     1      43.156 -15.470   4.235  1.00  0.00    -0.154 NA
HETATM   13  N   UNL     1      42.601 -16.313   3.338  1.00  0.00    -0.275 N 
HETATM   14  C   UNL     1      41.264 -16.101   3.161  1.00  0.00     0.116 A 
HETATM   15  C   UNL     1      40.934 -15.063   4.000  1.00  0.00     0.071 A 
BRANCH  13  16
HETATM   16  C   UNL     1      43.435 -17.272   2.625  1.00  0.00     0.192 C 
BRANCH  16  17
HETATM   17  C   UNL     1      43.642 -18.527   3.424  1.00  0.00     0.000 A 
HETATM   18  C   UNL     1      43.669 -19.771   2.789  1.00  0.00     0.124 A 
HETATM   19  F   UNL     1      43.523 -19.840   1.459  1.00  0.00    -0.205 F 
HETATM   20  C   UNL     1      43.851 -20.948   3.509  1.00  0.00     0.043 A 
HETATM   21  C   UNL     1      44.006 -20.893   4.893  1.00  0.00     0.003 A 
HETATM   22  C   UNL     1      43.972 -19.660   5.547  1.00  0.00     0.001 A 
HETATM   23  C   UNL     1      43.786 -18.482   4.819  1.00  0.00     0.012 A 
ENDBRANCH  16  17
ENDBRANCH  13  16
ENDBRANCH   9  11
ENDBRANCH   7   9
ENDBRANCH   5   7
ENDBRANCH   2   5
BRANCH   1  24
HETATM   24  C   UNL     1      43.834 -10.089   9.262  1.00  0.00     0.150 A 
HETATM   25  N   UNL     1      42.598  -9.539   9.205  1.00  0.00    -0.165 NA
HETATM   26  N   UNL     1      42.429  -9.022  10.432  1.00  0.00    -0.240 N 
HETATM   27  C   UNL     1      43.529  -9.116  11.237  1.00  0.00     0.123 A 
HETATM   28  C   UNL     1      41.202  -8.353  10.819  1.00  0.00     0.221 C 
HETATM   29  N   UNL     1      43.568  -8.521  12.449  1.00  0.00    -0.371 N 
HETATM   30  C   UNL     1      44.441  -9.858  10.530  1.00  0.00     0.089 A 
HETATM   31  C   UNL     1      42.405  -7.828  13.001  1.00  0.00     0.081 C 
HETATM   32  H   UNL     1      44.322  -8.731  13.101  1.00  0.00     0.161 HD
HETATM   33  C   UNL     1      42.882  -6.689  13.899  1.00  0.00     0.032 C 
HETATM   34  C   UNL     1      41.522  -7.276  11.866  1.00  0.00     0.061 C 
BRANCH  28  35
HETATM   35  C   UNL     1      40.200  -9.372  11.316  1.00  0.00     0.409 C 
HETATM   36  F   UNL     1      40.788 -10.436  11.905  1.00  0.00    -0.169 F 
HETATM   37  F   UNL     1      39.304  -8.865  12.190  1.00  0.00    -0.169 F 
HETATM   38  F   UNL     1      39.484  -9.860  10.269  1.00  0.00    -0.169 F 
ENDBRANCH  28  35
ENDBRANCH   1  24
TORSDOF 8
ENDMDL
MODEL 7
REMARK VINA RESULT:      -8.7      1.378      1.764
REMARK  8 active torsions:
REMARK  status: ('A' for Active; 'I' for Inactive)
REMARK    1  A    between atoms: C_7  and  C_8 
REMARK       I    between atoms: C_8  and  N_9 
REMARK    2  A    between atoms: N_9  and  N_10 
REMARK    3  A    between atoms: N_10  and  C_11 
REMARK    4  A    between atoms: C_11  and  N_12 
REMARK    5  A    between atoms: N_12  and  C_13 
REMARK    6  A    between atoms: N_15  and  C_16 
REMARK    7  A    between atoms: C_16  and  C_17 
REMARK    8  A    between atoms: C_29  and  C_30 
ROOT
HETATM    1  C   UNL     1      40.935 -14.930   2.052  1.00  0.00     0.290 C 
HETATM    2  N   UNL     1      40.904 -14.167   3.203  1.00  0.00    -0.262 N 
HETATM    3  O   UNL     1      41.336 -16.089   1.987  1.00  0.00    -0.264 OA
HETATM    4  H   UNL     1      40.426 -13.267   3.162  1.00  0.00     0.190 HD
ENDROOT
BRANCH   2   5
HETATM    5  N   UNL     1      41.123 -14.744   4.452  1.00  0.00    -0.273 N 
HETATM    6  H   UNL     1      41.822 -15.490   4.518  1.00  0.00     0.189 HD
BRANCH   5   7
HETATM    7  C   UNL     1      40.697 -14.146   5.609  1.00  0.00     0.192 C 
HETATM    8  S   UNL     1      39.724 -12.779   5.675  1.00  0.00    -0.039 SA
BRANCH   7   9
HETATM    9  N   UNL     1      41.109 -14.697   6.790  1.00  0.00    -0.315 N 
HETATM   10  H   UNL     1      40.696 -14.305   7.624  1.00  0.00     0.170 HD
BRANCH   9  11
HETATM   11  C   UNL     1      42.095 -15.645   6.974  1.00  0.00     0.151 A 
HETATM   12  N   UNL     1      42.023 -16.901   6.523  1.00  0.00    -0.154 NA
HETATM   13  N   UNL     1      43.201 -17.453   6.882  1.00  0.00    -0.275 N 
HETATM   14  C   UNL     1      44.009 -16.591   7.566  1.00  0.00     0.116 A 
HETATM   15  C   UNL     1      43.313 -15.408   7.648  1.00  0.00     0.071 A 
BRANCH  13  16
HETATM   16  C   UNL     1      43.470 -18.855   6.590  1.00  0.00     0.192 C 
BRANCH  16  17
HETATM   17  C   UNL     1      43.601 -19.098   5.113  1.00  0.00     0.000 A 
HETATM   18  C   UNL     1      43.673 -20.401   4.617  1.00  0.00     0.124 A 
HETATM   19  F   UNL     1      43.611 -21.439   5.463  1.00  0.00    -0.205 F 
HETATM   20  C   UNL     1      43.805 -20.652   3.254  1.00  0.00     0.043 A 
HETATM   21  C   UNL     1      43.869 -19.585   2.360  1.00  0.00     0.003 A 
HETATM   22  C   UNL     1      43.808 -18.274   2.837  1.00  0.00     0.001 A 
HETATM   23  C   UNL     1      43.680 -18.030   4.207  1.00  0.00     0.012 A 
ENDBRANCH  16  17
ENDBRANCH  13  16
ENDBRANCH   9  11
ENDBRANCH   7   9
ENDBRANCH   5   7
ENDBRANCH   2   5
BRANCH   1  24
HETATM   24  C   UNL     1      40.418 -14.190   0.890  1.00  0.00     0.150 A 
HETATM   25  N   UNL     1      40.530 -14.679  -0.367  1.00  0.00    -0.165 NA
HETATM   26  N   UNL     1      39.941 -13.739  -1.122  1.00  0.00    -0.240 N 
HETATM   27  C   UNL     1      39.553 -12.626  -0.432  1.00  0.00     0.123 A 
HETATM   28  C   UNL     1      39.813 -13.882  -2.559  1.00  0.00     0.221 C 
HETATM   29  N   UNL     1      39.073 -11.535  -1.066  1.00  0.00    -0.371 N 
HETATM   30  C   UNL     1      39.792 -12.910   0.890  1.00  0.00     0.089 A 
HETATM   31  C   UNL     1      38.856 -11.522  -2.512  1.00  0.00     0.081 C 
HETATM   32  H   UNL     1      38.639 -10.780  -0.536  1.00  0.00     0.161 HD
HETATM   33  C   UNL     1      39.057 -10.102  -3.035  1.00  0.00     0.032 C 
HETATM   34  C   UNL     1      39.831 -12.490  -3.209  1.00  0.00     0.061 C 
BRANCH  28  35
HETATM   35  C   UNL     1      38.558 -14.662  -2.885  1.00  0.00     0.409 C 
HETATM   36  F   UNL     1      38.284 -14.678  -4.207  1.00  0.00    -0.169 F 
HETATM   37  F   UNL     1      38.595 -15.944  -2.461  1.00  0.00    -0.169 F 
HETATM   38  F   UNL     1      37.488 -14.086  -2.278  1.00  0.00    -0.169 F 
ENDBRANCH  28  35
ENDBRANCH   1  24
TORSDOF 8
ENDMDL
MODEL 8
REMARK VINA RESULT:      -8.7      5.531      8.953
REMARK  8 active torsions:
REMARK  status: ('A' for Active; 'I' for Inactive)
REMARK    1  A    between atoms: C_7  and  C_8 
REMARK       I    between atoms: C_8  and  N_9 
REMARK    2  A    between atoms: N_9  and  N_10 
REMARK    3  A    between atoms: N_10  and  C_11 
REMARK    4  A    between atoms: C_11  and  N_12 
REMARK    5  A    between atoms: N_12  and  C_13 
REMARK    6  A    between atoms: N_15  and  C_16 
REMARK    7  A    between atoms: C_16  and  C_17 
REMARK    8  A    between atoms: C_29  and  C_30 
ROOT
HETATM    1  C   UNL     1      40.667 -12.692   6.088  1.00  0.00     0.290 C 
HETATM    2  N   UNL     1      41.522 -11.755   6.635  1.00  0.00    -0.262 N 
HETATM    3  O   UNL     1      39.441 -12.629   6.120  1.00  0.00    -0.264 OA
HETATM    4  H   UNL     1      42.517 -11.845   6.429  1.00  0.00     0.190 HD
ENDROOT
BRANCH   2   5
HETATM    5  N   UNL     1      41.047 -10.524   7.081  1.00  0.00    -0.273 N 
HETATM    6  H   UNL     1      40.190 -10.518   7.643  1.00  0.00     0.189 HD
BRANCH   5   7
HETATM    7  C   UNL     1      41.834  -9.402   7.080  1.00  0.00     0.192 C 
HETATM    8  S   UNL     1      41.309  -7.869   6.642  1.00  0.00    -0.039 SA
BRANCH   7   9
HETATM    9  N   UNL     1      43.142  -9.552   7.448  1.00  0.00    -0.315 N 
HETATM   10  H   UNL     1      43.810  -9.572   6.691  1.00  0.00     0.170 HD
BRANCH   9  11
HETATM   11  C   UNL     1      43.634  -9.782   8.716  1.00  0.00     0.151 A 
HETATM   12  N   UNL     1      42.877 -10.089   9.773  1.00  0.00    -0.154 NA
HETATM   13  N   UNL     1      43.761 -10.270  10.777  1.00  0.00    -0.275 N 
HETATM   14  C   UNL     1      45.055 -10.064  10.394  1.00  0.00     0.116 A 
HETATM   15  C   UNL     1      45.004  -9.738   9.059  1.00  0.00     0.071 A 
BRANCH  13  16
HETATM   16  C   UNL     1      43.287 -10.580  12.120  1.00  0.00     0.192 C 
BRANCH  16  17
HETATM   17  C   UNL     1      42.646  -9.388  12.770  1.00  0.00     0.000 A 
HETATM   18  C   UNL     1      41.325  -9.455  13.219  1.00  0.00     0.124 A 
HETATM   19  F   UNL     1      40.633 -10.595  13.079  1.00  0.00    -0.205 F 
HETATM   20  C   UNL     1      40.705  -8.362  13.816  1.00  0.00     0.043 A 
HETATM   21  C   UNL     1      41.411  -7.170  13.970  1.00  0.00     0.003 A 
HETATM   22  C   UNL     1      42.729  -7.079  13.520  1.00  0.00     0.001 A 
HETATM   23  C   UNL     1      43.344  -8.180  12.918  1.00  0.00     0.012 A 
ENDBRANCH  16  17
ENDBRANCH  13  16
ENDBRANCH   9  11
ENDBRANCH   7   9
ENDBRANCH   5   7
ENDBRANCH   2   5
BRANCH   1  24
HETATM   24  C   UNL     1      41.400 -13.792   5.443  1.00  0.00     0.150 A 
HETATM   25  N   UNL     1      41.007 -14.301   4.252  1.00  0.00    -0.165 NA
HETATM   26  N   UNL     1      41.918 -15.255   4.003  1.00  0.00    -0.240 N 
HETATM   27  C   UNL     1      42.811 -15.457   5.017  1.00  0.00     0.123 A 
HETATM   28  C   UNL     1      41.888 -16.043   2.786  1.00  0.00     0.221 C 
HETATM   29  N   UNL     1      43.701 -16.471   4.980  1.00  0.00    -0.371 N 
HETATM   30  C   UNL     1      42.542 -14.482   5.944  1.00  0.00     0.089 A 
HETATM   31  C   UNL     1      43.819 -17.346   3.815  1.00  0.00     0.081 C 
HETATM   32  H   UNL     1      44.460 -16.514   5.659  1.00  0.00     0.161 HD
HETATM   33  C   UNL     1      44.262 -18.733   4.274  1.00  0.00     0.032 C 
HETATM   34  C   UNL     1      42.473 -17.435   3.072  1.00  0.00     0.061 C 
BRANCH  28  35
HETATM   35  C   UNL     1      42.625 -15.314   1.686  1.00  0.00     0.409 C 
HETATM   36  F   UNL     1      43.323 -16.149   0.885  1.00  0.00    -0.169 F 
HETATM   37  F   UNL     1      41.820 -14.571   0.897  1.00  0.00    -0.169 F 
HETATM   38  F   UNL     1      43.531 -14.459   2.228  1.00  0.00    -0.169 F 
ENDBRANCH  28  35
ENDBRANCH   1  24
TORSDOF 8
ENDMDL
MODEL 9
REMARK VINA RESULT:      -8.6      5.862      9.598
REMARK  8 active torsions:
REMARK  status: ('A' for Active; 'I' for Inactive)
REMARK    1  A    between atoms: C_7  and  C_8 
REMARK       I    between atoms: C_8  and  N_9 
REMARK    2  A    between atoms: N_9  and  N_10 
REMARK    3  A    between atoms: N_10  and  C_11 
REMARK    4  A    between atoms: C_11  and  N_12 
REMARK    5  A    between atoms: N_12  and  C_13 
REMARK    6  A    between atoms: N_15  and  C_16 
REMARK    7  A    between atoms: C_16  and  C_17 
REMARK    8  A    between atoms: C_29  and  C_30 
ROOT
HETATM    1  C   UNL     1      40.608 -11.318   5.851  1.00  0.00     0.290 C 
HETATM    2  N   UNL     1      41.068 -10.937   7.096  1.00  0.00    -0.262 N 
HETATM    3  O   UNL     1      39.910 -10.625   5.117  1.00  0.00    -0.264 OA
HETATM    4  H   UNL     1      41.748 -11.542   7.556  1.00  0.00     0.190 HD
ENDROOT
BRANCH   2   5
HETATM    5  N   UNL     1      40.957  -9.618   7.529  1.00  0.00    -0.273 N 
HETATM    6  H   UNL     1      40.330  -9.423   8.316  1.00  0.00     0.189 HD
BRANCH   5   7
HETATM    7  C   UNL     1      41.872  -8.661   7.172  1.00  0.00     0.192 C 
HETATM    8  S   UNL     1      41.514  -7.283   6.283  1.00  0.00    -0.039 SA
BRANCH   7   9
HETATM    9  N   UNL     1      43.168  -8.856   7.559  1.00  0.00    -0.315 N 
HETATM   10  H   UNL     1      43.866  -8.705   6.844  1.00  0.00     0.170 HD
BRANCH   9  11
HETATM   11  C   UNL     1      43.618  -9.334   8.773  1.00  0.00     0.151 A 
HETATM   12  N   UNL     1      42.821  -9.661   9.795  1.00  0.00    -0.154 NA
HETATM   13  N   UNL     1      43.665 -10.115  10.745  1.00  0.00    -0.275 N 
HETATM   14  C   UNL     1      44.975 -10.065  10.365  1.00  0.00     0.116 A 
HETATM   15  C   UNL     1      44.977  -9.554   9.088  1.00  0.00     0.071 A 
BRANCH  13  16
HETATM   16  C   UNL     1      43.148 -10.530  12.043  1.00  0.00     0.192 C 
BRANCH  16  17
HETATM   17  C   UNL     1      42.616  -9.363  12.825  1.00  0.00     0.000 A 
HETATM   18  C   UNL     1      41.338  -9.413  13.386  1.00  0.00     0.124 A 
HETATM   19  F   UNL     1      40.590 -10.515  13.235  1.00  0.00    -0.205 F 
HETATM   20  C   UNL     1      40.820  -8.342  14.107  1.00  0.00     0.043 A 
HETATM   21  C   UNL     1      41.585  -7.189  14.274  1.00  0.00     0.003 A 
HETATM   22  C   UNL     1      42.862  -7.115  13.714  1.00  0.00     0.001 A 
HETATM   23  C   UNL     1      43.374  -8.194  12.988  1.00  0.00     0.012 A 
ENDBRANCH  16  17
ENDBRANCH  13  16
ENDBRANCH   9  11
ENDBRANCH   7   9
ENDBRANCH   5   7
ENDBRANCH   2   5
BRANCH   1  24
HETATM   24  C   UNL     1      41.061 -12.672   5.491  1.00  0.00     0.150 A 
HETATM   25  N   UNL     1      42.075 -13.277   6.153  1.00  0.00    -0.165 NA
HETATM   26  N   UNL     1      42.174 -14.471   5.549  1.00  0.00    -0.240 N 
HETATM   27  C   UNL     1      41.351 -14.624   4.470  1.00  0.00     0.123 A 
HETATM   28  C   UNL     1      43.136 -15.468   5.978  1.00  0.00     0.221 C 
HETATM   29  N   UNL     1      41.429 -15.712   3.673  1.00  0.00    -0.371 N 
HETATM   30  C   UNL     1      40.569 -13.497   4.440  1.00  0.00     0.089 A 
HETATM   31  C   UNL     1      42.330 -16.822   3.977  1.00  0.00     0.081 C 
HETATM   32  H   UNL     1      40.709 -15.890   2.974  1.00  0.00     0.161 HD
HETATM   33  C   UNL     1      42.778 -17.474   2.671  1.00  0.00     0.032 C 
HETATM   34  C   UNL     1      43.552 -16.320   4.768  1.00  0.00     0.061 C 
BRANCH  28  35
HETATM   35  C   UNL     1      42.551 -16.294   7.101  1.00  0.00     0.409 C 
HETATM   36  F   UNL     1      42.917 -17.593   7.037  1.00  0.00    -0.169 F 
HETATM   37  F   UNL     1      42.876 -15.839   8.331  1.00  0.00    -0.169 F 
HETATM   38  F   UNL     1      41.194 -16.273   7.028  1.00  0.00    -0.169 F 
ENDBRANCH  28  35
ENDBRANCH   1  24
TORSDOF 8
ENDMDL
MODEL 10
REMARK VINA RESULT:      -8.5      7.221     11.109
REMARK  8 active torsions:
REMARK  status: ('A' for Active; 'I' for Inactive)
REMARK    1  A    between atoms: C_7  and  C_8 
REMARK       I    between atoms: C_8  and  N_9 
REMARK    2  A    between atoms: N_9  and  N_10 
REMARK    3  A    between atoms: N_10  and  C_11 
REMARK    4  A    between atoms: C_11  and  N_12 
REMARK    5  A    between atoms: N_12  and  C_13 
REMARK    6  A    between atoms: N_15  and  C_16 
REMARK    7  A    between atoms: C_16  and  C_17 
REMARK    8  A    between atoms: C_29  and  C_30 
ROOT
HETATM    1  C   UNL     1      39.657  -9.709   9.627  1.00  0.00     0.290 C 
HETATM    2  N   UNL     1      40.730  -9.671   8.760  1.00  0.00    -0.262 N 
HETATM    3  O   UNL     1      38.576 -10.240   9.388  1.00  0.00    -0.264 OA
HETATM    4  H   UNL     1      41.618  -9.319   9.119  1.00  0.00     0.190 HD
ENDROOT
BRANCH   2   5
HETATM    5  N   UNL     1      40.745 -10.446   7.603  1.00  0.00    -0.273 N 
HETATM    6  H   UNL     1      40.126 -11.263   7.567  1.00  0.00     0.189 HD
BRANCH   5   7
HETATM    7  C   UNL     1      41.284  -9.986   6.430  1.00  0.00     0.192 C 
HETATM    8  S   UNL     1      41.166  -8.403   5.882  1.00  0.00    -0.039 SA
BRANCH   7   9
HETATM    9  N   UNL     1      41.951 -10.887   5.649  1.00  0.00    -0.315 N 
HETATM   10  H   UNL     1      42.149 -10.586   4.705  1.00  0.00     0.170 HD
BRANCH   9  11
HETATM   11  C   UNL     1      42.286 -12.187   5.968  1.00  0.00     0.151 A 
HETATM   12  N   UNL     1      41.500 -13.244   5.740  1.00  0.00    -0.154 NA
HETATM   13  N   UNL     1      42.230 -14.299   6.159  1.00  0.00    -0.275 N 
HETATM   14  C   UNL     1      43.445 -13.942   6.667  1.00  0.00     0.116 A 
HETATM   15  C   UNL     1      43.508 -12.572   6.562  1.00  0.00     0.071 A 
BRANCH  13  16
HETATM   16  C   UNL     1      41.668 -15.643   6.104  1.00  0.00     0.192 C 
BRANCH  16  17
HETATM   17  C   UNL     1      42.164 -16.402   4.907  1.00  0.00     0.000 A 
HETATM   18  C   UNL     1      41.489 -16.315   3.687  1.00  0.00     0.124 A 
HETATM   19  F   UNL     1      40.402 -15.538   3.584  1.00  0.00    -0.205 F 
HETATM   20  C   UNL     1      41.923 -17.017   2.567  1.00  0.00     0.043 A 
HETATM   21  C   UNL     1      43.053 -17.829   2.657  1.00  0.00     0.003 A 
HETATM   22  C   UNL     1      43.736 -17.936   3.870  1.00  0.00     0.001 A 
HETATM   23  C   UNL     1      43.292 -17.232   4.992  1.00  0.00     0.012 A 
ENDBRANCH  16  17
ENDBRANCH  13  16
ENDBRANCH   9  11
ENDBRANCH   7   9
ENDBRANCH   5   7
ENDBRANCH   2   5
BRANCH   1  24
HETATM   24  C   UNL     1      39.958  -9.034  10.900  1.00  0.00     0.150 A 
HETATM   25  N   UNL     1      41.056  -9.351  11.626  1.00  0.00    -0.165 NA
HETATM   26  N   UNL     1      40.981  -8.527  12.682  1.00  0.00    -0.240 N 
HETATM   27  C   UNL     1      39.843  -7.774  12.728  1.00  0.00     0.123 A 
HETATM   28  C   UNL     1      41.999  -8.514  13.715  1.00  0.00     0.221 C 
HETATM   29  N   UNL     1      39.553  -7.000  13.796  1.00  0.00    -0.371 N 
HETATM   30  C   UNL     1      39.182  -8.033  11.553  1.00  0.00     0.089 A 
HETATM   31  C   UNL     1      40.484  -6.854  14.913  1.00  0.00     0.081 C 
HETATM   32  H   UNL     1      38.789  -6.326  13.750  1.00  0.00     0.161 HD
HETATM   33  C   UNL     1      39.691  -6.615  16.196  1.00  0.00     0.032 C 
HETATM   34  C   UNL     1      41.356  -8.116  15.053  1.00  0.00     0.061 C 
BRANCH  28  35
HETATM   35  C   UNL     1      43.126  -7.589  13.311  1.00  0.00     0.409 C 
HETATM   36  F   UNL     1      42.709  -6.574  12.523  1.00  0.00    -0.169 F 
HETATM   37  F   UNL     1      43.782  -7.048  14.360  1.00  0.00    -0.169 F 
HETATM   38  F   UNL     1      44.050  -8.278  12.591  1.00  0.00    -0.169 F 
ENDBRANCH  28  35
ENDBRANCH   1  24
TORSDOF 8
ENDMDL
