MODEL 1
REMARK VINA RESULT:      -9.2      0.000      0.000
REMARK  7 active torsions:
REMARK  status: ('A' for Active; 'I' for Inactive)
REMARK    1  A    between atoms: O_2  and  C_3 
REMARK    2  A    between atoms: C_5  and  C_6 
REMARK    3  A    between atoms: C_8  and  N_9 
REMARK    4  A    between atoms: N_12  and  C_14 
REMARK    5  A    between atoms: C_14  and  C_15 
REMARK       I    between atoms: C_15  and  N_16 
REMARK    6  A    between atoms: N_16  and  N_17 
REMARK       I    between atoms: N_17  and  C_18 
REMARK    7  A    between atoms: C_18  and  C_19 
ROOT
HETATM    1  N   UNL     1      41.140 -12.172   3.095  1.00  0.00    -0.357 N 
HETATM    2  C   UNL     1      42.265 -11.275   2.787  1.00  0.00     0.152 C 
HETATM    3  C   UNL     1      43.251 -11.204   3.977  1.00  0.00     0.255 C 
HETATM    4  N   UNL     1      42.492 -10.795   5.241  1.00  0.00    -0.060 N 
HETATM    5  H   UNL     1      42.013  -9.915   5.027  1.00  0.00     0.280 HD
HETATM    6  C   UNL     1      41.378 -11.811   5.542  1.00  0.00     0.255 C 
HETATM    7  C   UNL     1      40.411 -11.845   4.337  1.00  0.00     0.152 C 
ENDROOT
BRANCH   4   8
HETATM    8  C   UNL     1      43.387 -10.492   6.443  1.00  0.00     0.338 C 
BRANCH   8   9
HETATM    9  C   UNL     1      43.863 -11.691   7.265  1.00  0.00     0.262 C 
HETATM   10  N   UNL     1      43.858 -11.570   8.637  1.00  0.00    -0.266 N 
HETATM   11  H   UNL     1      44.046 -12.422   9.164  1.00  0.00     0.190 HD
HETATM   12  O   UNL     1      44.282 -12.722   6.740  1.00  0.00    -0.270 OA
BRANCH  10  13
HETATM   13  N   UNL     1      43.244 -10.504   9.322  1.00  0.00    -0.263 N 
HETATM   14  C   UNL     1      43.644 -10.260  10.631  1.00  0.00     0.270 C 
HETATM   15  O   UNL     1      44.269 -11.077  11.298  1.00  0.00    -0.266 OA
HETATM   16  H   UNL     1      42.973  -9.708   8.744  1.00  0.00     0.190 HD
BRANCH  14  17
HETATM   17  C   UNL     1      43.249  -8.949  11.207  1.00  0.00     0.033 A 
HETATM   18  C   UNL     1      43.147  -8.835  12.599  1.00  0.00     0.019 A 
HETATM   19  C   UNL     1      42.757  -7.623  13.175  1.00  0.00     0.025 A 
HETATM   20  C   UNL     1      42.454  -6.534  12.359  1.00  0.00     0.034 A 
HETATM   21 CL   UNL     1      41.961  -5.046  13.065  1.00  0.00    -0.084 Cl
HETATM   22  C   UNL     1      42.539  -6.646  10.971  1.00  0.00     0.025 A 
HETATM   23  C   UNL     1      42.937  -7.853  10.390  1.00  0.00     0.019 A 
ENDBRANCH  14  17
ENDBRANCH  10  13
ENDBRANCH   8   9
ENDBRANCH   4   8
BRANCH   1  24
HETATM   24  C   UNL     1      41.189 -13.500   2.755  1.00  0.00     0.169 A 
HETATM   25  N   UNL     1      42.016 -14.344   3.332  1.00  0.00    -0.223 NA
HETATM   26  C   UNL     1      41.831 -15.639   2.869  1.00  0.00     0.076 A 
HETATM   27  C   UNL     1      40.861 -15.764   1.897  1.00  0.00     0.085 A 
HETATM   28  S   UNL     1      40.166 -14.238   1.570  1.00  0.00    -0.062 SA
BRANCH  26  29
HETATM   29  C   UNL     1      42.594 -16.753   3.421  1.00  0.00    -0.004 A 
HETATM   30  C   UNL     1      42.739 -16.942   4.802  1.00  0.00     0.050 A 
HETATM   31  C   UNL     1      43.487 -18.011   5.312  1.00  0.00     0.069 A 
HETATM   32  C   UNL     1      44.098 -18.903   4.432  1.00  0.00     0.037 A 
HETATM   33  C   UNL     1      43.956 -18.731   3.054  1.00  0.00     0.004 A 
HETATM   34  C   UNL     1      43.207 -17.665   2.552  1.00  0.00     0.014 A 
BRANCH  31  35
HETATM   35  O   UNL     1      43.539 -18.066   6.678  1.00  0.00    -0.356 OA
HETATM   36  C   UNL     1      43.879 -16.862   7.358  1.00  0.00     0.210 C 
ENDBRANCH  31  35
ENDBRANCH  26  29
ENDBRANCH   1  24
TORSDOF 7
ENDMDL
MODEL 2
REMARK VINA RESULT:      -9.1      1.484      2.107
REMARK  7 active torsions:
REMARK  status: ('A' for Active; 'I' for Inactive)
REMARK    1  A    between atoms: O_2  and  C_3 
REMARK    2  A    between atoms: C_5  and  C_6 
REMARK    3  A    between atoms: C_8  and  N_9 
REMARK    4  A    between atoms: N_12  and  C_14 
REMARK    5  A    between atoms: C_14  and  C_15 
REMARK       I    between atoms: C_15  and  N_16 
REMARK    6  A    between atoms: N_16  and  N_17 
REMARK       I    between atoms: N_17  and  C_18 
REMARK    7  A    between atoms: C_18  and  C_19 
ROOT
HETATM    1  N   UNL     1      39.923 -12.435   4.103  1.00  0.00    -0.357 N 
HETATM    2  C   UNL     1      40.312 -11.069   3.719  1.00  0.00     0.152 C 
HETATM    3  C   UNL     1      41.519 -10.587   4.559  1.00  0.00     0.255 C 
HETATM    4  N   UNL     1      41.187 -10.716   6.046  1.00  0.00    -0.060 N 
HETATM    5  H   UNL     1      40.319 -10.193   6.202  1.00  0.00     0.280 HD
HETATM    6  C   UNL     1      40.856 -12.178   6.391  1.00  0.00     0.255 C 
HETATM    7  C   UNL     1      39.642 -12.617   5.542  1.00  0.00     0.152 C 
ENDROOT
BRANCH   4   8
HETATM    8  C   UNL     1      42.219 -10.084   6.980  1.00  0.00     0.338 C 
BRANCH   8   9
HETATM    9  C   UNL     1      43.414 -10.954   7.373  1.00  0.00     0.262 C 
HETATM   10  N   UNL     1      43.805 -10.946   8.694  1.00  0.00    -0.266 N 
HETATM   11  H   UNL     1      44.511 -11.634   8.957  1.00  0.00     0.190 HD
HETATM   12  O   UNL     1      44.047 -11.610   6.547  1.00  0.00    -0.270 OA
BRANCH  10  13
HETATM   13  N   UNL     1      43.046 -10.365   9.727  1.00  0.00    -0.263 N 
HETATM   14  C   UNL     1      43.509 -10.508  11.030  1.00  0.00     0.270 C 
HETATM   15  O   UNL     1      44.358 -11.335  11.347  1.00  0.00    -0.266 OA
HETATM   16  H   UNL     1      42.554  -9.506   9.481  1.00  0.00     0.190 HD
BRANCH  14  17
HETATM   17  C   UNL     1      42.899  -9.616  12.048  1.00  0.00     0.033 A 
HETATM   18  C   UNL     1      41.719 -10.030  12.679  1.00  0.00     0.019 A 
HETATM   19  C   UNL     1      41.106  -9.207  13.627  1.00  0.00     0.025 A 
HETATM   20  C   UNL     1      41.661  -7.964  13.929  1.00  0.00     0.034 A 
HETATM   21 CL   UNL     1      40.901  -6.944  15.083  1.00  0.00    -0.084 Cl
HETATM   22  C   UNL     1      42.828  -7.539  13.292  1.00  0.00     0.025 A 
HETATM   23  C   UNL     1      43.451  -8.363  12.350  1.00  0.00     0.019 A 
ENDBRANCH  14  17
ENDBRANCH  10  13
ENDBRANCH   8   9
ENDBRANCH   4   8
BRANCH   1  24
HETATM   24  C   UNL     1      40.440 -13.522   3.445  1.00  0.00     0.169 A 
HETATM   25  N   UNL     1      41.360 -14.294   3.979  1.00  0.00    -0.223 NA
HETATM   26  C   UNL     1      41.673 -15.364   3.152  1.00  0.00     0.076 A 
HETATM   27  C   UNL     1      40.990 -15.378   1.954  1.00  0.00     0.085 A 
HETATM   28  S   UNL     1      39.935 -14.036   1.871  1.00  0.00    -0.062 SA
BRANCH  26  29
HETATM   29  C   UNL     1      42.622 -16.389   3.572  1.00  0.00    -0.004 A 
HETATM   30  C   UNL     1      42.982 -17.456   2.737  1.00  0.00     0.050 A 
HETATM   31  C   UNL     1      43.884 -18.438   3.165  1.00  0.00     0.069 A 
HETATM   32  C   UNL     1      44.435 -18.354   4.442  1.00  0.00     0.037 A 
HETATM   33  C   UNL     1      44.092 -17.293   5.283  1.00  0.00     0.004 A 
HETATM   34  C   UNL     1      43.194 -16.317   4.849  1.00  0.00     0.014 A 
BRANCH  31  35
HETATM   35  O   UNL     1      44.138 -19.415   2.241  1.00  0.00    -0.356 OA
HETATM   36  C   UNL     1      43.126 -20.398   2.050  1.00  0.00     0.210 C 
ENDBRANCH  31  35
ENDBRANCH  26  29
ENDBRANCH   1  24
TORSDOF 7
ENDMDL
MODEL 3
REMARK VINA RESULT:      -9.1      4.096     10.090
REMARK  7 active torsions:
REMARK  status: ('A' for Active; 'I' for Inactive)
REMARK    1  A    between atoms: O_2  and  C_3 
REMARK    2  A    between atoms: C_5  and  C_6 
REMARK    3  A    between atoms: C_8  and  N_9 
REMARK    4  A    between atoms: N_12  and  C_14 
REMARK    5  A    between atoms: C_14  and  C_15 
REMARK       I    between atoms: C_15  and  N_16 
REMARK    6  A    between atoms: N_16  and  N_17 
REMARK       I    between atoms: N_17  and  C_18 
REMARK    7  A    between atoms: C_18  and  C_19 
ROOT
HETATM    1  N   UNL     1      43.026 -10.194   6.245  1.00  0.00    -0.357 N 
HETATM    2  C   UNL     1      41.649  -9.771   5.948  1.00  0.00     0.152 C 
HETATM    3  C   UNL     1      40.687 -10.983   5.969  1.00  0.00     0.255 C 
HETATM    4  N   UNL     1      41.201 -12.056   5.009  1.00  0.00    -0.060 N 
HETATM    5  H   UNL     1      41.306 -11.607   4.093  1.00  0.00     0.280 HD
HETATM    6  C   UNL     1      42.615 -12.500   5.417  1.00  0.00     0.255 C 
HETATM    7  C   UNL     1      43.545 -11.267   5.372  1.00  0.00     0.152 C 
ENDROOT
BRANCH   4   8
HETATM    8  C   UNL     1      40.233 -13.218   4.786  1.00  0.00     0.338 C 
BRANCH   8   9
HETATM    9  C   UNL     1      39.408 -13.188   3.498  1.00  0.00     0.262 C 
HETATM   10  N   UNL     1      39.512 -14.264   2.645  1.00  0.00    -0.266 N 
HETATM   11  H   UNL     1      38.854 -14.286   1.866  1.00  0.00     0.190 HD
HETATM   12  O   UNL     1      38.703 -12.227   3.193  1.00  0.00    -0.270 OA
BRANCH  10  13
HETATM   13  N   UNL     1      40.154 -15.470   2.987  1.00  0.00    -0.263 N 
HETATM   14  C   UNL     1      41.338 -15.782   2.329  1.00  0.00     0.270 C 
HETATM   15  O   UNL     1      41.689 -15.227   1.292  1.00  0.00    -0.266 OA
HETATM   16  H   UNL     1      40.051 -15.762   3.959  1.00  0.00     0.190 HD
BRANCH  14  17
HETATM   17  C   UNL     1      42.164 -16.857   2.933  1.00  0.00     0.033 A 
HETATM   18  C   UNL     1      42.485 -16.768   4.294  1.00  0.00     0.019 A 
HETATM   19  C   UNL     1      43.278 -17.751   4.892  1.00  0.00     0.025 A 
HETATM   20  C   UNL     1      43.763 -18.810   4.127  1.00  0.00     0.034 A 
HETATM   21 CL   UNL     1      44.750 -20.013   4.857  1.00  0.00    -0.084 Cl
HETATM   22  C   UNL     1      43.460 -18.897   2.768  1.00  0.00     0.025 A 
HETATM   23  C   UNL     1      42.659 -17.921   2.167  1.00  0.00     0.019 A 
ENDBRANCH  14  17
ENDBRANCH  10  13
ENDBRANCH   8   9
ENDBRANCH   4   8
BRANCH   1  24
HETATM   24  C   UNL     1      43.503 -10.177   7.531  1.00  0.00     0.169 A 
HETATM   25  N   UNL     1      42.841  -9.616   8.519  1.00  0.00    -0.223 NA
HETATM   26  C   UNL     1      43.491  -9.786   9.733  1.00  0.00     0.076 A 
HETATM   27  C   UNL     1      44.687 -10.468   9.648  1.00  0.00     0.085 A 
HETATM   28  S   UNL     1      44.991 -10.909   8.025  1.00  0.00    -0.062 SA
BRANCH  26  29
HETATM   29  C   UNL     1      42.903  -9.304  10.978  1.00  0.00    -0.004 A 
HETATM   30  C   UNL     1      41.567  -9.558  11.316  1.00  0.00     0.050 A 
HETATM   31  C   UNL     1      41.018  -9.074  12.510  1.00  0.00     0.069 A 
HETATM   32  C   UNL     1      41.812  -8.327  13.378  1.00  0.00     0.037 A 
HETATM   33  C   UNL     1      43.147  -8.072  13.058  1.00  0.00     0.004 A 
HETATM   34  C   UNL     1      43.689  -8.560  11.867  1.00  0.00     0.014 A 
BRANCH  31  35
HETATM   35  O   UNL     1      39.704  -9.401  12.703  1.00  0.00    -0.356 OA
HETATM   36  C   UNL     1      39.388 -10.788  12.769  1.00  0.00     0.210 C 
ENDBRANCH  31  35
ENDBRANCH  26  29
ENDBRANCH   1  24
TORSDOF 7
ENDMDL
MODEL 4
REMARK VINA RESULT:      -8.7      3.902      9.921
REMARK  7 active torsions:
REMARK  status: ('A' for Active; 'I' for Inactive)
REMARK    1  A    between atoms: O_2  and  C_3 
REMARK    2  A    between atoms: C_5  and  C_6 
REMARK    3  A    between atoms: C_8  and  N_9 
REMARK    4  A    between atoms: N_12  and  C_14 
REMARK    5  A    between atoms: C_14  and  C_15 
REMARK       I    between atoms: C_15  and  N_16 
REMARK    6  A    between atoms: N_16  and  N_17 
REMARK       I    between atoms: N_17  and  C_18 
REMARK    7  A    between atoms: C_18  and  C_19 
ROOT
HETATM    1  N   UNL     1      43.119 -11.600   5.318  1.00  0.00    -0.357 N 
HETATM    2  C   UNL     1      43.361 -11.379   3.883  1.00  0.00     0.152 C 
HETATM    3  C   UNL     1      42.084 -11.675   3.061  1.00  0.00     0.255 C 
HETATM    4  N   UNL     1      41.596 -13.090   3.372  1.00  0.00    -0.060 N 
HETATM    5  H   UNL     1      42.382 -13.722   3.186  1.00  0.00     0.280 HD
HETATM    6  C   UNL     1      41.298 -13.230   4.873  1.00  0.00     0.255 C 
HETATM    7  C   UNL     1      42.597 -12.939   5.658  1.00  0.00     0.152 C 
ENDROOT
BRANCH   4   8
HETATM    8  C   UNL     1      40.460 -13.577   2.472  1.00  0.00     0.338 C 
BRANCH   8   9
HETATM    9  C   UNL     1      40.668 -13.433   0.963  1.00  0.00     0.262 C 
HETATM   10  N   UNL     1      41.456 -14.370   0.333  1.00  0.00    -0.266 N 
HETATM   11  H   UNL     1      41.467 -14.334  -0.687  1.00  0.00     0.190 HD
HETATM   12  O   UNL     1      40.194 -12.495   0.323  1.00  0.00    -0.270 OA
BRANCH  10  13
HETATM   13  N   UNL     1      41.894 -15.558   0.947  1.00  0.00    -0.263 N 
HETATM   14  C   UNL     1      43.040 -15.497   1.731  1.00  0.00     0.270 C 
HETATM   15  O   UNL     1      43.830 -14.559   1.683  1.00  0.00    -0.266 OA
HETATM   16  H   UNL     1      41.158 -16.211   1.217  1.00  0.00     0.190 HD
BRANCH  14  17
HETATM   17  C   UNL     1      43.286 -16.653   2.630  1.00  0.00     0.033 A 
HETATM   18  C   UNL     1      43.495 -16.406   3.993  1.00  0.00     0.019 A 
HETATM   19  C   UNL     1      43.750 -17.468   4.865  1.00  0.00     0.025 A 
HETATM   20  C   UNL     1      43.813 -18.770   4.372  1.00  0.00     0.034 A 
HETATM   21 CL   UNL     1      44.140 -20.076   5.440  1.00  0.00    -0.084 Cl
HETATM   22  C   UNL     1      43.620 -19.021   3.013  1.00  0.00     0.025 A 
HETATM   23  C   UNL     1      43.356 -17.964   2.138  1.00  0.00     0.019 A 
ENDBRANCH  14  17
ENDBRANCH  10  13
ENDBRANCH   8   9
ENDBRANCH   4   8
BRANCH   1  24
HETATM   24  C   UNL     1      42.713 -10.569   6.126  1.00  0.00     0.169 A 
HETATM   25  N   UNL     1      43.040 -10.501   7.398  1.00  0.00    -0.223 NA
HETATM   26  C   UNL     1      42.570  -9.336   7.986  1.00  0.00     0.076 A 
HETATM   27  C   UNL     1      41.846  -8.521   7.140  1.00  0.00     0.085 A 
HETATM   28  S   UNL     1      41.766  -9.225   5.584  1.00  0.00    -0.062 SA
BRANCH  26  29
HETATM   29  C   UNL     1      42.873  -9.017   9.377  1.00  0.00    -0.004 A 
HETATM   30  C   UNL     1      42.534  -7.782   9.948  1.00  0.00     0.050 A 
HETATM   31  C   UNL     1      42.847  -7.492  11.282  1.00  0.00     0.069 A 
HETATM   32  C   UNL     1      43.506  -8.444  12.056  1.00  0.00     0.037 A 
HETATM   33  C   UNL     1      43.843  -9.682  11.503  1.00  0.00     0.004 A 
HETATM   34  C   UNL     1      43.526  -9.966  10.174  1.00  0.00     0.014 A 
BRANCH  31  35
HETATM   35  O   UNL     1      42.455  -6.248  11.697  1.00  0.00    -0.356 OA
HETATM   36  C   UNL     1      42.048  -6.122  13.055  1.00  0.00     0.210 C 
ENDBRANCH  31  35
ENDBRANCH  26  29
ENDBRANCH   1  24
TORSDOF 7
ENDMDL
MODEL 5
REMARK VINA RESULT:      -8.7      4.689      8.775
REMARK  7 active torsions:
REMARK  status: ('A' for Active; 'I' for Inactive)
REMARK    1  A    between atoms: O_2  and  C_3 
REMARK    2  A    between atoms: C_5  and  C_6 
REMARK    3  A    between atoms: C_8  and  N_9 
REMARK    4  A    between atoms: N_12  and  C_14 
REMARK    5  A    between atoms: C_14  and  C_15 
REMARK       I    between atoms: C_15  and  N_16 
REMARK    6  A    between atoms: N_16  and  N_17 
REMARK       I    between atoms: N_17  and  C_18 
REMARK    7  A    between atoms: C_18  and  C_19 
ROOT
HETATM    1  N   UNL     1      40.309  -9.174   1.477  1.00  0.00    -0.357 N 
HETATM    2  C   UNL     1      39.011  -9.775   1.132  1.00  0.00     0.152 C 
HETATM    3  C   UNL     1      39.197 -11.229   0.633  1.00  0.00     0.255 C 
HETATM    4  N   UNL     1      40.188 -11.243  -0.531  1.00  0.00    -0.060 N 
HETATM    5  H   UNL     1      39.828 -10.590  -1.235  1.00  0.00     0.280 HD
HETATM    6  C   UNL     1      41.541 -10.665  -0.083  1.00  0.00     0.255 C 
HETATM    7  C   UNL     1      41.315  -9.213   0.396  1.00  0.00     0.152 C 
ENDROOT
BRANCH   4   8
HETATM    8  C   UNL     1      40.303 -12.591  -1.244  1.00  0.00     0.338 C 
BRANCH   8   9
HETATM    9  C   UNL     1      39.076 -13.503  -1.191  1.00  0.00     0.262 C 
HETATM   10  N   UNL     1      39.201 -14.708  -0.535  1.00  0.00    -0.266 N 
HETATM   11  H   UNL     1      38.339 -15.234  -0.394  1.00  0.00     0.190 HD
HETATM   12  O   UNL     1      38.017 -13.211  -1.745  1.00  0.00    -0.270 OA
BRANCH  10  13
HETATM   13  N   UNL     1      40.309 -15.048   0.264  1.00  0.00    -0.263 N 
HETATM   14  C   UNL     1      40.149 -15.004   1.644  1.00  0.00     0.270 C 
HETATM   15  O   UNL     1      39.215 -14.423   2.187  1.00  0.00    -0.266 OA
HETATM   16  H   UNL     1      40.934 -15.753  -0.128  1.00  0.00     0.190 HD
BRANCH  14  17
HETATM   17  C   UNL     1      41.195 -15.684   2.450  1.00  0.00     0.033 A 
HETATM   18  C   UNL     1      42.413 -15.998   1.835  1.00  0.00     0.019 A 
HETATM   19  C   UNL     1      43.412 -16.657   2.557  1.00  0.00     0.025 A 
HETATM   20  C   UNL     1      43.186 -17.016   3.885  1.00  0.00     0.034 A 
HETATM   21 CL   UNL     1      44.408 -17.838   4.770  1.00  0.00    -0.084 Cl
HETATM   22  C   UNL     1      41.968 -16.719   4.498  1.00  0.00     0.025 A 
HETATM   23  C   UNL     1      40.969 -16.053   3.784  1.00  0.00     0.019 A 
ENDBRANCH  14  17
ENDBRANCH  10  13
ENDBRANCH   8   9
ENDBRANCH   4   8
BRANCH   1  24
HETATM   24  C   UNL     1      40.794  -9.241   2.758  1.00  0.00     0.169 A 
HETATM   25  N   UNL     1      41.373 -10.320   3.235  1.00  0.00    -0.223 NA
HETATM   26  C   UNL     1      41.840 -10.122   4.527  1.00  0.00     0.076 A 
HETATM   27  C   UNL     1      41.577  -8.871   5.043  1.00  0.00     0.085 A 
HETATM   28  S   UNL     1      40.744  -7.928   3.885  1.00  0.00    -0.062 SA
BRANCH  26  29
HETATM   29  C   UNL     1      42.578 -11.165   5.230  1.00  0.00    -0.004 A 
HETATM   30  C   UNL     1      43.381 -10.885   6.345  1.00  0.00     0.050 A 
HETATM   31  C   UNL     1      44.093 -11.899   6.997  1.00  0.00     0.069 A 
HETATM   32  C   UNL     1      44.003 -13.210   6.533  1.00  0.00     0.037 A 
HETATM   33  C   UNL     1      43.201 -13.505   5.428  1.00  0.00     0.004 A 
HETATM   34  C   UNL     1      42.492 -12.490   4.783  1.00  0.00     0.014 A 
BRANCH  31  35
HETATM   35  O   UNL     1      44.832 -11.474   8.067  1.00  0.00    -0.356 OA
HETATM   36  C   UNL     1      46.007 -10.724   7.780  1.00  0.00     0.210 C 
ENDBRANCH  31  35
ENDBRANCH  26  29
ENDBRANCH   1  24
TORSDOF 7
ENDMDL
MODEL 6
REMARK VINA RESULT:      -8.6      3.031      4.745
REMARK  7 active torsions:
REMARK  status: ('A' for Active; 'I' for Inactive)
REMARK    1  A    between atoms: O_2  and  C_3 
REMARK    2  A    between atoms: C_5  and  C_6 
REMARK    3  A    between atoms: C_8  and  N_9 
REMARK    4  A    between atoms: N_12  and  C_14 
REMARK    5  A    between atoms: C_14  and  C_15 
REMARK       I    between atoms: C_15  and  N_16 
REMARK    6  A    between atoms: N_16  and  N_17 
REMARK       I    between atoms: N_17  and  C_18 
REMARK    7  A    between atoms: C_18  and  C_19 
ROOT
HETATM    1  N   UNL     1      40.463 -14.020   5.133  1.00  0.00    -0.357 N 
HETATM    2  C   UNL     1      39.857 -12.719   5.457  1.00  0.00     0.152 C 
HETATM    3  C   UNL     1      40.933 -11.607   5.495  1.00  0.00     0.255 C 
HETATM    4  N   UNL     1      42.041 -12.006   6.470  1.00  0.00    -0.060 N 
HETATM    5  H   UNL     1      41.588 -12.197   7.370  1.00  0.00     0.280 HD
HETATM    6  C   UNL     1      42.676 -13.337   6.035  1.00  0.00     0.255 C 
HETATM    7  C   UNL     1      41.575 -14.421   6.020  1.00  0.00     0.152 C 
ENDROOT
BRANCH   4   8
HETATM    8  C   UNL     1      43.060 -10.902   6.751  1.00  0.00     0.338 C 
BRANCH   8   9
HETATM    9  C   UNL     1      44.345 -11.320   7.469  1.00  0.00     0.262 C 
HETATM   10  N   UNL     1      44.504 -10.925   8.779  1.00  0.00    -0.266 N 
HETATM   11  H   UNL     1      45.298 -11.328   9.277  1.00  0.00     0.190 HD
HETATM   12  O   UNL     1      45.238 -11.948   6.903  1.00  0.00    -0.270 OA
BRANCH  10  13
HETATM   13  N   UNL     1      43.474 -10.356   9.552  1.00  0.00    -0.263 N 
HETATM   14  C   UNL     1      43.546 -10.497  10.932  1.00  0.00     0.270 C 
HETATM   15  O   UNL     1      44.280 -11.314  11.480  1.00  0.00    -0.266 OA
HETATM   16  H   UNL     1      43.063  -9.502   9.174  1.00  0.00     0.190 HD
BRANCH  14  17
HETATM   17  C   UNL     1      42.660  -9.614  11.732  1.00  0.00     0.033 A 
HETATM   18  C   UNL     1      43.247  -8.621  12.527  1.00  0.00     0.019 A 
HETATM   19  C   UNL     1      42.444  -7.786  13.308  1.00  0.00     0.025 A 
HETATM   20  C   UNL     1      41.061  -7.956  13.309  1.00  0.00     0.034 A 
HETATM   21 CL   UNL     1      40.073  -6.939  14.281  1.00  0.00    -0.084 Cl
HETATM   22  C   UNL     1      40.472  -8.953  12.532  1.00  0.00     0.025 A 
HETATM   23  C   UNL     1      41.268  -9.786  11.741  1.00  0.00     0.019 A 
ENDBRANCH  14  17
ENDBRANCH  10  13
ENDBRANCH   8   9
ENDBRANCH   4   8
BRANCH   1  24
HETATM   24  C   UNL     1      40.539 -14.454   3.834  1.00  0.00     0.169 A 
HETATM   25  N   UNL     1      40.416 -13.637   2.811  1.00  0.00    -0.223 NA
HETATM   26  C   UNL     1      40.597 -14.298   1.605  1.00  0.00     0.076 A 
HETATM   27  C   UNL     1      40.834 -15.651   1.725  1.00  0.00     0.085 A 
HETATM   28  S   UNL     1      40.839 -16.096   3.375  1.00  0.00    -0.062 SA
BRANCH  26  29
HETATM   29  C   UNL     1      40.571 -13.575   0.338  1.00  0.00    -0.004 A 
HETATM   30  C   UNL     1      40.158 -14.182  -0.856  1.00  0.00     0.050 A 
HETATM   31  C   UNL     1      40.154 -13.473  -2.065  1.00  0.00     0.069 A 
HETATM   32  C   UNL     1      40.568 -12.143  -2.082  1.00  0.00     0.037 A 
HETATM   33  C   UNL     1      40.975 -11.523  -0.899  1.00  0.00     0.004 A 
HETATM   34  C   UNL     1      40.974 -12.234   0.302  1.00  0.00     0.014 A 
BRANCH  31  35
HETATM   35  O   UNL     1      39.726 -14.197  -3.144  1.00  0.00    -0.356 OA
HETATM   36  C   UNL     1      38.557 -14.990  -2.966  1.00  0.00     0.210 C 
ENDBRANCH  31  35
ENDBRANCH  26  29
ENDBRANCH   1  24
TORSDOF 7
ENDMDL
MODEL 7
REMARK VINA RESULT:      -8.6      4.922      8.389
REMARK  7 active torsions:
REMARK  status: ('A' for Active; 'I' for Inactive)
REMARK    1  A    between atoms: O_2  and  C_3 
REMARK    2  A    between atoms: C_5  and  C_6 
REMARK    3  A    between atoms: C_8  and  N_9 
REMARK    4  A    between atoms: N_12  and  C_14 
REMARK    5  A    between atoms: C_14  and  C_15 
REMARK       I    between atoms: C_15  and  N_16 
REMARK    6  A    between atoms: N_16  and  N_17 
REMARK       I    between atoms: N_17  and  C_18 
REMARK    7  A    between atoms: C_18  and  C_19 
ROOT
HETATM    1  N   UNL     1      41.008 -11.663   2.624  1.00  0.00    -0.357 N 
HETATM    2  C   UNL     1      42.200 -10.811   2.487  1.00  0.00     0.152 C 
HETATM    3  C   UNL     1      43.386 -11.397   3.290  1.00  0.00     0.255 C 
HETATM    4  N   UNL     1      42.963 -11.600   4.746  1.00  0.00    -0.060 N 
HETATM    5  H   UNL     1      42.620 -10.695   5.083  1.00  0.00     0.280 HD
HETATM    6  C   UNL     1      41.758 -12.552   4.819  1.00  0.00     0.255 C 
HETATM    7  C   UNL     1      40.594 -11.929   4.017  1.00  0.00     0.152 C 
ENDROOT
BRANCH   4   8
HETATM    8  C   UNL     1      44.106 -11.982   5.687  1.00  0.00     0.338 C 
BRANCH   8   9
HETATM    9  C   UNL     1      43.733 -12.256   7.145  1.00  0.00     0.262 C 
HETATM   10  N   UNL     1      43.554 -13.568   7.525  1.00  0.00    -0.266 N 
HETATM   11  H   UNL     1      43.442 -13.734   8.525  1.00  0.00     0.190 HD
HETATM   12  O   UNL     1      43.549 -11.349   7.956  1.00  0.00    -0.270 OA
BRANCH  10  13
HETATM   13  N   UNL     1      43.903 -14.667   6.717  1.00  0.00    -0.263 N 
HETATM   14  C   UNL     1      43.026 -15.744   6.674  1.00  0.00     0.270 C 
HETATM   15  O   UNL     1      42.135 -15.909   7.502  1.00  0.00    -0.266 OA
HETATM   16  H   UNL     1      44.433 -14.442   5.875  1.00  0.00     0.190 HD
BRANCH  14  17
HETATM   17  C   UNL     1      43.234 -16.720   5.575  1.00  0.00     0.033 A 
HETATM   18  C   UNL     1      43.784 -17.970   5.888  1.00  0.00     0.019 A 
HETATM   19  C   UNL     1      44.014 -18.906   4.877  1.00  0.00     0.025 A 
HETATM   20  C   UNL     1      43.711 -18.586   3.554  1.00  0.00     0.034 A 
HETATM   21 CL   UNL     1      44.006 -19.731   2.307  1.00  0.00    -0.084 Cl
HETATM   22  C   UNL     1      43.178 -17.338   3.234  1.00  0.00     0.025 A 
HETATM   23  C   UNL     1      42.937 -16.401   4.243  1.00  0.00     0.019 A 
ENDBRANCH  14  17
ENDBRANCH  10  13
ENDBRANCH   8   9
ENDBRANCH   4   8
BRANCH   1  24
HETATM   24  C   UNL     1      40.751 -12.659   1.716  1.00  0.00     0.169 A 
HETATM   25  N   UNL     1      39.877 -12.516   0.744  1.00  0.00    -0.223 NA
HETATM   26  C   UNL     1      39.843 -13.631  -0.081  1.00  0.00     0.076 A 
HETATM   27  C   UNL     1      40.693 -14.648   0.299  1.00  0.00     0.085 A 
HETATM   28  S   UNL     1      41.553 -14.193   1.704  1.00  0.00    -0.062 SA
BRANCH  26  29
HETATM   29  C   UNL     1      38.993 -13.667  -1.267  1.00  0.00    -0.004 A 
HETATM   30  C   UNL     1      38.144 -12.604  -1.604  1.00  0.00     0.050 A 
HETATM   31  C   UNL     1      37.325 -12.664  -2.739  1.00  0.00     0.069 A 
HETATM   32  C   UNL     1      37.355 -13.798  -3.548  1.00  0.00     0.037 A 
HETATM   33  C   UNL     1      38.202 -14.861  -3.229  1.00  0.00     0.004 A 
HETATM   34  C   UNL     1      39.017 -14.794  -2.097  1.00  0.00     0.014 A 
BRANCH  31  35
HETATM   35  O   UNL     1      36.551 -11.553  -2.938  1.00  0.00    -0.356 OA
HETATM   36  C   UNL     1      36.555 -10.572  -1.907  1.00  0.00     0.210 C 
ENDBRANCH  31  35
ENDBRANCH  26  29
ENDBRANCH   1  24
TORSDOF 7
ENDMDL
MODEL 8
REMARK VINA RESULT:      -8.6      5.387      9.563
REMARK  7 active torsions:
REMARK  status: ('A' for Active; 'I' for Inactive)
REMARK    1  A    between atoms: O_2  and  C_3 
REMARK    2  A    between atoms: C_5  and  C_6 
REMARK    3  A    between atoms: C_8  and  N_9 
REMARK    4  A    between atoms: N_12  and  C_14 
REMARK    5  A    between atoms: C_14  and  C_15 
REMARK       I    between atoms: C_15  and  N_16 
REMARK    6  A    between atoms: N_16  and  N_17 
REMARK       I    between atoms: N_17  and  C_18 
REMARK    7  A    between atoms: C_18  and  C_19 
ROOT
HETATM    1  N   UNL     1      39.829 -13.495   0.975  1.00  0.00    -0.357 N 
HETATM    2  C   UNL     1      39.493 -12.718   2.178  1.00  0.00     0.152 C 
HETATM    3  C   UNL     1      40.771 -12.133   2.826  1.00  0.00     0.255 C 
HETATM    4  N   UNL     1      41.762 -13.263   3.106  1.00  0.00    -0.060 N 
HETATM    5  H   UNL     1      41.268 -13.955   3.678  1.00  0.00     0.280 HD
HETATM    6  C   UNL     1      42.121 -13.988   1.798  1.00  0.00     0.255 C 
HETATM    7  C   UNL     1      40.825 -14.566   1.188  1.00  0.00     0.152 C 
ENDROOT
BRANCH   4   8
HETATM    8  C   UNL     1      42.980 -12.844   3.930  1.00  0.00     0.338 C 
BRANCH   8   9
HETATM    9  C   UNL     1      42.785 -12.752   5.445  1.00  0.00     0.262 C 
HETATM   10  N   UNL     1      42.877 -13.917   6.175  1.00  0.00    -0.266 N 
HETATM   11  H   UNL     1      42.881 -13.812   7.189  1.00  0.00     0.190 HD
HETATM   12  O   UNL     1      42.510 -11.693   6.007  1.00  0.00    -0.270 OA
BRANCH  10  13
HETATM   13  N   UNL     1      43.350 -15.132   5.645  1.00  0.00    -0.263 N 
HETATM   14  C   UNL     1      42.411 -16.098   5.301  1.00  0.00     0.270 C 
HETATM   15  O   UNL     1      41.249 -16.064   5.693  1.00  0.00    -0.266 OA
HETATM   16  H   UNL     1      44.201 -15.067   5.086  1.00  0.00     0.190 HD
BRANCH  14  17
HETATM   17  C   UNL     1      42.892 -17.208   4.441  1.00  0.00     0.033 A 
HETATM   18  C   UNL     1      42.421 -17.286   3.124  1.00  0.00     0.019 A 
HETATM   19  C   UNL     1      42.837 -18.329   2.293  1.00  0.00     0.025 A 
HETATM   20  C   UNL     1      43.706 -19.302   2.784  1.00  0.00     0.034 A 
HETATM   21 CL   UNL     1      44.207 -20.595   1.767  1.00  0.00    -0.084 Cl
HETATM   22  C   UNL     1      44.166 -19.240   4.099  1.00  0.00     0.025 A 
HETATM   23  C   UNL     1      43.761 -18.193   4.932  1.00  0.00     0.019 A 
ENDBRANCH  14  17
ENDBRANCH  10  13
ENDBRANCH   8   9
ENDBRANCH   4   8
BRANCH   1  24
HETATM   24  C   UNL     1      39.834 -12.903  -0.263  1.00  0.00     0.169 A 
HETATM   25  N   UNL     1      40.422 -11.749  -0.489  1.00  0.00    -0.223 NA
HETATM   26  C   UNL     1      40.350 -11.392  -1.828  1.00  0.00     0.076 A 
HETATM   27  C   UNL     1      39.665 -12.287  -2.621  1.00  0.00     0.085 A 
HETATM   28  S   UNL     1      39.114 -13.600  -1.675  1.00  0.00    -0.062 SA
BRANCH  26  29
HETATM   29  C   UNL     1      40.995 -10.179  -2.320  1.00  0.00    -0.004 A 
HETATM   30  C   UNL     1      41.920  -9.463  -1.548  1.00  0.00     0.050 A 
HETATM   31  C   UNL     1      42.518  -8.294  -2.034  1.00  0.00     0.069 A 
HETATM   32  C   UNL     1      42.189  -7.833  -3.307  1.00  0.00     0.037 A 
HETATM   33  C   UNL     1      41.275  -8.540  -4.091  1.00  0.00     0.004 A 
HETATM   34  C   UNL     1      40.684  -9.706  -3.601  1.00  0.00     0.014 A 
BRANCH  31  35
HETATM   35  O   UNL     1      43.398  -7.705  -1.168  1.00  0.00    -0.356 OA
HETATM   36  C   UNL     1      43.481  -6.284  -1.201  1.00  0.00     0.210 C 
ENDBRANCH  31  35
ENDBRANCH  26  29
ENDBRANCH   1  24
TORSDOF 7
ENDMDL
MODEL 9
REMARK VINA RESULT:      -8.5     18.824     20.519
REMARK  7 active torsions:
REMARK  status: ('A' for Active; 'I' for Inactive)
REMARK    1  A    between atoms: O_2  and  C_3 
REMARK    2  A    between atoms: C_5  and  C_6 
REMARK    3  A    between atoms: C_8  and  N_9 
REMARK    4  A    between atoms: N_12  and  C_14 
REMARK    5  A    between atoms: C_14  and  C_15 
REMARK       I    between atoms: C_15  and  N_16 
REMARK    6  A    between atoms: N_16  and  N_17 
REMARK       I    between atoms: N_17  and  C_18 
REMARK    7  A    between atoms: C_18  and  C_19 
ROOT
HETATM    1  N   UNL     1      43.487 -30.836   1.079  1.00  0.00    -0.357 N 
HETATM    2  C   UNL     1      43.303 -31.841   0.020  1.00  0.00     0.152 C 
HETATM    3  C   UNL     1      44.359 -31.658  -1.097  1.00  0.00     0.255 C 
HETATM    4  N   UNL     1      44.300 -30.223  -1.622  1.00  0.00    -0.060 N 
HETATM    5  H   UNL     1      43.332 -30.054  -1.914  1.00  0.00     0.280 HD
HETATM    6  C   UNL     1      44.568 -29.230  -0.479  1.00  0.00     0.255 C 
HETATM    7  C   UNL     1      43.489 -29.435   0.608  1.00  0.00     0.152 C 
ENDROOT
BRANCH   4   8
HETATM    8  C   UNL     1      45.153 -29.972  -2.866  1.00  0.00     0.338 C 
BRANCH   8   9
HETATM    9  C   UNL     1      45.610 -28.532  -3.106  1.00  0.00     0.262 C 
HETATM   10  N   UNL     1      46.837 -28.157  -2.603  1.00  0.00    -0.266 N 
HETATM   11  H   UNL     1      47.179 -27.241  -2.892  1.00  0.00     0.190 HD
HETATM   12  O   UNL     1      44.904 -27.708  -3.686  1.00  0.00    -0.270 OA
BRANCH  10  13
HETATM   13  N   UNL     1      47.775 -29.067  -2.080  1.00  0.00    -0.263 N 
HETATM   14  C   UNL     1      48.171 -28.900  -0.758  1.00  0.00     0.270 C 
HETATM   15  O   UNL     1      47.977 -27.864  -0.131  1.00  0.00    -0.266 OA
HETATM   16  H   UNL     1      47.721 -30.015  -2.452  1.00  0.00     0.190 HD
BRANCH  14  17
HETATM   17  C   UNL     1      48.879 -30.047  -0.133  1.00  0.00     0.033 A 
HETATM   18  C   UNL     1      48.162 -31.228   0.097  1.00  0.00     0.019 A 
HETATM   19  C   UNL     1      48.789 -32.320   0.703  1.00  0.00     0.025 A 
HETATM   20  C   UNL     1      50.124 -32.224   1.093  1.00  0.00     0.034 A 
HETATM   21 CL   UNL     1      50.894 -33.560   1.851  1.00  0.00    -0.084 Cl
HETATM   22  C   UNL     1      50.839 -31.045   0.880  1.00  0.00     0.025 A 
HETATM   23  C   UNL     1      50.219 -29.952   0.266  1.00  0.00     0.019 A 
ENDBRANCH  14  17
ENDBRANCH  10  13
ENDBRANCH   8   9
ENDBRANCH   4   8
BRANCH   1  24
HETATM   24  C   UNL     1      44.266 -31.107   2.174  1.00  0.00     0.169 A 
HETATM   25  N   UNL     1      45.537 -30.775   2.234  1.00  0.00    -0.223 NA
HETATM   26  C   UNL     1      46.092 -31.092   3.466  1.00  0.00     0.076 A 
HETATM   27  C   UNL     1      45.222 -31.704   4.343  1.00  0.00     0.085 A 
HETATM   28  S   UNL     1      43.685 -31.874   3.613  1.00  0.00    -0.062 SA
BRANCH  26  29
HETATM   29  C   UNL     1      47.475 -30.750   3.780  1.00  0.00    -0.004 A 
HETATM   30  C   UNL     1      48.343 -31.661   4.397  1.00  0.00     0.050 A 
HETATM   31  C   UNL     1      49.664 -31.308   4.703  1.00  0.00     0.069 A 
HETATM   32  C   UNL     1      50.124 -30.031   4.389  1.00  0.00     0.037 A 
HETATM   33  C   UNL     1      49.273 -29.116   3.767  1.00  0.00     0.004 A 
HETATM   34  C   UNL     1      47.958 -29.474   3.462  1.00  0.00     0.014 A 
BRANCH  31  35
HETATM   35  O   UNL     1      50.390 -32.300   5.305  1.00  0.00    -0.356 OA
HETATM   36  C   UNL     1      51.773 -32.043   5.524  1.00  0.00     0.210 C 
ENDBRANCH  31  35
ENDBRANCH  26  29
ENDBRANCH   1  24
TORSDOF 7
ENDMDL
MODEL 10
REMARK VINA RESULT:      -8.5      4.777      8.640
REMARK  7 active torsions:
REMARK  status: ('A' for Active; 'I' for Inactive)
REMARK    1  A    between atoms: O_2  and  C_3 
REMARK    2  A    between atoms: C_5  and  C_6 
REMARK    3  A    between atoms: C_8  and  N_9 
REMARK    4  A    between atoms: N_12  and  C_14 
REMARK    5  A    between atoms: C_14  and  C_15 
REMARK       I    between atoms: C_15  and  N_16 
REMARK    6  A    between atoms: N_16  and  N_17 
REMARK       I    between atoms: N_17  and  C_18 
REMARK    7  A    between atoms: C_18  and  C_19 
ROOT
HETATM    1  N   UNL     1      38.702 -10.033   2.813  1.00  0.00    -0.357 N 
HETATM    2  C   UNL     1      38.040 -10.921   1.844  1.00  0.00     0.152 C 
HETATM    3  C   UNL     1      39.083 -11.615   0.936  1.00  0.00     0.255 C 
HETATM    4  N   UNL     1      39.961 -10.555   0.269  1.00  0.00    -0.060 N 
HETATM    5  H   UNL     1      39.330  -9.911  -0.217  1.00  0.00     0.280 HD
HETATM    6  C   UNL     1      40.674  -9.709   1.337  1.00  0.00     0.255 C 
HETATM    7  C   UNL     1      39.602  -9.025   2.214  1.00  0.00     0.152 C 
ENDROOT
BRANCH   4   8
HETATM    8  C   UNL     1      40.899 -11.101  -0.808  1.00  0.00     0.338 C 
BRANCH   8   9
HETATM    9  C   UNL     1      40.331 -12.183  -1.729  1.00  0.00     0.262 C 
HETATM   10  N   UNL     1      40.627 -13.495  -1.434  1.00  0.00    -0.266 N 
HETATM   11  H   UNL     1      40.129 -14.201  -1.976  1.00  0.00     0.190 HD
HETATM   12  O   UNL     1      39.669 -11.911  -2.730  1.00  0.00    -0.270 OA
BRANCH  10  13
HETATM   13  N   UNL     1      41.229 -13.905  -0.229  1.00  0.00    -0.263 N 
HETATM   14  C   UNL     1      40.644 -14.962   0.460  1.00  0.00     0.270 C 
HETATM   15  O   UNL     1      39.504 -15.353   0.234  1.00  0.00    -0.266 OA
HETATM   16  H   UNL     1      42.243 -13.804  -0.187  1.00  0.00     0.190 HD
BRANCH  14  17
HETATM   17  C   UNL     1      41.469 -15.593   1.521  1.00  0.00     0.033 A 
HETATM   18  C   UNL     1      40.837 -16.008   2.700  1.00  0.00     0.019 A 
HETATM   19  C   UNL     1      41.585 -16.587   3.728  1.00  0.00     0.025 A 
HETATM   20  C   UNL     1      42.964 -16.735   3.584  1.00  0.00     0.034 A 
HETATM   21 CL   UNL     1      43.888 -17.434   4.853  1.00  0.00    -0.084 Cl
HETATM   22  C   UNL     1      43.601 -16.310   2.418  1.00  0.00     0.025 A 
HETATM   23  C   UNL     1      42.857 -15.738   1.383  1.00  0.00     0.019 A 
ENDBRANCH  14  17
ENDBRANCH  10  13
ENDBRANCH   8   9
ENDBRANCH   4   8
BRANCH   1  24
HETATM   24  C   UNL     1      39.049 -10.490   4.059  1.00  0.00     0.169 A 
HETATM   25  N   UNL     1      39.967 -11.414   4.238  1.00  0.00    -0.223 NA
HETATM   26  C   UNL     1      40.190 -11.659   5.585  1.00  0.00     0.076 A 
HETATM   27  C   UNL     1      39.398 -10.921   6.438  1.00  0.00     0.085 A 
HETATM   28  S   UNL     1      38.368  -9.898   5.536  1.00  0.00    -0.062 SA
BRANCH  26  29
HETATM   29  C   UNL     1      41.217 -12.600   6.021  1.00  0.00    -0.004 A 
HETATM   30  C   UNL     1      42.557 -12.219   6.174  1.00  0.00     0.050 A 
HETATM   31  C   UNL     1      43.529 -13.142   6.580  1.00  0.00     0.069 A 
HETATM   32  C   UNL     1      43.160 -14.461   6.837  1.00  0.00     0.037 A 
HETATM   33  C   UNL     1      41.828 -14.853   6.696  1.00  0.00     0.004 A 
HETATM   34  C   UNL     1      40.863 -13.928   6.293  1.00  0.00     0.014 A 
BRANCH  31  35
HETATM   35  O   UNL     1      44.792 -12.625   6.685  1.00  0.00    -0.356 OA
HETATM   36  C   UNL     1      44.909 -11.206   6.684  1.00  0.00     0.210 C 
ENDBRANCH  31  35
ENDBRANCH  26  29
ENDBRANCH   1  24
TORSDOF 7
ENDMDL
