MODEL 1
REMARK VINA RESULT:      -8.4      0.000      0.000
REMARK  5 active torsions:
REMARK  status: ('A' for Active; 'I' for Inactive)
REMARK    1  A    between atoms: C_2  and  C_3 
REMARK    2  A    between atoms: C_6  and  C_7 
REMARK    3  A    between atoms: C_9  and  C_10 
REMARK    4  A    between atoms: C_10  and  N_11 
REMARK       I    between atoms: N_11  and  C_12 
REMARK       I    between atoms: C_12  and  N_13 
REMARK    5  A    between atoms: N_13  and  C_14 
ROOT
HETATM    1  N   UNL     1      41.478 -13.177   5.419  1.00  0.00    -0.338 N 
HETATM    2  C   UNL     1      40.377 -13.862   5.819  1.00  0.00     0.321 C 
HETATM    3  N   UNL     1      40.076 -15.009   5.146  1.00  0.00    -0.308 N 
HETATM    4  O   UNL     1      39.621 -13.461   6.702  1.00  0.00    -0.247 OA
HETATM    5  H   UNL     1      41.894 -13.438   4.537  1.00  0.00     0.164 HD
HETATM    6  H   UNL     1      39.096 -15.242   5.250  1.00  0.00     0.170 HD
ENDROOT
BRANCH   1   7
HETATM    7  C   UNL     1      41.927 -11.969   6.061  1.00  0.00     0.167 C 
BRANCH   7   8
HETATM    8  C   UNL     1      43.305 -11.667   5.613  1.00  0.00     0.018 A 
HETATM    9  C   UNL     1      44.443 -11.326   6.399  1.00  0.00     0.072 A 
HETATM   10  N   UNL     1      45.516 -11.099   5.632  1.00  0.00    -0.132 NA
HETATM   11  O   UNL     1      45.100 -11.292   4.331  1.00  0.00    -0.217 OA
HETATM   12  C   UNL     1      43.784 -11.632   4.320  1.00  0.00     0.088 A 
BRANCH   9  13
HETATM   13  C   UNL     1      44.557 -11.203   7.880  1.00  0.00     0.058 C 
HETATM   14  C   UNL     1      45.753 -10.362   8.303  1.00  0.00     0.011 C 
ENDBRANCH   9  13
BRANCH  12  15
HETATM   15  C   UNL     1      43.181 -11.873   2.986  1.00  0.00     0.063 C 
HETATM   16  C   UNL     1      43.280 -13.336   2.585  1.00  0.00     0.012 C 
ENDBRANCH  12  15
ENDBRANCH   7   8
ENDBRANCH   1   7
BRANCH   3  17
HETATM   17  C   UNL     1      40.821 -15.777   4.223  1.00  0.00     0.047 A 
HETATM   18  C   UNL     1      41.944 -16.596   4.551  1.00  0.00     0.001 A 
HETATM   19  C   UNL     1      42.654 -17.215   3.489  1.00  0.00    -0.024 A 
HETATM   20  C   UNL     1      42.373 -16.904   5.866  1.00  0.00     0.014 A 
HETATM   21  C   UNL     1      43.792 -17.996   3.755  1.00  0.00     0.012 A 
HETATM   22  C   UNL     1      42.203 -17.079   2.168  1.00  0.00     0.012 A 
HETATM   23  C   UNL     1      44.222 -18.219   5.061  1.00  0.00     0.001 A 
HETATM   24  C   UNL     1      43.502 -17.687   6.119  1.00  0.00     0.001 A 
HETATM   25  C   UNL     1      41.050 -16.360   1.877  1.00  0.00     0.003 A 
HETATM   26  C   UNL     1      40.359 -15.721   2.901  1.00  0.00     0.030 A 
ENDBRANCH   3  17
TORSDOF 5
ENDMDL
MODEL 2
REMARK VINA RESULT:      -8.4      0.408      2.587
REMARK  5 active torsions:
REMARK  status: ('A' for Active; 'I' for Inactive)
REMARK    1  A    between atoms: C_2  and  C_3 
REMARK    2  A    between atoms: C_6  and  C_7 
REMARK    3  A    between atoms: C_9  and  C_10 
REMARK    4  A    between atoms: C_10  and  N_11 
REMARK       I    between atoms: N_11  and  C_12 
REMARK       I    between atoms: C_12  and  N_13 
REMARK    5  A    between atoms: N_13  and  C_14 
ROOT
HETATM    1  N   UNL     1      41.458 -13.111   5.397  1.00  0.00    -0.338 N 
HETATM    2  C   UNL     1      40.380 -13.810   5.834  1.00  0.00     0.321 C 
HETATM    3  N   UNL     1      40.075 -14.964   5.174  1.00  0.00    -0.308 N 
HETATM    4  O   UNL     1      39.646 -13.415   6.738  1.00  0.00    -0.247 OA
HETATM    5  H   UNL     1      41.850 -13.370   4.503  1.00  0.00     0.164 HD
HETATM    6  H   UNL     1      39.101 -15.210   5.310  1.00  0.00     0.170 HD
ENDROOT
BRANCH   1   7
HETATM    7  C   UNL     1      41.909 -11.894   6.020  1.00  0.00     0.167 C 
BRANCH   7   8
HETATM    8  C   UNL     1      43.292 -11.607   5.575  1.00  0.00     0.018 A 
HETATM    9  C   UNL     1      43.822 -11.620   4.254  1.00  0.00     0.072 A 
HETATM   10  N   UNL     1      45.129 -11.330   4.249  1.00  0.00    -0.132 NA
HETATM   11  O   UNL     1      45.475 -11.119   5.568  1.00  0.00    -0.217 OA
HETATM   12  C   UNL     1      44.381 -11.283   6.357  1.00  0.00     0.088 A 
BRANCH   9  13
HETATM   13  C   UNL     1      43.126 -11.901   2.966  1.00  0.00     0.058 C 
HETATM   14  C   UNL     1      43.279 -13.350   2.527  1.00  0.00     0.011 C 
ENDBRANCH   9  13
BRANCH  12  15
HETATM   15  C   UNL     1      44.588 -11.091   7.813  1.00  0.00     0.063 C 
HETATM   16  C   UNL     1      45.895 -10.370   8.101  1.00  0.00     0.012 C 
ENDBRANCH  12  15
ENDBRANCH   7   8
ENDBRANCH   1   7
BRANCH   3  17
HETATM   17  C   UNL     1      40.801 -15.725   4.233  1.00  0.00     0.047 A 
HETATM   18  C   UNL     1      41.919 -16.560   4.535  1.00  0.00     0.001 A 
HETATM   19  C   UNL     1      42.612 -17.171   3.457  1.00  0.00    -0.024 A 
HETATM   20  C   UNL     1      42.360 -16.892   5.842  1.00  0.00     0.014 A 
HETATM   21  C   UNL     1      43.744 -17.967   3.699  1.00  0.00     0.012 A 
HETATM   22  C   UNL     1      42.148 -17.010   2.144  1.00  0.00     0.012 A 
HETATM   23  C   UNL     1      44.187 -18.213   4.996  1.00  0.00     0.001 A 
HETATM   24  C   UNL     1      43.484 -17.690   6.070  1.00  0.00     0.001 A 
HETATM   25  C   UNL     1      40.999 -16.275   1.876  1.00  0.00     0.003 A 
HETATM   26  C   UNL     1      40.325 -15.645   2.916  1.00  0.00     0.030 A 
ENDBRANCH   3  17
TORSDOF 5
ENDMDL
MODEL 3
REMARK VINA RESULT:      -8.2      1.619      3.187
REMARK  5 active torsions:
REMARK  status: ('A' for Active; 'I' for Inactive)
REMARK    1  A    between atoms: C_2  and  C_3 
REMARK    2  A    between atoms: C_6  and  C_7 
REMARK    3  A    between atoms: C_9  and  C_10 
REMARK    4  A    between atoms: C_10  and  N_11 
REMARK       I    between atoms: N_11  and  C_12 
REMARK       I    between atoms: C_12  and  N_13 
REMARK    5  A    between atoms: N_13  and  C_14 
ROOT
HETATM    1  N   UNL     1      42.905 -14.004   6.790  1.00  0.00    -0.338 N 
HETATM    2  C   UNL     1      42.833 -15.159   7.500  1.00  0.00     0.321 C 
HETATM    3  N   UNL     1      42.287 -16.241   6.875  1.00  0.00    -0.308 N 
HETATM    4  O   UNL     1      43.171 -15.244   8.678  1.00  0.00    -0.247 OA
HETATM    5  H   UNL     1      42.383 -13.953   5.928  1.00  0.00     0.164 HD
HETATM    6  H   UNL     1      41.945 -16.913   7.551  1.00  0.00     0.170 HD
ENDROOT
BRANCH   1   7
HETATM    7  C   UNL     1      43.485 -12.795   7.317  1.00  0.00     0.167 C 
BRANCH   7   8
HETATM    8  C   UNL     1      44.201 -12.090   6.230  1.00  0.00     0.018 A 
HETATM    9  C   UNL     1      43.877 -12.025   4.845  1.00  0.00     0.072 A 
HETATM   10  N   UNL     1      44.779 -11.308   4.165  1.00  0.00    -0.132 NA
HETATM   11  O   UNL     1      45.708 -10.888   5.094  1.00  0.00    -0.217 OA
HETATM   12  C   UNL     1      45.363 -11.352   6.324  1.00  0.00     0.088 A 
BRANCH   9  13
HETATM   13  C   UNL     1      42.720 -12.629   4.124  1.00  0.00     0.058 C 
HETATM   14  C   UNL     1      43.157 -13.576   3.016  1.00  0.00     0.011 C 
ENDBRANCH   9  13
BRANCH  12  15
HETATM   15  C   UNL     1      46.268 -10.986   7.440  1.00  0.00     0.063 C 
HETATM   16  C   UNL     1      45.637  -9.947   8.354  1.00  0.00     0.012 C 
ENDBRANCH  12  15
ENDBRANCH   7   8
ENDBRANCH   1   7
BRANCH   3  17
HETATM   17  C   UNL     1      41.968 -16.479   5.520  1.00  0.00     0.047 A 
HETATM   18  C   UNL     1      42.735 -17.279   4.621  1.00  0.00     0.001 A 
HETATM   19  C   UNL     1      42.339 -17.325   3.258  1.00  0.00    -0.024 A 
HETATM   20  C   UNL     1      43.832 -18.097   4.991  1.00  0.00     0.014 A 
HETATM   21  C   UNL     1      43.086 -18.063   2.325  1.00  0.00     0.012 A 
HETATM   22  C   UNL     1      41.177 -16.660   2.842  1.00  0.00     0.012 A 
HETATM   23  C   UNL     1      44.200 -18.801   2.718  1.00  0.00     0.001 A 
HETATM   24  C   UNL     1      44.564 -18.833   4.054  1.00  0.00     0.001 A 
HETATM   25  C   UNL     1      40.385 -15.967   3.751  1.00  0.00     0.003 A 
HETATM   26  C   UNL     1      40.774 -15.886   5.083  1.00  0.00     0.030 A 
ENDBRANCH   3  17
TORSDOF 5
ENDMDL
MODEL 4
REMARK VINA RESULT:      -8.0      0.810      2.268
REMARK  5 active torsions:
REMARK  status: ('A' for Active; 'I' for Inactive)
REMARK    1  A    between atoms: C_2  and  C_3 
REMARK    2  A    between atoms: C_6  and  C_7 
REMARK    3  A    between atoms: C_9  and  C_10 
REMARK    4  A    between atoms: C_10  and  N_11 
REMARK       I    between atoms: N_11  and  C_12 
REMARK       I    between atoms: C_12  and  N_13 
REMARK    5  A    between atoms: N_13  and  C_14 
ROOT
HETATM    1  N   UNL     1      41.849 -13.529   5.896  1.00  0.00    -0.338 N 
HETATM    2  C   UNL     1      40.724 -14.218   6.211  1.00  0.00     0.321 C 
HETATM    3  N   UNL     1      40.751 -15.570   6.038  1.00  0.00    -0.308 N 
HETATM    4  O   UNL     1      39.683 -13.673   6.574  1.00  0.00    -0.247 OA
HETATM    5  H   UNL     1      42.563 -14.015   5.374  1.00  0.00     0.164 HD
HETATM    6  H   UNL     1      39.813 -15.941   5.941  1.00  0.00     0.170 HD
ENDROOT
BRANCH   1   7
HETATM    7  C   UNL     1      41.968 -12.102   6.059  1.00  0.00     0.167 C 
BRANCH   7   8
HETATM    8  C   UNL     1      43.336 -11.685   5.679  1.00  0.00     0.018 A 
HETATM    9  C   UNL     1      44.389 -11.216   6.515  1.00  0.00     0.072 A 
HETATM   10  N   UNL     1      45.480 -10.911   5.803  1.00  0.00    -0.132 NA
HETATM   11  O   UNL     1      45.160 -11.177   4.487  1.00  0.00    -0.217 OA
HETATM   12  C   UNL     1      43.885 -11.640   4.414  1.00  0.00     0.088 A 
BRANCH   9  13
HETATM   13  C   UNL     1      44.404 -11.043   7.995  1.00  0.00     0.058 C 
HETATM   14  C   UNL     1      45.735 -10.507   8.504  1.00  0.00     0.011 C 
ENDBRANCH   9  13
BRANCH  12  15
HETATM   15  C   UNL     1      43.386 -11.973   3.057  1.00  0.00     0.063 C 
HETATM   16  C   UNL     1      42.307 -11.002   2.605  1.00  0.00     0.012 C 
ENDBRANCH  12  15
ENDBRANCH   7   8
ENDBRANCH   1   7
BRANCH   3  17
HETATM   17  C   UNL     1      41.818 -16.463   5.794  1.00  0.00     0.047 A 
HETATM   18  C   UNL     1      42.307 -16.830   4.504  1.00  0.00     0.001 A 
HETATM   19  C   UNL     1      43.313 -17.828   4.427  1.00  0.00    -0.024 A 
HETATM   20  C   UNL     1      41.918 -16.225   3.282  1.00  0.00     0.014 A 
HETATM   21  C   UNL     1      43.796 -18.255   3.179  1.00  0.00     0.012 A 
HETATM   22  C   UNL     1      43.856 -18.370   5.601  1.00  0.00     0.012 A 
HETATM   23  C   UNL     1      43.338 -17.683   1.995  1.00  0.00     0.001 A 
HETATM   24  C   UNL     1      42.411 -16.654   2.047  1.00  0.00     0.001 A 
HETATM   25  C   UNL     1      43.439 -17.930   6.852  1.00  0.00     0.003 A 
HETATM   26  C   UNL     1      42.433 -16.974   6.946  1.00  0.00     0.030 A 
ENDBRANCH   3  17
TORSDOF 5
ENDMDL
MODEL 5
REMARK VINA RESULT:      -8.0      0.918      3.428
REMARK  5 active torsions:
REMARK  status: ('A' for Active; 'I' for Inactive)
REMARK    1  A    between atoms: C_2  and  C_3 
REMARK    2  A    between atoms: C_6  and  C_7 
REMARK    3  A    between atoms: C_9  and  C_10 
REMARK    4  A    between atoms: C_10  and  N_11 
REMARK       I    between atoms: N_11  and  C_12 
REMARK       I    between atoms: C_12  and  N_13 
REMARK    5  A    between atoms: N_13  and  C_14 
ROOT
HETATM    1  N   UNL     1      41.849 -13.585   5.829  1.00  0.00    -0.338 N 
HETATM    2  C   UNL     1      40.731 -14.253   6.211  1.00  0.00     0.321 C 
HETATM    3  N   UNL     1      40.751 -15.612   6.108  1.00  0.00    -0.308 N 
HETATM    4  O   UNL     1      39.702 -13.686   6.573  1.00  0.00    -0.247 OA
HETATM    5  H   UNL     1      42.548 -14.101   5.314  1.00  0.00     0.164 HD
HETATM    6  H   UNL     1      39.810 -15.984   6.057  1.00  0.00     0.170 HD
ENDROOT
BRANCH   1   7
HETATM    7  C   UNL     1      41.975 -12.153   5.914  1.00  0.00     0.167 C 
BRANCH   7   8
HETATM    8  C   UNL     1      43.273 -11.746   5.329  1.00  0.00     0.018 A 
HETATM    9  C   UNL     1      43.608 -11.544   3.960  1.00  0.00     0.072 A 
HETATM   10  N   UNL     1      44.894 -11.202   3.817  1.00  0.00    -0.132 NA
HETATM   11  O   UNL     1      45.422 -11.171   5.092  1.00  0.00    -0.217 OA
HETATM   12  C   UNL     1      44.456 -11.494   5.992  1.00  0.00     0.088 A 
BRANCH   9  13
HETATM   13  C   UNL     1      42.741 -11.664   2.754  1.00  0.00     0.058 C 
HETATM   14  C   UNL     1      42.549 -13.109   2.317  1.00  0.00     0.011 C 
ENDBRANCH   9  13
BRANCH  12  15
HETATM   15  C   UNL     1      44.867 -11.507   7.417  1.00  0.00     0.063 C 
HETATM   16  C   UNL     1      45.256 -10.120   7.899  1.00  0.00     0.012 C 
ENDBRANCH  12  15
ENDBRANCH   7   8
ENDBRANCH   1   7
BRANCH   3  17
HETATM   17  C   UNL     1      41.809 -16.520   5.883  1.00  0.00     0.047 A 
HETATM   18  C   UNL     1      42.238 -16.984   4.603  1.00  0.00     0.001 A 
HETATM   19  C   UNL     1      43.244 -17.985   4.555  1.00  0.00    -0.024 A 
HETATM   20  C   UNL     1      41.790 -16.473   3.359  1.00  0.00     0.014 A 
HETATM   21  C   UNL     1      43.670 -18.505   3.321  1.00  0.00     0.012 A 
HETATM   22  C   UNL     1      43.843 -18.436   5.739  1.00  0.00     0.012 A 
HETATM   23  C   UNL     1      43.155 -18.024   2.120  1.00  0.00     0.001 A 
HETATM   24  C   UNL     1      42.227 -16.994   2.137  1.00  0.00     0.001 A 
HETATM   25  C   UNL     1      43.484 -17.902   6.971  1.00  0.00     0.003 A 
HETATM   26  C   UNL     1      42.479 -16.943   7.041  1.00  0.00     0.030 A 
ENDBRANCH   3  17
TORSDOF 5
ENDMDL
MODEL 6
REMARK VINA RESULT:      -8.0      1.660      3.757
REMARK  5 active torsions:
REMARK  status: ('A' for Active; 'I' for Inactive)
REMARK    1  A    between atoms: C_2  and  C_3 
REMARK    2  A    between atoms: C_6  and  C_7 
REMARK    3  A    between atoms: C_9  and  C_10 
REMARK    4  A    between atoms: C_10  and  N_11 
REMARK       I    between atoms: N_11  and  C_12 
REMARK       I    between atoms: C_12  and  N_13 
REMARK    5  A    between atoms: N_13  and  C_14 
ROOT
HETATM    1  N   UNL     1      43.313 -14.435   6.641  1.00  0.00    -0.338 N 
HETATM    2  C   UNL     1      43.147 -15.537   7.415  1.00  0.00     0.321 C 
HETATM    3  N   UNL     1      42.954 -16.726   6.776  1.00  0.00    -0.308 N 
HETATM    4  O   UNL     1      43.098 -15.493   8.643  1.00  0.00    -0.247 OA
HETATM    5  H   UNL     1      43.091 -14.517   5.659  1.00  0.00     0.164 HD
HETATM    6  H   UNL     1      42.491 -17.391   7.383  1.00  0.00     0.170 HD
ENDROOT
BRANCH   1   7
HETATM    7  C   UNL     1      43.555 -13.123   7.184  1.00  0.00     0.167 C 
BRANCH   7   8
HETATM    8  C   UNL     1      44.200 -12.283   6.150  1.00  0.00     0.018 A 
HETATM    9  C   UNL     1      43.863 -12.152   4.773  1.00  0.00     0.072 A 
HETATM   10  N   UNL     1      44.694 -11.312   4.144  1.00  0.00    -0.132 NA
HETATM   11  O   UNL     1      45.587 -10.876   5.102  1.00  0.00    -0.217 OA
HETATM   12  C   UNL     1      45.292 -11.453   6.296  1.00  0.00     0.088 A 
BRANCH   9  13
HETATM   13  C   UNL     1      42.762 -12.805   4.010  1.00  0.00     0.058 C 
HETATM   14  C   UNL     1      43.243 -13.415   2.701  1.00  0.00     0.011 C 
ENDBRANCH   9  13
BRANCH  12  15
HETATM   15  C   UNL     1      46.167 -11.086   7.436  1.00  0.00     0.063 C 
HETATM   16  C   UNL     1      45.480 -10.109   8.375  1.00  0.00     0.012 C 
ENDBRANCH  12  15
ENDBRANCH   7   8
ENDBRANCH   1   7
BRANCH   3  17
HETATM   17  C   UNL     1      43.113 -17.099   5.423  1.00  0.00     0.047 A 
HETATM   18  C   UNL     1      42.223 -16.750   4.363  1.00  0.00     0.001 A 
HETATM   19  C   UNL     1      42.463 -17.301   3.076  1.00  0.00    -0.024 A 
HETATM   20  C   UNL     1      41.146 -15.834   4.470  1.00  0.00     0.014 A 
HETATM   21  C   UNL     1      41.591 -17.023   2.010  1.00  0.00     0.012 A 
HETATM   22  C   UNL     1      43.594 -18.099   2.854  1.00  0.00     0.012 A 
HETATM   23  C   UNL     1      40.503 -16.170   2.174  1.00  0.00     0.001 A 
HETATM   24  C   UNL     1      40.289 -15.560   3.400  1.00  0.00     0.001 A 
HETATM   25  C   UNL     1      44.506 -18.347   3.874  1.00  0.00     0.003 A 
HETATM   26  C   UNL     1      44.270 -17.842   5.148  1.00  0.00     0.030 A 
ENDBRANCH   3  17
TORSDOF 5
ENDMDL
MODEL 7
REMARK VINA RESULT:      -7.6      1.817      3.361
REMARK  5 active torsions:
REMARK  status: ('A' for Active; 'I' for Inactive)
REMARK    1  A    between atoms: C_2  and  C_3 
REMARK    2  A    between atoms: C_6  and  C_7 
REMARK    3  A    between atoms: C_9  and  C_10 
REMARK    4  A    between atoms: C_10  and  N_11 
REMARK       I    between atoms: N_11  and  C_12 
REMARK       I    between atoms: C_12  and  N_13 
REMARK    5  A    between atoms: N_13  and  C_14 
ROOT
HETATM    1  N   UNL     1      42.715 -14.342   5.885  1.00  0.00    -0.338 N 
HETATM    2  C   UNL     1      43.130 -15.275   6.779  1.00  0.00     0.321 C 
HETATM    3  N   UNL     1      43.231 -16.561   6.336  1.00  0.00    -0.308 N 
HETATM    4  O   UNL     1      43.348 -15.021   7.961  1.00  0.00    -0.247 OA
HETATM    5  H   UNL     1      42.321 -14.671   5.016  1.00  0.00     0.164 HD
HETATM    6  H   UNL     1      43.184 -17.213   7.110  1.00  0.00     0.170 HD
ENDROOT
BRANCH   1   7
HETATM    7  C   UNL     1      42.593 -12.944   6.209  1.00  0.00     0.167 C 
BRANCH   7   8
HETATM    8  C   UNL     1      43.700 -12.201   5.565  1.00  0.00     0.018 A 
HETATM    9  C   UNL     1      43.954 -12.009   4.178  1.00  0.00     0.072 A 
HETATM   10  N   UNL     1      45.070 -11.296   3.979  1.00  0.00    -0.132 NA
HETATM   11  O   UNL     1      45.563 -11.007   5.235  1.00  0.00    -0.217 OA
HETATM   12  C   UNL     1      44.746 -11.544   6.179  1.00  0.00     0.088 A 
BRANCH   9  13
HETATM   13  C   UNL     1      43.166 -12.483   3.005  1.00  0.00     0.058 C 
HETATM   14  C   UNL     1      42.199 -11.428   2.489  1.00  0.00     0.011 C 
ENDBRANCH   9  13
BRANCH  12  15
HETATM   15  C   UNL     1      45.142 -11.321   7.591  1.00  0.00     0.063 C 
HETATM   16  C   UNL     1      46.057 -10.115   7.731  1.00  0.00     0.012 C 
ENDBRANCH  12  15
ENDBRANCH   7   8
ENDBRANCH   1   7
BRANCH   3  17
HETATM   17  C   UNL     1      43.201 -17.110   5.035  1.00  0.00     0.047 A 
HETATM   18  C   UNL     1      43.482 -18.471   4.709  1.00  0.00     0.001 A 
HETATM   19  C   UNL     1      43.520 -18.838   3.338  1.00  0.00    -0.024 A 
HETATM   20  C   UNL     1      43.659 -19.516   5.651  1.00  0.00     0.014 A 
HETATM   21  C   UNL     1      43.835 -20.156   2.964  1.00  0.00     0.012 A 
HETATM   22  C   UNL     1      43.210 -17.894   2.349  1.00  0.00     0.012 A 
HETATM   23  C   UNL     1      44.070 -21.139   3.921  1.00  0.00     0.001 A 
HETATM   24  C   UNL     1      43.965 -20.824   5.266  1.00  0.00     0.001 A 
HETATM   25  C   UNL     1      42.841 -16.597   2.689  1.00  0.00     0.003 A 
HETATM   26  C   UNL     1      42.828 -16.212   4.025  1.00  0.00     0.030 A 
ENDBRANCH   3  17
TORSDOF 5
ENDMDL
MODEL 8
REMARK VINA RESULT:      -7.6      2.035      3.570
REMARK  5 active torsions:
REMARK  status: ('A' for Active; 'I' for Inactive)
REMARK    1  A    between atoms: C_2  and  C_3 
REMARK    2  A    between atoms: C_6  and  C_7 
REMARK    3  A    between atoms: C_9  and  C_10 
REMARK    4  A    between atoms: C_10  and  N_11 
REMARK       I    between atoms: N_11  and  C_12 
REMARK       I    between atoms: C_12  and  N_13 
REMARK    5  A    between atoms: N_13  and  C_14 
ROOT
HETATM    1  N   UNL     1      41.128 -12.730   5.348  1.00  0.00    -0.338 N 
HETATM    2  C   UNL     1      40.089 -13.420   5.883  1.00  0.00     0.321 C 
HETATM    3  N   UNL     1      40.243 -14.767   6.029  1.00  0.00    -0.308 N 
HETATM    4  O   UNL     1      39.014 -12.897   6.170  1.00  0.00    -0.247 OA
HETATM    5  H   UNL     1      41.867 -13.263   4.913  1.00  0.00     0.164 HD
HETATM    6  H   UNL     1      39.343 -15.230   6.078  1.00  0.00     0.170 HD
ENDROOT
BRANCH   1   7
HETATM    7  C   UNL     1      41.111 -11.301   5.167  1.00  0.00     0.167 C 
BRANCH   7   8
HETATM    8  C   UNL     1      41.705 -10.656   6.359  1.00  0.00     0.018 A 
HETATM    9  C   UNL     1      43.062 -10.660   6.791  1.00  0.00     0.072 A 
HETATM   10  N   UNL     1      43.213  -9.982   7.935  1.00  0.00    -0.132 NA
HETATM   11  O   UNL     1      41.957  -9.521   8.270  1.00  0.00    -0.217 OA
HETATM   12  C   UNL     1      41.060  -9.920   7.331  1.00  0.00     0.088 A 
BRANCH   9  13
HETATM   13  C   UNL     1      44.249 -11.293   6.148  1.00  0.00     0.058 C 
HETATM   14  C   UNL     1      44.464 -12.727   6.610  1.00  0.00     0.011 C 
ENDBRANCH   9  13
BRANCH  12  15
HETATM   15  C   UNL     1      39.653  -9.503   7.549  1.00  0.00     0.063 C 
HETATM   16  C   UNL     1      39.242  -9.663   9.004  1.00  0.00     0.012 C 
ENDBRANCH  12  15
ENDBRANCH   7   8
ENDBRANCH   1   7
BRANCH   3  17
HETATM   17  C   UNL     1      41.383 -15.595   5.938  1.00  0.00     0.047 A 
HETATM   18  C   UNL     1      41.845 -16.232   4.747  1.00  0.00     0.001 A 
HETATM   19  C   UNL     1      42.944 -17.126   4.846  1.00  0.00    -0.024 A 
HETATM   20  C   UNL     1      41.338 -15.993   3.444  1.00  0.00     0.014 A 
HETATM   21  C   UNL     1      43.408 -17.811   3.711  1.00  0.00     0.012 A 
HETATM   22  C   UNL     1      43.595 -17.304   6.075  1.00  0.00     0.012 A 
HETATM   23  C   UNL     1      42.837 -17.599   2.459  1.00  0.00     0.001 A 
HETATM   24  C   UNL     1      41.813 -16.675   2.321  1.00  0.00     0.001 A 
HETATM   25  C   UNL     1      43.195 -16.600   7.205  1.00  0.00     0.003 A 
HETATM   26  C   UNL     1      42.102 -15.743   7.133  1.00  0.00     0.030 A 
ENDBRANCH   3  17
TORSDOF 5
ENDMDL
MODEL 9
REMARK VINA RESULT:      -7.6      2.062      2.549
REMARK  5 active torsions:
REMARK  status: ('A' for Active; 'I' for Inactive)
REMARK    1  A    between atoms: C_2  and  C_3 
REMARK    2  A    between atoms: C_6  and  C_7 
REMARK    3  A    between atoms: C_9  and  C_10 
REMARK    4  A    between atoms: C_10  and  N_11 
REMARK       I    between atoms: N_11  and  C_12 
REMARK       I    between atoms: C_12  and  N_13 
REMARK    5  A    between atoms: N_13  and  C_14 
ROOT
HETATM    1  N   UNL     1      43.578 -13.815   6.194  1.00  0.00    -0.338 N 
HETATM    2  C   UNL     1      43.062 -14.734   7.050  1.00  0.00     0.321 C 
HETATM    3  N   UNL     1      42.237 -15.683   6.524  1.00  0.00    -0.308 N 
HETATM    4  O   UNL     1      43.254 -14.700   8.264  1.00  0.00    -0.247 OA
HETATM    5  H   UNL     1      43.176 -13.763   5.269  1.00  0.00     0.164 HD
HETATM    6  H   UNL     1      41.634 -16.073   7.239  1.00  0.00     0.170 HD
ENDROOT
BRANCH   1   7
HETATM    7  C   UNL     1      44.485 -12.777   6.610  1.00  0.00     0.167 C 
BRANCH   7   8
HETATM    8  C   UNL     1      43.706 -11.573   6.977  1.00  0.00     0.018 A 
HETATM    9  C   UNL     1      44.009 -10.579   7.950  1.00  0.00     0.072 A 
HETATM   10  N   UNL     1      43.048  -9.650   8.015  1.00  0.00    -0.132 NA
HETATM   11  O   UNL     1      42.101 -10.018   7.083  1.00  0.00    -0.217 OA
HETATM   12  C   UNL     1      42.493 -11.162   6.463  1.00  0.00     0.088 A 
BRANCH   9  13
HETATM   13  C   UNL     1      45.199 -10.471   8.842  1.00  0.00     0.058 C 
HETATM   14  C   UNL     1      44.919  -9.643  10.087  1.00  0.00     0.011 C 
ENDBRANCH   9  13
BRANCH  12  15
HETATM   15  C   UNL     1      41.576 -11.694   5.427  1.00  0.00     0.063 C 
HETATM   16  C   UNL     1      40.240 -12.107   6.022  1.00  0.00     0.012 C 
ENDBRANCH  12  15
ENDBRANCH   7   8
ENDBRANCH   1   7
BRANCH   3  17
HETATM   17  C   UNL     1      41.969 -16.056   5.189  1.00  0.00     0.047 A 
HETATM   18  C   UNL     1      42.716 -17.009   4.434  1.00  0.00     0.001 A 
HETATM   19  C   UNL     1      42.386 -17.188   3.064  1.00  0.00    -0.024 A 
HETATM   20  C   UNL     1      43.726 -17.855   4.959  1.00  0.00     0.014 A 
HETATM   21  C   UNL     1      43.120 -18.083   2.267  1.00  0.00     0.012 A 
HETATM   22  C   UNL     1      41.301 -16.495   2.507  1.00  0.00     0.012 A 
HETATM   23  C   UNL     1      44.152 -18.846   2.806  1.00  0.00     0.001 A 
HETATM   24  C   UNL     1      44.444 -18.746   4.157  1.00  0.00     0.001 A 
HETATM   25  C   UNL     1      40.521 -15.645   3.282  1.00  0.00     0.003 A 
HETATM   26  C   UNL     1      40.849 -15.435   4.618  1.00  0.00     0.030 A 
ENDBRANCH   3  17
TORSDOF 5
ENDMDL
MODEL 10
REMARK VINA RESULT:      -7.5      1.924      3.407
REMARK  5 active torsions:
REMARK  status: ('A' for Active; 'I' for Inactive)
REMARK    1  A    between atoms: C_2  and  C_3 
REMARK    2  A    between atoms: C_6  and  C_7 
REMARK    3  A    between atoms: C_9  and  C_10 
REMARK    4  A    between atoms: C_10  and  N_11 
REMARK       I    between atoms: N_11  and  C_12 
REMARK       I    between atoms: C_12  and  N_13 
REMARK    5  A    between atoms: N_13  and  C_14 
ROOT
HETATM    1  N   UNL     1      41.412 -13.026   5.334  1.00  0.00    -0.338 N 
HETATM    2  C   UNL     1      40.402 -13.681   5.962  1.00  0.00     0.321 C 
HETATM    3  N   UNL     1      40.556 -15.022   6.159  1.00  0.00    -0.308 N 
HETATM    4  O   UNL     1      39.350 -13.136   6.290  1.00  0.00    -0.247 OA
HETATM    5  H   UNL     1      42.118 -13.585   4.879  1.00  0.00     0.164 HD
HETATM    6  H   UNL     1      39.658 -15.473   6.284  1.00  0.00     0.170 HD
ENDROOT
BRANCH   1   7
HETATM    7  C   UNL     1      41.393 -11.607   5.089  1.00  0.00     0.167 C 
BRANCH   7   8
HETATM    8  C   UNL     1      41.997 -10.909   6.246  1.00  0.00     0.018 A 
HETATM    9  C   UNL     1      41.368 -10.058   7.200  1.00  0.00     0.072 A 
HETATM   10  N   UNL     1      42.249  -9.591   8.093  1.00  0.00    -0.132 NA
HETATM   11  O   UNL     1      43.468 -10.131   7.741  1.00  0.00    -0.217 OA
HETATM   12  C   UNL     1      43.318 -10.917   6.643  1.00  0.00     0.088 A 
BRANCH   9  13
HETATM   13  C   UNL     1      39.935  -9.661   7.302  1.00  0.00     0.058 C 
HETATM   14  C   UNL     1      39.479  -9.497   8.745  1.00  0.00     0.011 C 
ENDBRANCH   9  13
BRANCH  12  15
HETATM   15  C   UNL     1      44.546 -11.574   6.133  1.00  0.00     0.063 C 
HETATM   16  C   UNL     1      45.782 -11.109   6.887  1.00  0.00     0.012 C 
ENDBRANCH  12  15
ENDBRANCH   7   8
ENDBRANCH   1   7
BRANCH   3  17
HETATM   17  C   UNL     1      41.683 -15.864   6.036  1.00  0.00     0.047 A 
HETATM   18  C   UNL     1      42.105 -16.504   4.832  1.00  0.00     0.001 A 
HETATM   19  C   UNL     1      43.195 -17.412   4.901  1.00  0.00    -0.024 A 
HETATM   20  C   UNL     1      41.566 -16.256   3.544  1.00  0.00     0.014 A 
HETATM   21  C   UNL     1      43.620 -18.101   3.753  1.00  0.00     0.012 A 
HETATM   22  C   UNL     1      43.876 -17.601   6.112  1.00  0.00     0.012 A 
HETATM   23  C   UNL     1      43.018 -17.879   2.517  1.00  0.00     0.001 A 
HETATM   24  C   UNL     1      42.002 -16.943   2.408  1.00  0.00     0.001 A 
HETATM   25  C   UNL     1      43.516 -16.893   7.253  1.00  0.00     0.003 A 
HETATM   26  C   UNL     1      42.431 -16.023   7.212  1.00  0.00     0.030 A 
ENDBRANCH   3  17
TORSDOF 5
ENDMDL
