MODEL 1
REMARK VINA RESULT:      -8.2      0.000      0.000
REMARK  5 active torsions:
REMARK  status: ('A' for Active; 'I' for Inactive)
REMARK    1  A    between atoms: O_2  and  C_3 
REMARK    2  A    between atoms: C_7  and  C_9 
REMARK    3  A    between atoms: C_9  and  N_11 
REMARK       I    between atoms: N_11  and  C_12 
REMARK       I    between atoms: C_12  and  N_14 
REMARK    4  A    between atoms: N_14  and  C_15 
REMARK    5  A    between atoms: C_18  and  C_21 
ROOT
HETATM    1  N   UNL     1      42.999 -14.932   5.695  1.00  0.00    -0.335 N 
HETATM    2  C   UNL     1      42.959 -13.656   6.135  1.00  0.00     0.322 C 
HETATM    3  O   UNL     1      42.067 -12.835   6.043  1.00  0.00    -0.247 OA
HETATM    4  N   UNL     1      44.159 -13.318   6.764  1.00  0.00    -0.289 N 
HETATM    5  H   UNL     1      43.819 -15.509   5.826  1.00  0.00     0.165 HD
HETATM    6  H   UNL     1      44.953 -13.930   6.838  1.00  0.00     0.172 HD
ENDROOT
BRANCH   1   7
HETATM    7  C   UNL     1      41.925 -15.527   4.909  1.00  0.00     0.115 C 
HETATM    8  C   UNL     1      40.723 -15.924   5.770  1.00  0.00     0.037 C 
BRANCH   7   9
HETATM    9  C   UNL     1      42.496 -16.706   4.143  1.00  0.00    -0.033 A 
HETATM   10  C   UNL     1      42.267 -16.836   2.768  1.00  0.00     0.009 A 
HETATM   11  C   UNL     1      42.843 -17.886   2.051  1.00  0.00     0.003 A 
HETATM   12  C   UNL     1      43.663 -18.817   2.694  1.00  0.00     0.037 A 
HETATM   13  C   UNL     1      43.908 -18.702   4.060  1.00  0.00     0.068 A 
HETATM   14  C   UNL     1      43.323 -17.652   4.774  1.00  0.00     0.046 A 
BRANCH  13  15
HETATM   15  O   UNL     1      44.700 -19.525   4.813  1.00  0.00    -0.356 OA
HETATM   16  C   UNL     1      44.103 -20.720   5.304  1.00  0.00     0.210 C 
ENDBRANCH  13  15
ENDBRANCH   7   9
ENDBRANCH   1   7
BRANCH   4  17
HETATM   17  C   UNL     1      44.350 -12.122   7.294  1.00  0.00     0.153 A 
HETATM   18  N   UNL     1      43.657 -11.576   8.296  1.00  0.00    -0.335 N 
HETATM   19  H   UNL     1      42.894 -12.114   8.714  1.00  0.00     0.168 HD
HETATM   20  C   UNL     1      44.083 -10.311   8.663  1.00  0.00     0.051 A 
HETATM   21  C   UNL     1      45.135  -9.883   7.877  1.00  0.00     0.083 A 
HETATM   22  S   UNL     1      45.600 -11.076   6.726  1.00  0.00    -0.063 SA
BRANCH  20  23
HETATM   23  C   UNL     1      43.480  -9.542   9.748  1.00  0.00    -0.006 A 
HETATM   24  C   UNL     1      44.170  -9.297  10.942  1.00  0.00     0.033 A 
HETATM   25  C   UNL     1      43.540  -8.571  11.940  1.00  0.00     0.117 A 
HETATM   26  N   UNL     1      42.289  -8.088  11.830  1.00  0.00    -0.273 NA
HETATM   27  C   UNL     1      41.634  -8.330  10.681  1.00  0.00     0.117 A 
HETATM   28  C   UNL     1      42.180  -9.041   9.623  1.00  0.00     0.033 A 
ENDBRANCH  20  23
ENDBRANCH   4  17
TORSDOF 5
ENDMDL
MODEL 2
REMARK VINA RESULT:      -7.9      4.721      8.413
REMARK  5 active torsions:
REMARK  status: ('A' for Active; 'I' for Inactive)
REMARK    1  A    between atoms: O_2  and  C_3 
REMARK    2  A    between atoms: C_7  and  C_9 
REMARK    3  A    between atoms: C_9  and  N_11 
REMARK       I    between atoms: N_11  and  C_12 
REMARK       I    between atoms: C_12  and  N_14 
REMARK    4  A    between atoms: N_14  and  C_15 
REMARK    5  A    between atoms: C_18  and  C_21 
ROOT
HETATM    1  N   UNL     1      43.086 -14.951   4.280  1.00  0.00    -0.335 N 
HETATM    2  C   UNL     1      42.081 -14.397   3.569  1.00  0.00     0.322 C 
HETATM    3  O   UNL     1      40.897 -14.316   3.838  1.00  0.00    -0.247 OA
HETATM    4  N   UNL     1      42.562 -13.877   2.366  1.00  0.00    -0.289 N 
HETATM    5  H   UNL     1      44.033 -14.964   3.930  1.00  0.00     0.165 HD
HETATM    6  H   UNL     1      43.517 -13.947   2.059  1.00  0.00     0.172 HD
ENDROOT
BRANCH   1   7
HETATM    7  C   UNL     1      42.863 -15.663   5.533  1.00  0.00     0.115 C 
HETATM    8  C   UNL     1      43.563 -14.992   6.718  1.00  0.00     0.037 C 
BRANCH   7   9
HETATM    9  C   UNL     1      43.307 -17.102   5.344  1.00  0.00    -0.033 A 
HETATM   10  C   UNL     1      43.333 -17.984   6.432  1.00  0.00     0.009 A 
HETATM   11  C   UNL     1      43.683 -19.322   6.247  1.00  0.00     0.003 A 
HETATM   12  C   UNL     1      44.002 -19.803   4.974  1.00  0.00     0.037 A 
HETATM   13  C   UNL     1      43.977 -18.944   3.879  1.00  0.00     0.068 A 
HETATM   14  C   UNL     1      43.633 -17.602   4.071  1.00  0.00     0.046 A 
BRANCH  13  15
HETATM   15  O   UNL     1      44.248 -19.277   2.582  1.00  0.00    -0.356 OA
HETATM   16  C   UNL     1      43.380 -20.220   1.964  1.00  0.00     0.210 C 
ENDBRANCH  13  15
ENDBRANCH   7   9
ENDBRANCH   1   7
BRANCH   4  17
HETATM   17  C   UNL     1      41.764 -13.266   1.506  1.00  0.00     0.153 A 
HETATM   18  N   UNL     1      41.018 -13.846   0.563  1.00  0.00    -0.335 N 
HETATM   19  H   UNL     1      41.048 -14.864   0.472  1.00  0.00     0.168 HD
HETATM   20  C   UNL     1      40.263 -12.964  -0.190  1.00  0.00     0.051 A 
HETATM   21  C   UNL     1      40.474 -11.657   0.197  1.00  0.00     0.083 A 
HETATM   22  S   UNL     1      41.576 -11.550   1.516  1.00  0.00    -0.063 SA
BRANCH  20  23
HETATM   23  C   UNL     1      39.361 -13.387  -1.259  1.00  0.00    -0.006 A 
HETATM   24  C   UNL     1      39.640 -14.508  -2.051  1.00  0.00     0.033 A 
HETATM   25  C   UNL     1      38.752 -14.852  -3.058  1.00  0.00     0.117 A 
HETATM   26  N   UNL     1      37.629 -14.160  -3.326  1.00  0.00    -0.273 NA
HETATM   27  C   UNL     1      37.370 -13.085  -2.560  1.00  0.00     0.117 A 
HETATM   28  C   UNL     1      38.193 -12.664  -1.527  1.00  0.00     0.033 A 
ENDBRANCH  20  23
ENDBRANCH   4  17
TORSDOF 5
ENDMDL
MODEL 3
REMARK VINA RESULT:      -7.9      2.435      9.677
REMARK  5 active torsions:
REMARK  status: ('A' for Active; 'I' for Inactive)
REMARK    1  A    between atoms: O_2  and  C_3 
REMARK    2  A    between atoms: C_7  and  C_9 
REMARK    3  A    between atoms: C_9  and  N_11 
REMARK       I    between atoms: N_11  and  C_12 
REMARK       I    between atoms: C_12  and  N_14 
REMARK    4  A    between atoms: N_14  and  C_15 
REMARK    5  A    between atoms: C_18  and  C_21 
ROOT
HETATM    1  N   UNL     1      43.905 -11.572   7.907  1.00  0.00    -0.335 N 
HETATM    2  C   UNL     1      43.563 -12.294   6.819  1.00  0.00     0.322 C 
HETATM    3  O   UNL     1      43.812 -12.090   5.647  1.00  0.00    -0.247 OA
HETATM    4  N   UNL     1      42.810 -13.410   7.190  1.00  0.00    -0.289 N 
HETATM    5  H   UNL     1      43.618 -11.849   8.835  1.00  0.00     0.165 HD
HETATM    6  H   UNL     1      42.529 -13.617   8.134  1.00  0.00     0.172 HD
ENDROOT
BRANCH   1   7
HETATM    7  C   UNL     1      44.607 -10.297   7.816  1.00  0.00     0.115 C 
HETATM    8  C   UNL     1      46.128 -10.465   7.835  1.00  0.00     0.037 C 
BRANCH   7   9
HETATM    9  C   UNL     1      44.114  -9.404   8.940  1.00  0.00    -0.033 A 
HETATM   10  C   UNL     1      43.867  -8.045   8.709  1.00  0.00     0.009 A 
HETATM   11  C   UNL     1      43.356  -7.238   9.726  1.00  0.00     0.003 A 
HETATM   12  C   UNL     1      43.075  -7.776  10.985  1.00  0.00     0.037 A 
HETATM   13  C   UNL     1      43.308  -9.125  11.233  1.00  0.00     0.068 A 
HETATM   14  C   UNL     1      43.827  -9.928  10.213  1.00  0.00     0.046 A 
BRANCH  13  15
HETATM   15  O   UNL     1      43.066  -9.787  12.404  1.00  0.00    -0.356 OA
HETATM   16  C   UNL     1      41.712  -9.854  12.838  1.00  0.00     0.210 C 
ENDBRANCH  13  15
ENDBRANCH   7   9
ENDBRANCH   1   7
BRANCH   4  17
HETATM   17  C   UNL     1      42.373 -14.280   6.296  1.00  0.00     0.153 A 
HETATM   18  N   UNL     1      43.077 -15.266   5.735  1.00  0.00    -0.335 N 
HETATM   19  H   UNL     1      44.056 -15.382   6.005  1.00  0.00     0.168 HD
HETATM   20  C   UNL     1      42.362 -16.040   4.837  1.00  0.00     0.051 A 
HETATM   21  C   UNL     1      41.063 -15.593   4.705  1.00  0.00     0.083 A 
HETATM   22  S   UNL     1      40.743 -14.245   5.729  1.00  0.00    -0.063 SA
BRANCH  20  23
HETATM   23  C   UNL     1      42.932 -17.182   4.128  1.00  0.00    -0.006 A 
HETATM   24  C   UNL     1      42.541 -17.500   2.821  1.00  0.00     0.033 A 
HETATM   25  C   UNL     1      43.109 -18.605   2.205  1.00  0.00     0.117 A 
HETATM   26  N   UNL     1      44.017 -19.401   2.798  1.00  0.00    -0.273 NA
HETATM   27  C   UNL     1      44.385 -19.088   4.053  1.00  0.00     0.117 A 
HETATM   28  C   UNL     1      43.879 -18.002   4.752  1.00  0.00     0.033 A 
ENDBRANCH  20  23
ENDBRANCH   4  17
TORSDOF 5
ENDMDL
MODEL 4
REMARK VINA RESULT:      -7.7      1.310      1.556
REMARK  5 active torsions:
REMARK  status: ('A' for Active; 'I' for Inactive)
REMARK    1  A    between atoms: O_2  and  C_3 
REMARK    2  A    between atoms: C_7  and  C_9 
REMARK    3  A    between atoms: C_9  and  N_11 
REMARK       I    between atoms: N_11  and  C_12 
REMARK       I    between atoms: C_12  and  N_14 
REMARK    4  A    between atoms: N_14  and  C_15 
REMARK    5  A    between atoms: C_18  and  C_21 
ROOT
HETATM    1  N   UNL     1      43.199 -13.647   5.563  1.00  0.00    -0.335 N 
HETATM    2  C   UNL     1      43.184 -12.495   6.268  1.00  0.00     0.322 C 
HETATM    3  O   UNL     1      42.373 -11.589   6.251  1.00  0.00    -0.247 OA
HETATM    4  N   UNL     1      44.302 -12.418   7.102  1.00  0.00    -0.289 N 
HETATM    5  H   UNL     1      43.949 -14.315   5.663  1.00  0.00     0.165 HD
HETATM    6  H   UNL     1      45.033 -13.107   7.135  1.00  0.00     0.172 HD
ENDROOT
BRANCH   1   7
HETATM    7  C   UNL     1      42.209 -13.953   4.536  1.00  0.00     0.115 C 
HETATM    8  C   UNL     1      40.793 -14.061   5.105  1.00  0.00     0.037 C 
BRANCH   7   9
HETATM    9  C   UNL     1      42.642 -15.223   3.827  1.00  0.00    -0.033 A 
HETATM   10  C   UNL     1      42.664 -15.280   2.428  1.00  0.00     0.009 A 
HETATM   11  C   UNL     1      43.119 -16.427   1.775  1.00  0.00     0.003 A 
HETATM   12  C   UNL     1      43.569 -17.529   2.508  1.00  0.00     0.037 A 
HETATM   13  C   UNL     1      43.561 -17.489   3.900  1.00  0.00     0.068 A 
HETATM   14  C   UNL     1      43.096 -16.341   4.548  1.00  0.00     0.046 A 
BRANCH  13  15
HETATM   15  O   UNL     1      43.985 -18.480   4.740  1.00  0.00    -0.356 OA
HETATM   16  C   UNL     1      43.466 -18.467   6.065  1.00  0.00     0.210 C 
ENDBRANCH  13  15
ENDBRANCH   7   9
ENDBRANCH   1   7
BRANCH   4  17
HETATM   17  C   UNL     1      44.497 -11.387   7.905  1.00  0.00     0.153 A 
HETATM   18  N   UNL     1      43.735 -11.029   8.941  1.00  0.00    -0.335 N 
HETATM   19  H   UNL     1      42.909 -11.592   9.158  1.00  0.00     0.168 HD
HETATM   20  C   UNL     1      44.183  -9.911   9.622  1.00  0.00     0.051 A 
HETATM   21  C   UNL     1      45.327  -9.394   9.049  1.00  0.00     0.083 A 
HETATM   22  S   UNL     1      45.847 -10.330   7.700  1.00  0.00    -0.063 SA
BRANCH  20  23
HETATM   23  C   UNL     1      43.513  -9.362  10.798  1.00  0.00    -0.006 A 
HETATM   24  C   UNL     1      43.255  -7.991  10.919  1.00  0.00     0.033 A 
HETATM   25  C   UNL     1      42.626  -7.529  12.065  1.00  0.00     0.117 A 
HETATM   26  N   UNL     1      42.252  -8.328  13.081  1.00  0.00    -0.273 NA
HETATM   27  C   UNL     1      42.505  -9.643  12.955  1.00  0.00     0.117 A 
HETATM   28  C   UNL     1      43.124 -10.202  11.847  1.00  0.00     0.033 A 
ENDBRANCH  20  23
ENDBRANCH   4  17
TORSDOF 5
ENDMDL
MODEL 5
REMARK VINA RESULT:      -7.7      2.499      9.903
REMARK  5 active torsions:
REMARK  status: ('A' for Active; 'I' for Inactive)
REMARK    1  A    between atoms: O_2  and  C_3 
REMARK    2  A    between atoms: C_7  and  C_9 
REMARK    3  A    between atoms: C_9  and  N_11 
REMARK       I    between atoms: N_11  and  C_12 
REMARK       I    between atoms: C_12  and  N_14 
REMARK    4  A    between atoms: N_14  and  C_15 
REMARK    5  A    between atoms: C_18  and  C_21 
ROOT
HETATM    1  N   UNL     1      43.496 -11.355   7.875  1.00  0.00    -0.335 N 
HETATM    2  C   UNL     1      43.416 -12.065   6.729  1.00  0.00     0.322 C 
HETATM    3  O   UNL     1      44.069 -11.960   5.709  1.00  0.00    -0.247 OA
HETATM    4  N   UNL     1      42.408 -13.026   6.818  1.00  0.00    -0.289 N 
HETATM    5  H   UNL     1      42.875 -11.537   8.651  1.00  0.00     0.165 HD
HETATM    6  H   UNL     1      41.801 -13.140   7.612  1.00  0.00     0.172 HD
ENDROOT
BRANCH   1   7
HETATM    7  C   UNL     1      44.391 -10.215   8.034  1.00  0.00     0.115 C 
HETATM    8  C   UNL     1      45.857 -10.636   8.151  1.00  0.00     0.037 C 
BRANCH   7   9
HETATM    9  C   UNL     1      43.925  -9.412   9.235  1.00  0.00    -0.033 A 
HETATM   10  C   UNL     1      44.026  -9.947  10.525  1.00  0.00     0.009 A 
HETATM   11  C   UNL     1      43.655  -9.186  11.635  1.00  0.00     0.003 A 
HETATM   12  C   UNL     1      43.187  -7.879  11.475  1.00  0.00     0.037 A 
HETATM   13  C   UNL     1      43.085  -7.327  10.201  1.00  0.00     0.068 A 
HETATM   14  C   UNL     1      43.452  -8.096   9.092  1.00  0.00     0.046 A 
BRANCH  13  15
HETATM   15  O   UNL     1      42.664  -6.063   9.897  1.00  0.00    -0.356 OA
HETATM   16  C   UNL     1      41.926  -5.903   8.691  1.00  0.00     0.210 C 
ENDBRANCH  13  15
ENDBRANCH   7   9
ENDBRANCH   1   7
BRANCH   4  17
HETATM   17  C   UNL     1      42.152 -13.857   5.823  1.00  0.00     0.153 A 
HETATM   18  N   UNL     1      42.840 -14.957   5.508  1.00  0.00    -0.335 N 
HETATM   19  H   UNL     1      43.652 -15.206   6.077  1.00  0.00     0.168 HD
HETATM   20  C   UNL     1      42.340 -15.653   4.420  1.00  0.00     0.051 A 
HETATM   21  C   UNL     1      41.235 -15.025   3.882  1.00  0.00     0.083 A 
HETATM   22  S   UNL     1      40.813 -13.605   4.762  1.00  0.00    -0.063 SA
BRANCH  20  23
HETATM   23  C   UNL     1      42.925 -16.894   3.920  1.00  0.00    -0.006 A 
HETATM   24  C   UNL     1      43.915 -17.577   4.639  1.00  0.00     0.033 A 
HETATM   25  C   UNL     1      44.441 -18.744   4.106  1.00  0.00     0.117 A 
HETATM   26  N   UNL     1      44.057 -19.259   2.924  1.00  0.00    -0.273 NA
HETATM   27  C   UNL     1      43.108 -18.595   2.241  1.00  0.00     0.117 A 
HETATM   28  C   UNL     1      42.517 -17.424   2.691  1.00  0.00     0.033 A 
ENDBRANCH  20  23
ENDBRANCH   4  17
TORSDOF 5
ENDMDL
MODEL 6
REMARK VINA RESULT:      -7.4      5.790      9.130
REMARK  5 active torsions:
REMARK  status: ('A' for Active; 'I' for Inactive)
REMARK    1  A    between atoms: O_2  and  C_3 
REMARK    2  A    between atoms: C_7  and  C_9 
REMARK    3  A    between atoms: C_9  and  N_11 
REMARK       I    between atoms: N_11  and  C_12 
REMARK       I    between atoms: C_12  and  N_14 
REMARK    4  A    between atoms: N_14  and  C_15 
REMARK    5  A    between atoms: C_18  and  C_21 
ROOT
HETATM    1  N   UNL     1      38.341 -12.209   1.110  1.00  0.00    -0.335 N 
HETATM    2  C   UNL     1      39.425 -12.597   1.814  1.00  0.00     0.322 C 
HETATM    3  O   UNL     1      40.516 -12.068   1.909  1.00  0.00    -0.247 OA
HETATM    4  N   UNL     1      39.166 -13.791   2.491  1.00  0.00    -0.289 N 
HETATM    5  H   UNL     1      37.492 -12.755   1.106  1.00  0.00     0.165 HD
HETATM    6  H   UNL     1      38.305 -14.306   2.423  1.00  0.00     0.172 HD
ENDROOT
BRANCH   1   7
HETATM    7  C   UNL     1      38.353 -11.050   0.224  1.00  0.00     0.115 C 
HETATM    8  C   UNL     1      36.943 -10.584  -0.146  1.00  0.00     0.037 C 
BRANCH   7   9
HETATM    9  C   UNL     1      39.182 -11.399  -0.999  1.00  0.00    -0.033 A 
HETATM   10  C   UNL     1      40.360 -10.694  -1.280  1.00  0.00     0.009 A 
HETATM   11  C   UNL     1      41.154 -11.054  -2.370  1.00  0.00     0.003 A 
HETATM   12  C   UNL     1      40.791 -12.127  -3.189  1.00  0.00     0.037 A 
HETATM   13  C   UNL     1      39.627 -12.843  -2.923  1.00  0.00     0.068 A 
HETATM   14  C   UNL     1      38.831 -12.474  -1.834  1.00  0.00     0.046 A 
BRANCH  13  15
HETATM   15  O   UNL     1      39.160 -13.919  -3.624  1.00  0.00    -0.356 OA
HETATM   16  C   UNL     1      38.621 -14.997  -2.867  1.00  0.00     0.210 C 
ENDBRANCH  13  15
ENDBRANCH   7   9
ENDBRANCH   1   7
BRANCH   4  17
HETATM   17  C   UNL     1      40.075 -14.361   3.264  1.00  0.00     0.153 A 
HETATM   18  N   UNL     1      40.799 -15.445   2.975  1.00  0.00    -0.335 N 
HETATM   19  H   UNL     1      40.657 -15.901   2.071  1.00  0.00     0.168 HD
HETATM   20  C   UNL     1      41.691 -15.817   3.966  1.00  0.00     0.051 A 
HETATM   21  C   UNL     1      41.611 -14.980   5.060  1.00  0.00     0.083 A 
HETATM   22  S   UNL     1      40.458 -13.723   4.822  1.00  0.00    -0.063 SA
BRANCH  20  23
HETATM   23  C   UNL     1      42.595 -16.958   3.847  1.00  0.00    -0.006 A 
HETATM   24  C   UNL     1      43.398 -17.369   4.918  1.00  0.00     0.033 A 
HETATM   25  C   UNL     1      44.245 -18.452   4.741  1.00  0.00     0.117 A 
HETATM   26  N   UNL     1      44.347 -19.133   3.585  1.00  0.00    -0.273 NA
HETATM   27  C   UNL     1      43.572 -18.730   2.562  1.00  0.00     0.117 A 
HETATM   28  C   UNL     1      42.690 -17.663   2.642  1.00  0.00     0.033 A 
ENDBRANCH  20  23
ENDBRANCH   4  17
TORSDOF 5
ENDMDL
MODEL 7
REMARK VINA RESULT:      -7.3      2.103      2.997
REMARK  5 active torsions:
REMARK  status: ('A' for Active; 'I' for Inactive)
REMARK    1  A    between atoms: O_2  and  C_3 
REMARK    2  A    between atoms: C_7  and  C_9 
REMARK    3  A    between atoms: C_9  and  N_11 
REMARK       I    between atoms: N_11  and  C_12 
REMARK       I    between atoms: C_12  and  N_14 
REMARK    4  A    between atoms: N_14  and  C_15 
REMARK    5  A    between atoms: C_18  and  C_21 
ROOT
HETATM    1  N   UNL     1      43.734 -13.968   5.702  1.00  0.00    -0.335 N 
HETATM    2  C   UNL     1      43.848 -13.289   6.863  1.00  0.00     0.322 C 
HETATM    3  O   UNL     1      43.544 -13.630   7.990  1.00  0.00    -0.247 OA
HETATM    4  N   UNL     1      44.394 -12.024   6.638  1.00  0.00    -0.289 N 
HETATM    5  H   UNL     1      44.013 -13.557   4.822  1.00  0.00     0.165 HD
HETATM    6  H   UNL     1      44.627 -11.660   5.730  1.00  0.00     0.172 HD
ENDROOT
BRANCH   1   7
HETATM    7  C   UNL     1      43.100 -15.279   5.616  1.00  0.00     0.115 C 
HETATM    8  C   UNL     1      43.847 -16.342   6.425  1.00  0.00     0.037 C 
BRANCH   7   9
HETATM    9  C   UNL     1      42.982 -15.651   4.149  1.00  0.00    -0.033 A 
HETATM   10  C   UNL     1      43.361 -16.926   3.710  1.00  0.00     0.009 A 
HETATM   11  C   UNL     1      43.195 -17.289   2.372  1.00  0.00     0.003 A 
HETATM   12  C   UNL     1      42.641 -16.391   1.457  1.00  0.00     0.037 A 
HETATM   13  C   UNL     1      42.253 -15.121   1.875  1.00  0.00     0.068 A 
HETATM   14  C   UNL     1      42.428 -14.760   3.214  1.00  0.00     0.046 A 
BRANCH  13  15
HETATM   15  O   UNL     1      41.684 -14.151   1.098  1.00  0.00    -0.356 OA
HETATM   16  C   UNL     1      40.540 -14.523   0.338  1.00  0.00     0.210 C 
ENDBRANCH  13  15
ENDBRANCH   7   9
ENDBRANCH   1   7
BRANCH   4  17
HETATM   17  C   UNL     1      44.619 -11.180   7.630  1.00  0.00     0.153 A 
HETATM   18  N   UNL     1      43.795 -10.906   8.645  1.00  0.00    -0.335 N 
HETATM   19  H   UNL     1      42.892 -11.383   8.683  1.00  0.00     0.168 HD
HETATM   20  C   UNL     1      44.294  -9.990   9.555  1.00  0.00     0.051 A 
HETATM   21  C   UNL     1      45.545  -9.539   9.186  1.00  0.00     0.083 A 
HETATM   22  S   UNL     1      46.096 -10.292   7.739  1.00  0.00    -0.063 SA
BRANCH  20  23
HETATM   23  C   UNL     1      43.568  -9.566  10.749  1.00  0.00    -0.006 A 
HETATM   24  C   UNL     1      43.242  -8.222  10.968  1.00  0.00     0.033 A 
HETATM   25  C   UNL     1      42.563  -7.879  12.127  1.00  0.00     0.117 A 
HETATM   26  N   UNL     1      42.201  -8.772  13.066  1.00  0.00    -0.273 NA
HETATM   27  C   UNL     1      42.520 -10.060  12.848  1.00  0.00     0.117 A 
HETATM   28  C   UNL     1      43.193 -10.502  11.719  1.00  0.00     0.033 A 
ENDBRANCH  20  23
ENDBRANCH   4  17
TORSDOF 5
ENDMDL
MODEL 8
REMARK VINA RESULT:      -7.3      6.306      8.718
REMARK  5 active torsions:
REMARK  status: ('A' for Active; 'I' for Inactive)
REMARK    1  A    between atoms: O_2  and  C_3 
REMARK    2  A    between atoms: C_7  and  C_9 
REMARK    3  A    between atoms: C_9  and  N_11 
REMARK       I    between atoms: N_11  and  C_12 
REMARK       I    between atoms: C_12  and  N_14 
REMARK    4  A    between atoms: N_14  and  C_15 
REMARK    5  A    between atoms: C_18  and  C_21 
ROOT
HETATM    1  N   UNL     1      41.994 -14.551   2.301  1.00  0.00    -0.335 N 
HETATM    2  C   UNL     1      40.817 -14.174   1.758  1.00  0.00     0.322 C 
HETATM    3  O   UNL     1      39.743 -13.986   2.297  1.00  0.00    -0.247 OA
HETATM    4  N   UNL     1      40.946 -14.010   0.377  1.00  0.00    -0.289 N 
HETATM    5  H   UNL     1      42.817 -14.688   1.731  1.00  0.00     0.165 HD
HETATM    6  H   UNL     1      41.789 -14.191  -0.140  1.00  0.00     0.172 HD
ENDROOT
BRANCH   1   7
HETATM    7  C   UNL     1      42.136 -14.896   3.711  1.00  0.00     0.115 C 
HETATM    8  C   UNL     1      42.815 -13.787   4.517  1.00  0.00     0.037 C 
BRANCH   7   9
HETATM    9  C   UNL     1      42.885 -16.213   3.802  1.00  0.00    -0.033 A 
HETATM   10  C   UNL     1      43.686 -16.496   4.916  1.00  0.00     0.009 A 
HETATM   11  C   UNL     1      44.326 -17.732   5.029  1.00  0.00     0.003 A 
HETATM   12  C   UNL     1      44.168 -18.705   4.039  1.00  0.00     0.037 A 
HETATM   13  C   UNL     1      43.372 -18.445   2.927  1.00  0.00     0.068 A 
HETATM   14  C   UNL     1      42.739 -17.203   2.815  1.00  0.00     0.046 A 
BRANCH  13  15
HETATM   15  O   UNL     1      43.116 -19.305   1.895  1.00  0.00    -0.356 OA
HETATM   16  C   UNL     1      43.746 -20.580   1.947  1.00  0.00     0.210 C 
ENDBRANCH  13  15
ENDBRANCH   7   9
ENDBRANCH   1   7
BRANCH   4  17
HETATM   17  C   UNL     1      39.928 -13.625  -0.373  1.00  0.00     0.153 A 
HETATM   18  N   UNL     1      39.162 -12.547  -0.183  1.00  0.00    -0.335 N 
HETATM   19  H   UNL     1      39.361 -11.941   0.616  1.00  0.00     0.168 HD
HETATM   20  C   UNL     1      38.172 -12.375  -1.134  1.00  0.00     0.051 A 
HETATM   21  C   UNL     1      38.184 -13.391  -2.069  1.00  0.00     0.083 A 
HETATM   22  S   UNL     1      39.452 -14.518  -1.772  1.00  0.00    -0.063 SA
BRANCH  20  23
HETATM   23  C   UNL     1      37.238 -11.252  -1.130  1.00  0.00    -0.006 A 
HETATM   24  C   UNL     1      36.645 -10.790  -2.311  1.00  0.00     0.033 A 
HETATM   25  C   UNL     1      35.776  -9.711  -2.244  1.00  0.00     0.117 A 
HETATM   26  N   UNL     1      35.473  -9.072  -1.100  1.00  0.00    -0.273 NA
HETATM   27  C   UNL     1      36.049  -9.523   0.029  1.00  0.00     0.117 A 
HETATM   28  C   UNL     1      36.926 -10.596   0.066  1.00  0.00     0.033 A 
ENDBRANCH  20  23
ENDBRANCH   4  17
TORSDOF 5
ENDMDL
MODEL 9
REMARK VINA RESULT:      -7.2      2.747      9.490
REMARK  5 active torsions:
REMARK  status: ('A' for Active; 'I' for Inactive)
REMARK    1  A    between atoms: O_2  and  C_3 
REMARK    2  A    between atoms: C_7  and  C_9 
REMARK    3  A    between atoms: C_9  and  N_11 
REMARK       I    between atoms: N_11  and  C_12 
REMARK       I    between atoms: C_12  and  N_14 
REMARK    4  A    between atoms: N_14  and  C_15 
REMARK    5  A    between atoms: C_18  and  C_21 
ROOT
HETATM    1  N   UNL     1      43.885 -11.564   8.229  1.00  0.00    -0.335 N 
HETATM    2  C   UNL     1      43.738 -12.185   7.039  1.00  0.00     0.322 C 
HETATM    3  O   UNL     1      43.930 -11.759   5.916  1.00  0.00    -0.247 OA
HETATM    4  N   UNL     1      43.289 -13.494   7.223  1.00  0.00    -0.289 N 
HETATM    5  H   UNL     1      43.674 -12.034   9.098  1.00  0.00     0.165 HD
HETATM    6  H   UNL     1      43.067 -13.897   8.117  1.00  0.00     0.172 HD
ENDROOT
BRANCH   1   7
HETATM    7  C   UNL     1      44.244 -10.155   8.341  1.00  0.00     0.115 C 
HETATM    8  C   UNL     1      45.759  -9.937   8.340  1.00  0.00     0.037 C 
BRANCH   7   9
HETATM    9  C   UNL     1      43.585  -9.598   9.589  1.00  0.00    -0.033 A 
HETATM   10  C   UNL     1      44.355  -9.279  10.715  1.00  0.00     0.009 A 
HETATM   11  C   UNL     1      43.757  -8.710  11.841  1.00  0.00     0.003 A 
HETATM   12  C   UNL     1      42.386  -8.442  11.857  1.00  0.00     0.037 A 
HETATM   13  C   UNL     1      41.604  -8.746  10.746  1.00  0.00     0.068 A 
HETATM   14  C   UNL     1      42.206  -9.323   9.623  1.00  0.00     0.046 A 
BRANCH  13  15
HETATM   15  O   UNL     1      40.262  -8.524  10.614  1.00  0.00    -0.356 OA
HETATM   16  C   UNL     1      39.779  -8.252   9.304  1.00  0.00     0.210 C 
ENDBRANCH  13  15
ENDBRANCH   7   9
ENDBRANCH   1   7
BRANCH   4  17
HETATM   17  C   UNL     1      43.087 -14.308   6.201  1.00  0.00     0.153 A 
HETATM   18  N   UNL     1      42.358 -14.052   5.112  1.00  0.00    -0.335 N 
HETATM   19  H   UNL     1      41.898 -13.143   5.034  1.00  0.00     0.168 HD
HETATM   20  C   UNL     1      42.330 -15.083   4.188  1.00  0.00     0.051 A 
HETATM   21  C   UNL     1      43.057 -16.173   4.623  1.00  0.00     0.083 A 
HETATM   22  S   UNL     1      43.795 -15.882   6.152  1.00  0.00    -0.063 SA
BRANCH  20  23
HETATM   23  C   UNL     1      41.613 -15.005   2.919  1.00  0.00    -0.006 A 
HETATM   24  C   UNL     1      41.865 -13.981   1.997  1.00  0.00     0.033 A 
HETATM   25  C   UNL     1      41.143 -13.954   0.814  1.00  0.00     0.117 A 
HETATM   26  N   UNL     1      40.199 -14.860   0.500  1.00  0.00    -0.273 NA
HETATM   27  C   UNL     1      39.963 -15.839   1.391  1.00  0.00     0.117 A 
HETATM   28  C   UNL     1      40.636 -15.954   2.599  1.00  0.00     0.033 A 
ENDBRANCH  20  23
ENDBRANCH   4  17
TORSDOF 5
ENDMDL
MODEL 10
REMARK VINA RESULT:      -7.2      5.766      9.320
REMARK  5 active torsions:
REMARK  status: ('A' for Active; 'I' for Inactive)
REMARK    1  A    between atoms: O_2  and  C_3 
REMARK    2  A    between atoms: C_7  and  C_9 
REMARK    3  A    between atoms: C_9  and  N_11 
REMARK       I    between atoms: N_11  and  C_12 
REMARK       I    between atoms: C_12  and  N_14 
REMARK    4  A    between atoms: N_14  and  C_15 
REMARK    5  A    between atoms: C_18  and  C_21 
ROOT
HETATM    1  N   UNL     1      39.067 -12.642   1.248  1.00  0.00    -0.335 N 
HETATM    2  C   UNL     1      40.124 -13.170   1.901  1.00  0.00     0.322 C 
HETATM    3  O   UNL     1      41.313 -13.032   1.685  1.00  0.00    -0.247 OA
HETATM    4  N   UNL     1      39.694 -13.981   2.953  1.00  0.00    -0.289 N 
HETATM    5  H   UNL     1      38.118 -12.852   1.526  1.00  0.00     0.165 HD
HETATM    6  H   UNL     1      38.729 -14.175   3.162  1.00  0.00     0.172 HD
ENDROOT
BRANCH   1   7
HETATM    7  C   UNL     1      39.210 -11.835   0.042  1.00  0.00     0.115 C 
HETATM    8  C   UNL     1      38.422 -10.525   0.119  1.00  0.00     0.037 C 
BRANCH   7   9
HETATM    9  C   UNL     1      38.797 -12.684  -1.146  1.00  0.00    -0.033 A 
HETATM   10  C   UNL     1      39.581 -13.775  -1.543  1.00  0.00     0.009 A 
HETATM   11  C   UNL     1      39.171 -14.592  -2.597  1.00  0.00     0.003 A 
HETATM   12  C   UNL     1      37.969 -14.340  -3.264  1.00  0.00     0.037 A 
HETATM   13  C   UNL     1      37.173 -13.263  -2.882  1.00  0.00     0.068 A 
HETATM   14  C   UNL     1      37.593 -12.443  -1.829  1.00  0.00     0.046 A 
BRANCH  13  15
HETATM   15  O   UNL     1      35.972 -12.909  -3.429  1.00  0.00    -0.356 OA
HETATM   16  C   UNL     1      35.647 -11.524  -3.428  1.00  0.00     0.210 C 
ENDBRANCH  13  15
ENDBRANCH   7   9
ENDBRANCH   1   7
BRANCH   4  17
HETATM   17  C   UNL     1      40.551 -14.595   3.750  1.00  0.00     0.153 A 
HETATM   18  N   UNL     1      41.200 -15.734   3.495  1.00  0.00    -0.335 N 
HETATM   19  H   UNL     1      41.036 -16.200   2.600  1.00  0.00     0.168 HD
HETATM   20  C   UNL     1      42.053 -16.144   4.505  1.00  0.00     0.051 A 
HETATM   21  C   UNL     1      42.020 -15.278   5.579  1.00  0.00     0.083 A 
HETATM   22  S   UNL     1      40.961 -13.949   5.298  1.00  0.00    -0.063 SA
BRANCH  20  23
HETATM   23  C   UNL     1      42.876 -17.348   4.423  1.00  0.00    -0.006 A 
HETATM   24  C   UNL     1      43.292 -17.867   3.191  1.00  0.00     0.033 A 
HETATM   25  C   UNL     1      44.061 -19.020   3.178  1.00  0.00     0.117 A 
HETATM   26  N   UNL     1      44.429 -19.680   4.292  1.00  0.00    -0.273 NA
HETATM   27  C   UNL     1      44.023 -19.174   5.470  1.00  0.00     0.117 A 
HETATM   28  C   UNL     1      43.256 -18.025   5.587  1.00  0.00     0.033 A 
ENDBRANCH  20  23
ENDBRANCH   4  17
TORSDOF 5
ENDMDL
