MODEL 1
REMARK VINA RESULT:      -8.7      0.000      0.000
REMARK  8 active torsions:
REMARK  status: ('A' for Active; 'I' for Inactive)
REMARK    1  A    between atoms: C_2  and  C_3 
REMARK    2  A    between atoms: C_3  and  N_4 
REMARK    3  A    between atoms: N_9  and  C_11 
REMARK    4  A    between atoms: C_11  and  C_12 
REMARK    5  A    between atoms: C_14  and  C_15 
REMARK    6  A    between atoms: C_15  and  C_16 
REMARK    7  A    between atoms: C_16  and  C_17 
REMARK    8  A    between atoms: C_17  and  O_18 
ROOT
HETATM    1  N   UNL     1      42.355 -15.690   4.116  1.00  0.00    -0.066 N 
HETATM    2  H   UNL     1      43.012 -16.125   4.777  1.00  0.00     0.280 HD
HETATM    3  C   UNL     1      42.595 -14.197   4.076  1.00  0.00     0.246 C 
HETATM    4  C   UNL     1      42.425 -13.581   5.477  1.00  0.00     0.009 C 
HETATM    5  C   UNL     1      42.642 -12.057   5.420  1.00  0.00     0.246 C 
HETATM    6  N   UNL     1      43.044 -11.677   6.827  1.00  0.00    -0.066 N 
HETATM    7  H   UNL     1      42.195 -11.373   7.331  1.00  0.00     0.280 HD
HETATM    8  C   UNL     1      43.575 -12.907   7.520  1.00  0.00     0.236 C 
HETATM    9  C   UNL     1      43.549 -13.990   6.446  1.00  0.00     0.040 C 
HETATM   10  C   UNL     1      41.023 -13.936   6.019  1.00  0.00     0.014 C 
HETATM   11  C   UNL     1      40.729 -15.438   5.963  1.00  0.00     0.029 C 
HETATM   12  C   UNL     1      40.955 -16.030   4.577  1.00  0.00     0.235 C 
ENDROOT
BRANCH   1  13
HETATM   13  C   UNL     1      42.662 -16.376   2.782  1.00  0.00     0.273 C 
BRANCH  13  14
HETATM   14  C   UNL     1      43.152 -17.790   2.963  1.00  0.00    -0.032 A 
HETATM   15  C   UNL     1      42.824 -18.789   2.029  1.00  0.00     0.012 A 
HETATM   16  C   UNL     1      43.219 -20.111   2.242  1.00  0.00     0.043 A 
HETATM   17  C   UNL     1      43.950 -20.436   3.379  1.00  0.00     0.116 A 
HETATM   18  C   UNL     1      44.306 -19.461   4.301  1.00  0.00     0.043 A 
HETATM   19  F   UNL     1      44.311 -21.707   3.588  1.00  0.00    -0.206 F 
HETATM   20  C   UNL     1      43.911 -18.138   4.095  1.00  0.00     0.012 A 
ENDBRANCH  13  14
ENDBRANCH   1  13
BRANCH   6  21
HETATM   21  C   UNL     1      43.968 -10.476   6.918  1.00  0.00     0.280 C 
BRANCH  21  22
HETATM   22  C   UNL     1      44.242 -10.082   8.329  1.00  0.00     0.009 A 
HETATM   23  S   UNL     1      42.990  -9.382   9.271  1.00  0.00    -0.084 SA
HETATM   24  C   UNL     1      44.004  -9.227  10.634  1.00  0.00     0.058 A 
HETATM   25  C   UNL     1      45.272  -9.703  10.385  1.00  0.00     0.029 A 
HETATM   26  C   UNL     1      45.411 -10.201   9.053  1.00  0.00     0.018 A 
BRANCH  24  27
HETATM   27  C   UNL     1      43.565  -8.668  11.868  1.00  0.00    -0.057 C 
BRANCH  27  28
HETATM   28  C   UNL     1      43.170  -8.205  12.904  1.00  0.00    -0.075 C 
BRANCH  28  29
HETATM   29  C   UNL     1      42.656  -7.661  14.159  1.00  0.00     0.258 C 
BRANCH  29  30
HETATM   30  O   UNL     1      43.574  -6.705  14.666  1.00  0.00    -0.389 OA
HETATM   31  H   UNL     1      44.326  -6.684  14.050  1.00  0.00     0.210 HD
ENDBRANCH  29  30
ENDBRANCH  28  29
ENDBRANCH  27  28
ENDBRANCH  24  27
ENDBRANCH  21  22
ENDBRANCH   6  21
TORSDOF 8
ENDMDL
MODEL 2
REMARK VINA RESULT:      -8.5      5.202     10.920
REMARK  8 active torsions:
REMARK  status: ('A' for Active; 'I' for Inactive)
REMARK    1  A    between atoms: C_2  and  C_3 
REMARK    2  A    between atoms: C_3  and  N_4 
REMARK    3  A    between atoms: N_9  and  C_11 
REMARK    4  A    between atoms: C_11  and  C_12 
REMARK    5  A    between atoms: C_14  and  C_15 
REMARK    6  A    between atoms: C_15  and  C_16 
REMARK    7  A    between atoms: C_16  and  C_17 
REMARK    8  A    between atoms: C_17  and  O_18 
ROOT
HETATM    1  N   UNL     1      44.338  -9.420   8.588  1.00  0.00    -0.066 N 
HETATM    2  H   UNL     1      44.224 -10.184   9.266  1.00  0.00     0.280 HD
HETATM    3  C   UNL     1      43.567  -9.744   7.327  1.00  0.00     0.246 C 
HETATM    4  C   UNL     1      44.055 -11.071   6.718  1.00  0.00     0.009 C 
HETATM    5  C   UNL     1      43.285 -11.376   5.420  1.00  0.00     0.246 C 
HETATM    6  N   UNL     1      43.387 -12.877   5.261  1.00  0.00    -0.066 N 
HETATM    7  H   UNL     1      44.188 -13.080   4.641  1.00  0.00     0.280 HD
HETATM    8  C   UNL     1      43.686 -13.480   6.611  1.00  0.00     0.236 C 
HETATM    9  C   UNL     1      43.669 -12.294   7.570  1.00  0.00     0.040 C 
HETATM   10  C   UNL     1      45.577 -10.984   6.469  1.00  0.00     0.014 C 
HETATM   11  C   UNL     1      46.357 -10.551   7.714  1.00  0.00     0.029 C 
HETATM   12  C   UNL     1      45.820  -9.263   8.325  1.00  0.00     0.235 C 
ENDROOT
BRANCH   1  13
HETATM   13  C   UNL     1      43.789  -8.191   9.320  1.00  0.00     0.273 C 
BRANCH  13  14
HETATM   14  C   UNL     1      43.306  -8.518  10.709  1.00  0.00    -0.032 A 
HETATM   15  C   UNL     1      42.972  -7.494  11.614  1.00  0.00     0.012 A 
HETATM   16  C   UNL     1      42.598  -7.804  12.922  1.00  0.00     0.043 A 
HETATM   17  C   UNL     1      42.544  -9.132  13.327  1.00  0.00     0.116 A 
HETATM   18  C   UNL     1      42.845 -10.159  12.444  1.00  0.00     0.043 A 
HETATM   19  F   UNL     1      42.202  -9.423  14.587  1.00  0.00    -0.206 F 
HETATM   20  C   UNL     1      43.224  -9.857  11.134  1.00  0.00     0.012 A 
ENDBRANCH  13  14
ENDBRANCH   1  13
BRANCH   6  21
HETATM   21  C   UNL     1      42.209 -13.519   4.551  1.00  0.00     0.280 C 
BRANCH  21  22
HETATM   22  C   UNL     1      42.633 -14.621   3.641  1.00  0.00     0.009 A 
HETATM   23  S   UNL     1      42.547 -16.247   4.183  1.00  0.00    -0.084 SA
HETATM   24  C   UNL     1      43.152 -16.847   2.706  1.00  0.00     0.058 A 
HETATM   25  C   UNL     1      43.413 -15.834   1.810  1.00  0.00     0.029 A 
HETATM   26  C   UNL     1      43.110 -14.546   2.348  1.00  0.00     0.018 A 
BRANCH  24  27
HETATM   27  C   UNL     1      43.356 -18.235   2.458  1.00  0.00    -0.057 C 
BRANCH  27  28
HETATM   28  C   UNL     1      43.528 -19.410   2.275  1.00  0.00    -0.075 C 
BRANCH  28  29
HETATM   29  C   UNL     1      43.704 -20.841   2.035  1.00  0.00     0.258 C 
BRANCH  29  30
HETATM   30  O   UNL     1      44.062 -21.479   3.251  1.00  0.00    -0.389 OA
HETATM   31  H   UNL     1      44.378 -20.783   3.851  1.00  0.00     0.210 HD
ENDBRANCH  29  30
ENDBRANCH  28  29
ENDBRANCH  27  28
ENDBRANCH  24  27
ENDBRANCH  21  22
ENDBRANCH   6  21
TORSDOF 8
ENDMDL
MODEL 3
REMARK VINA RESULT:      -7.4      5.674      8.223
REMARK  8 active torsions:
REMARK  status: ('A' for Active; 'I' for Inactive)
REMARK    1  A    between atoms: C_2  and  C_3 
REMARK    2  A    between atoms: C_3  and  N_4 
REMARK    3  A    between atoms: N_9  and  C_11 
REMARK    4  A    between atoms: C_11  and  C_12 
REMARK    5  A    between atoms: C_14  and  C_15 
REMARK    6  A    between atoms: C_15  and  C_16 
REMARK    7  A    between atoms: C_16  and  C_17 
REMARK    8  A    between atoms: C_17  and  O_18 
ROOT
HETATM    1  N   UNL     1      43.256 -15.990   5.736  1.00  0.00    -0.066 N 
HETATM    2  H   UNL     1      43.664 -15.327   6.407  1.00  0.00     0.280 HD
HETATM    3  C   UNL     1      42.711 -15.232   4.545  1.00  0.00     0.246 C 
HETATM    4  C   UNL     1      41.652 -14.208   4.991  1.00  0.00     0.009 C 
HETATM    5  C   UNL     1      41.083 -13.463   3.768  1.00  0.00     0.246 C 
HETATM    6  N   UNL     1      40.562 -12.158   4.327  1.00  0.00    -0.066 N 
HETATM    7  H   UNL     1      39.554 -12.272   4.522  1.00  0.00     0.280 HD
HETATM    8  C   UNL     1      41.257 -11.890   5.639  1.00  0.00     0.236 C 
HETATM    9  C   UNL     1      42.256 -13.033   5.781  1.00  0.00     0.040 C 
HETATM   10  C   UNL     1      40.542 -14.939   5.778  1.00  0.00     0.014 C 
HETATM   11  C   UNL     1      41.093 -15.796   6.921  1.00  0.00     0.029 C 
HETATM   12  C   UNL     1      42.176 -16.764   6.460  1.00  0.00     0.235 C 
ENDROOT
BRANCH   1  13
HETATM   13  C   UNL     1      44.422 -16.912   5.369  1.00  0.00     0.273 C 
BRANCH  13  14
HETATM   14  C   UNL     1      44.030 -17.962   4.362  1.00  0.00    -0.032 A 
HETATM   15  C   UNL     1      44.213 -19.329   4.641  1.00  0.00     0.012 A 
HETATM   16  C   UNL     1      43.916 -20.291   3.674  1.00  0.00     0.043 A 
HETATM   17  C   UNL     1      43.427 -19.895   2.435  1.00  0.00     0.116 A 
HETATM   18  C   UNL     1      43.216 -18.554   2.148  1.00  0.00     0.043 A 
HETATM   19  F   UNL     1      43.162 -20.819   1.506  1.00  0.00    -0.206 F 
HETATM   20  C   UNL     1      43.514 -17.585   3.109  1.00  0.00     0.012 A 
ENDBRANCH  13  14
ENDBRANCH   1  13
BRANCH   6  21
HETATM   21  C   UNL     1      40.613 -10.991   3.358  1.00  0.00     0.280 C 
BRANCH  21  22
HETATM   22  C   UNL     1      40.560 -11.437   1.936  1.00  0.00     0.009 A 
HETATM   23  S   UNL     1      39.407 -12.616   1.462  1.00  0.00    -0.084 SA
HETATM   24  C   UNL     1      39.941 -12.590  -0.158  1.00  0.00     0.058 A 
HETATM   25  C   UNL     1      40.975 -11.699  -0.342  1.00  0.00     0.029 A 
HETATM   26  C   UNL     1      41.332 -11.028   0.868  1.00  0.00     0.018 A 
BRANCH  24  27
HETATM   27  C   UNL     1      39.369 -13.405  -1.177  1.00  0.00    -0.057 C 
BRANCH  27  28
HETATM   28  C   UNL     1      38.908 -14.110  -2.034  1.00  0.00    -0.075 C 
BRANCH  28  29
HETATM   29  C   UNL     1      38.363 -14.944  -3.102  1.00  0.00     0.258 C 
BRANCH  29  30
HETATM   30  O   UNL     1      38.250 -16.281  -2.641  1.00  0.00    -0.389 OA
HETATM   31  H   UNL     1      38.981 -16.780  -3.043  1.00  0.00     0.210 HD
ENDBRANCH  29  30
ENDBRANCH  28  29
ENDBRANCH  27  28
ENDBRANCH  24  27
ENDBRANCH  21  22
ENDBRANCH   6  21
TORSDOF 8
ENDMDL
MODEL 4
REMARK VINA RESULT:      -7.4      5.924      8.962
REMARK  8 active torsions:
REMARK  status: ('A' for Active; 'I' for Inactive)
REMARK    1  A    between atoms: C_2  and  C_3 
REMARK    2  A    between atoms: C_3  and  N_4 
REMARK    3  A    between atoms: N_9  and  C_11 
REMARK    4  A    between atoms: C_11  and  C_12 
REMARK    5  A    between atoms: C_14  and  C_15 
REMARK    6  A    between atoms: C_15  and  C_16 
REMARK    7  A    between atoms: C_16  and  C_17 
REMARK    8  A    between atoms: C_17  and  O_18 
ROOT
HETATM    1  N   UNL     1      43.147 -15.633   5.488  1.00  0.00    -0.066 N 
HETATM    2  H   UNL     1      43.921 -15.719   4.817  1.00  0.00     0.280 HD
HETATM    3  C   UNL     1      41.831 -15.624   4.740  1.00  0.00     0.246 C 
HETATM    4  C   UNL     1      41.789 -14.465   3.728  1.00  0.00     0.009 C 
HETATM    5  C   UNL     1      40.435 -14.447   2.993  1.00  0.00     0.246 C 
HETATM    6  N   UNL     1      40.717 -13.729   1.693  1.00  0.00    -0.066 N 
HETATM    7  H   UNL     1      40.477 -12.732   1.819  1.00  0.00     0.280 HD
HETATM    8  C   UNL     1      42.197 -13.813   1.412  1.00  0.00     0.236 C 
HETATM    9  C   UNL     1      42.750 -14.674   2.543  1.00  0.00     0.040 C 
HETATM   10  C   UNL     1      42.050 -13.136   4.470  1.00  0.00     0.014 C 
HETATM   11  C   UNL     1      43.326 -13.171   5.317  1.00  0.00     0.029 C 
HETATM   12  C   UNL     1      43.363 -14.358   6.272  1.00  0.00     0.235 C 
ENDROOT
BRANCH   1  13
HETATM   13  C   UNL     1      43.305 -16.855   6.396  1.00  0.00     0.273 C 
BRANCH  13  14
HETATM   14  C   UNL     1      43.615 -18.110   5.621  1.00  0.00    -0.032 A 
HETATM   15  C   UNL     1      43.937 -18.048   4.253  1.00  0.00     0.012 A 
HETATM   16  C   UNL     1      44.150 -19.221   3.525  1.00  0.00     0.043 A 
HETATM   17  C   UNL     1      44.054 -20.453   4.161  1.00  0.00     0.116 A 
HETATM   18  C   UNL     1      43.761 -20.535   5.515  1.00  0.00     0.043 A 
HETATM   19  F   UNL     1      44.240 -21.574   3.456  1.00  0.00    -0.206 F 
HETATM   20  C   UNL     1      43.544 -19.367   6.248  1.00  0.00     0.012 A 
ENDBRANCH  13  14
ENDBRANCH   1  13
BRANCH   6  21
HETATM   21  C   UNL     1      39.847 -14.165   0.528  1.00  0.00     0.280 C 
BRANCH  21  22
HETATM   22  C   UNL     1      40.128 -13.381  -0.709  1.00  0.00     0.009 A 
HETATM   23  S   UNL     1      40.251 -11.672  -0.618  1.00  0.00    -0.084 SA
HETATM   24  C   UNL     1      40.553 -11.534  -2.291  1.00  0.00     0.058 A 
HETATM   25  C   UNL     1      40.566 -12.763  -2.912  1.00  0.00     0.029 A 
HETATM   26  C   UNL     1      40.324 -13.833  -1.998  1.00  0.00     0.018 A 
BRANCH  24  27
HETATM   27  C   UNL     1      40.761 -10.283  -2.941  1.00  0.00    -0.057 C 
BRANCH  27  28
HETATM   28  C   UNL     1      40.956  -9.222  -3.471  1.00  0.00    -0.075 C 
BRANCH  28  29
HETATM   29  C   UNL     1      41.167  -7.917  -4.092  1.00  0.00     0.258 C 
BRANCH  29  30
HETATM   30  O   UNL     1      42.459  -7.881  -4.679  1.00  0.00    -0.389 OA
HETATM   31  H   UNL     1      42.351  -8.128  -5.613  1.00  0.00     0.210 HD
ENDBRANCH  29  30
ENDBRANCH  28  29
ENDBRANCH  27  28
ENDBRANCH  24  27
ENDBRANCH  21  22
ENDBRANCH   6  21
TORSDOF 8
ENDMDL
MODEL 5
REMARK VINA RESULT:      -7.3      5.640      8.692
REMARK  8 active torsions:
REMARK  status: ('A' for Active; 'I' for Inactive)
REMARK    1  A    between atoms: C_2  and  C_3 
REMARK    2  A    between atoms: C_3  and  N_4 
REMARK    3  A    between atoms: N_9  and  C_11 
REMARK    4  A    between atoms: C_11  and  C_12 
REMARK    5  A    between atoms: C_14  and  C_15 
REMARK    6  A    between atoms: C_15  and  C_16 
REMARK    7  A    between atoms: C_16  and  C_17 
REMARK    8  A    between atoms: C_17  and  O_18 
ROOT
HETATM    1  N   UNL     1      42.358 -14.384   5.286  1.00  0.00    -0.066 N 
HETATM    2  H   UNL     1      42.896 -14.498   4.418  1.00  0.00     0.280 HD
HETATM    3  C   UNL     1      41.159 -13.499   5.023  1.00  0.00     0.246 C 
HETATM    4  C   UNL     1      41.604 -12.125   4.490  1.00  0.00     0.009 C 
HETATM    5  C   UNL     1      40.379 -11.222   4.254  1.00  0.00     0.246 C 
HETATM    6  N   UNL     1      40.841 -10.215   3.224  1.00  0.00    -0.066 N 
HETATM    7  H   UNL     1      41.163  -9.371   3.724  1.00  0.00     0.280 HD
HETATM    8  C   UNL     1      42.024 -10.794   2.489  1.00  0.00     0.236 C 
HETATM    9  C   UNL     1      42.179 -12.199   3.064  1.00  0.00     0.040 C 
HETATM   10  C   UNL     1      42.594 -11.490   5.492  1.00  0.00     0.014 C 
HETATM   11  C   UNL     1      43.756 -12.422   5.847  1.00  0.00     0.029 C 
HETATM   12  C   UNL     1      43.286 -13.792   6.323  1.00  0.00     0.235 C 
ENDROOT
BRANCH   1  13
HETATM   13  C   UNL     1      41.966 -15.814   5.670  1.00  0.00     0.273 C 
BRANCH  13  14
HETATM   14  C   UNL     1      42.585 -16.843   4.759  1.00  0.00    -0.032 A 
HETATM   15  C   UNL     1      43.456 -17.822   5.269  1.00  0.00     0.012 A 
HETATM   16  C   UNL     1      44.083 -18.725   4.408  1.00  0.00     0.043 A 
HETATM   17  C   UNL     1      43.834 -18.660   3.042  1.00  0.00     0.116 A 
HETATM   18  C   UNL     1      42.959 -17.717   2.521  1.00  0.00     0.043 A 
HETATM   19  F   UNL     1      44.451 -19.515   2.219  1.00  0.00    -0.206 F 
HETATM   20  C   UNL     1      42.331 -16.809   3.376  1.00  0.00     0.012 A 
ENDBRANCH  13  14
ENDBRANCH   1  13
BRANCH   6  21
HETATM   21  C   UNL     1      39.745  -9.698   2.310  1.00  0.00     0.280 C 
BRANCH  21  22
HETATM   22  C   UNL     1      39.738 -10.394   0.991  1.00  0.00     0.009 A 
HETATM   23  S   UNL     1      39.019 -11.946   0.857  1.00  0.00    -0.084 SA
HETATM   24  C   UNL     1      39.387 -12.051  -0.805  1.00  0.00     0.058 A 
HETATM   25  C   UNL     1      40.041 -10.927  -1.257  1.00  0.00     0.029 A 
HETATM   26  C   UNL     1      40.242  -9.965  -0.220  1.00  0.00     0.018 A 
BRANCH  24  27
HETATM   27  C   UNL     1      39.048 -13.180  -1.605  1.00  0.00    -0.057 C 
BRANCH  27  28
HETATM   28  C   UNL     1      38.786 -14.145  -2.272  1.00  0.00    -0.075 C 
BRANCH  28  29
HETATM   29  C   UNL     1      38.430 -15.311  -3.077  1.00  0.00     0.258 C 
BRANCH  29  30
HETATM   30  O   UNL     1      38.303 -16.443  -2.231  1.00  0.00    -0.389 OA
HETATM   31  H   UNL     1      38.218 -17.219  -2.810  1.00  0.00     0.210 HD
ENDBRANCH  29  30
ENDBRANCH  28  29
ENDBRANCH  27  28
ENDBRANCH  24  27
ENDBRANCH  21  22
ENDBRANCH   6  21
TORSDOF 8
ENDMDL
MODEL 6
REMARK VINA RESULT:      -7.1      5.945      9.140
REMARK  8 active torsions:
REMARK  status: ('A' for Active; 'I' for Inactive)
REMARK    1  A    between atoms: C_2  and  C_3 
REMARK    2  A    between atoms: C_3  and  N_4 
REMARK    3  A    between atoms: N_9  and  C_11 
REMARK    4  A    between atoms: C_11  and  C_12 
REMARK    5  A    between atoms: C_14  and  C_15 
REMARK    6  A    between atoms: C_15  and  C_16 
REMARK    7  A    between atoms: C_16  and  C_17 
REMARK    8  A    between atoms: C_17  and  O_18 
ROOT
HETATM    1  N   UNL     1      39.380 -10.723   1.720  1.00  0.00    -0.066 N 
HETATM    2  H   UNL     1      38.744 -11.530   1.761  1.00  0.00     0.280 HD
HETATM    3  C   UNL     1      40.704 -11.091   2.352  1.00  0.00     0.246 C 
HETATM    4  C   UNL     1      40.504 -11.535   3.813  1.00  0.00     0.009 C 
HETATM    5  C   UNL     1      41.861 -11.878   4.456  1.00  0.00     0.246 C 
HETATM    6  N   UNL     1      41.518 -12.824   5.585  1.00  0.00    -0.066 N 
HETATM    7  H   UNL     1      41.431 -12.269   6.453  1.00  0.00     0.280 HD
HETATM    8  C   UNL     1      40.172 -13.441   5.298  1.00  0.00     0.236 C 
HETATM    9  C   UNL     1      39.785 -12.891   3.929  1.00  0.00     0.040 C 
HETATM   10  C   UNL     1      39.775 -10.414   4.587  1.00  0.00     0.014 C 
HETATM   11  C   UNL     1      38.486  -9.959   3.896  1.00  0.00     0.029 C 
HETATM   12  C   UNL     1      38.705  -9.575   2.438  1.00  0.00     0.235 C 
ENDROOT
BRANCH   1  13
HETATM   13  C   UNL     1      39.500 -10.423   0.223  1.00  0.00     0.273 C 
BRANCH  13  14
HETATM   14  C   UNL     1      39.233 -11.637  -0.629  1.00  0.00    -0.032 A 
HETATM   15  C   UNL     1      37.954 -11.872  -1.164  1.00  0.00     0.012 A 
HETATM   16  C   UNL     1      37.696 -13.037  -1.890  1.00  0.00     0.043 A 
HETATM   17  C   UNL     1      38.714 -13.961  -2.093  1.00  0.00     0.116 A 
HETATM   18  C   UNL     1      39.990 -13.736  -1.596  1.00  0.00     0.043 A 
HETATM   19  F   UNL     1      38.458 -15.083  -2.773  1.00  0.00    -0.206 F 
HETATM   20  C   UNL     1      40.254 -12.575  -0.866  1.00  0.00     0.012 A 
ENDBRANCH  13  14
ENDBRANCH   1  13
BRANCH   6  21
HETATM   21  C   UNL     1      42.599 -13.838   5.911  1.00  0.00     0.280 C 
BRANCH  21  22
HETATM   22  C   UNL     1      42.834 -14.791   4.789  1.00  0.00     0.009 A 
HETATM   23  S   UNL     1      42.948 -16.471   5.116  1.00  0.00    -0.084 SA
HETATM   24  C   UNL     1      43.200 -16.846   3.471  1.00  0.00     0.058 A 
HETATM   25  C   UNL     1      43.194 -15.718   2.682  1.00  0.00     0.029 A 
HETATM   26  C   UNL     1      42.979 -14.527   3.442  1.00  0.00     0.018 A 
BRANCH  24  27
HETATM   27  C   UNL     1      43.393 -18.177   2.999  1.00  0.00    -0.057 C 
BRANCH  27  28
HETATM   28  C   UNL     1      43.582 -19.293   2.596  1.00  0.00    -0.075 C 
BRANCH  28  29
HETATM   29  C   UNL     1      43.786 -20.644   2.079  1.00  0.00     0.258 C 
BRANCH  29  30
HETATM   30  O   UNL     1      44.118 -21.511   3.152  1.00  0.00    -0.389 OA
HETATM   31  H   UNL     1      43.308 -21.633   3.676  1.00  0.00     0.210 HD
ENDBRANCH  29  30
ENDBRANCH  28  29
ENDBRANCH  27  28
ENDBRANCH  24  27
ENDBRANCH  21  22
ENDBRANCH   6  21
TORSDOF 8
ENDMDL
MODEL 7
REMARK VINA RESULT:      -7.1      4.036      6.456
REMARK  8 active torsions:
REMARK  status: ('A' for Active; 'I' for Inactive)
REMARK    1  A    between atoms: C_2  and  C_3 
REMARK    2  A    between atoms: C_3  and  N_4 
REMARK    3  A    between atoms: N_9  and  C_11 
REMARK    4  A    between atoms: C_11  and  C_12 
REMARK    5  A    between atoms: C_14  and  C_15 
REMARK    6  A    between atoms: C_15  and  C_16 
REMARK    7  A    between atoms: C_16  and  C_17 
REMARK    8  A    between atoms: C_17  and  O_18 
ROOT
HETATM    1  N   UNL     1      44.677 -11.076   7.350  1.00  0.00    -0.066 N 
HETATM    2  H   UNL     1      44.303 -10.451   6.624  1.00  0.00     0.280 HD
HETATM    3  C   UNL     1      43.923 -10.853   8.644  1.00  0.00     0.246 C 
HETATM    4  C   UNL     1      44.041  -9.386   9.094  1.00  0.00     0.009 C 
HETATM    5  C   UNL     1      43.296  -9.176  10.426  1.00  0.00     0.246 C 
HETATM    6  N   UNL     1      42.967  -7.700  10.450  1.00  0.00    -0.066 N 
HETATM    7  H   UNL     1      43.711  -7.214  10.977  1.00  0.00     0.280 HD
HETATM    8  C   UNL     1      42.995  -7.183   9.033  1.00  0.00     0.236 C 
HETATM    9  C   UNL     1      43.264  -8.419   8.182  1.00  0.00     0.040 C 
HETATM   10  C   UNL     1      45.535  -9.011   9.213  1.00  0.00     0.014 C 
HETATM   11  C   UNL     1      46.329  -9.333   7.944  1.00  0.00     0.029 C 
HETATM   12  C   UNL     1      46.153 -10.778   7.492  1.00  0.00     0.235 C 
ENDROOT
BRANCH   1  13
HETATM   13  C   UNL     1      44.465 -12.480   6.776  1.00  0.00     0.273 C 
BRANCH  13  14
HETATM   14  C   UNL     1      43.721 -12.457   5.465  1.00  0.00    -0.032 A 
HETATM   15  C   UNL     1      43.016 -13.590   5.020  1.00  0.00     0.012 A 
HETATM   16  C   UNL     1      42.391 -13.586   3.771  1.00  0.00     0.043 A 
HETATM   17  C   UNL     1      42.459 -12.452   2.971  1.00  0.00     0.116 A 
HETATM   18  C   UNL     1      43.129 -11.315   3.401  1.00  0.00     0.043 A 
HETATM   19  F   UNL     1      41.876 -12.459   1.768  1.00  0.00    -0.206 F 
HETATM   20  C   UNL     1      43.758 -11.313   4.648  1.00  0.00     0.012 A 
ENDBRANCH  13  14
ENDBRANCH   1  13
BRANCH   6  21
HETATM   21  C   UNL     1      41.699  -7.347  11.206  1.00  0.00     0.280 C 
BRANCH  21  22
HETATM   22  C   UNL     1      41.910  -7.333  12.682  1.00  0.00     0.009 A 
HETATM   23  S   UNL     1      40.615  -7.754  13.726  1.00  0.00    -0.084 SA
HETATM   24  C   UNL     1      41.566  -7.512  15.121  1.00  0.00     0.058 A 
HETATM   25  C   UNL     1      42.849  -7.122  14.805  1.00  0.00     0.029 A 
HETATM   26  C   UNL     1      43.051  -7.021  13.394  1.00  0.00     0.018 A 
BRANCH  24  27
HETATM   27  C   UNL     1      41.067  -7.696  16.442  1.00  0.00    -0.057 C 
BRANCH  27  28
HETATM   28  C   UNL     1      40.623  -7.862  17.546  1.00  0.00    -0.075 C 
BRANCH  28  29
HETATM   29  C   UNL     1      40.049  -8.050  18.877  1.00  0.00     0.258 C 
BRANCH  29  30
HETATM   30  O   UNL     1      40.579  -9.233  19.453  1.00  0.00    -0.389 OA
HETATM   31  H   UNL     1      40.829  -9.014  20.367  1.00  0.00     0.210 HD
ENDBRANCH  29  30
ENDBRANCH  28  29
ENDBRANCH  27  28
ENDBRANCH  24  27
ENDBRANCH  21  22
ENDBRANCH   6  21
TORSDOF 8
ENDMDL
MODEL 8
REMARK VINA RESULT:      -7.1      3.770      4.862
REMARK  8 active torsions:
REMARK  status: ('A' for Active; 'I' for Inactive)
REMARK    1  A    between atoms: C_2  and  C_3 
REMARK    2  A    between atoms: C_3  and  N_4 
REMARK    3  A    between atoms: N_9  and  C_11 
REMARK    4  A    between atoms: C_11  and  C_12 
REMARK    5  A    between atoms: C_14  and  C_15 
REMARK    6  A    between atoms: C_15  and  C_16 
REMARK    7  A    between atoms: C_16  and  C_17 
REMARK    8  A    between atoms: C_17  and  O_18 
ROOT
HETATM    1  N   UNL     1      41.319 -14.948   2.132  1.00  0.00    -0.066 N 
HETATM    2  H   UNL     1      41.985 -14.466   1.515  1.00  0.00     0.280 HD
HETATM    3  C   UNL     1      40.909 -14.021   3.255  1.00  0.00     0.246 C 
HETATM    4  C   UNL     1      42.140 -13.562   4.057  1.00  0.00     0.009 C 
HETATM    5  C   UNL     1      41.709 -12.642   5.216  1.00  0.00     0.246 C 
HETATM    6  N   UNL     1      42.937 -11.815   5.522  1.00  0.00    -0.066 N 
HETATM    7  H   UNL     1      43.448 -12.274   6.293  1.00  0.00     0.280 HD
HETATM    8  C   UNL     1      43.832 -11.822   4.308  1.00  0.00     0.236 C 
HETATM    9  C   UNL     1      43.047 -12.606   3.261  1.00  0.00     0.040 C 
HETATM   10  C   UNL     1      42.901 -14.804   4.571  1.00  0.00     0.014 C 
HETATM   11  C   UNL     1      43.226 -15.802   3.456  1.00  0.00     0.029 C 
HETATM   12  C   UNL     1      41.998 -16.199   2.646  1.00  0.00     0.235 C 
ENDROOT
BRANCH   1  13
HETATM   13  C   UNL     1      40.154 -15.312   1.207  1.00  0.00     0.273 C 
BRANCH  13  14
HETATM   14  C   UNL     1      40.119 -14.460  -0.035  1.00  0.00    -0.032 A 
HETATM   15  C   UNL     1      40.760 -13.208  -0.066  1.00  0.00     0.012 A 
HETATM   16  C   UNL     1      40.660 -12.392  -1.195  1.00  0.00     0.043 A 
HETATM   17  C   UNL     1      39.933 -12.827  -2.297  1.00  0.00     0.116 A 
HETATM   18  C   UNL     1      39.314 -14.069  -2.297  1.00  0.00     0.043 A 
HETATM   19  F   UNL     1      39.825 -12.035  -3.369  1.00  0.00    -0.206 F 
HETATM   20  C   UNL     1      39.407 -14.889  -1.169  1.00  0.00     0.012 A 
ENDBRANCH  13  14
ENDBRANCH   1  13
BRANCH   6  21
HETATM   21  C   UNL     1      42.645 -10.426   6.059  1.00  0.00     0.280 C 
BRANCH  21  22
HETATM   22  C   UNL     1      43.165 -10.237   7.444  1.00  0.00     0.009 A 
HETATM   23  S   UNL     1      42.318  -9.218   8.534  1.00  0.00    -0.084 SA
HETATM   24  C   UNL     1      43.444  -9.500   9.784  1.00  0.00     0.058 A 
HETATM   25  C   UNL     1      44.446 -10.357   9.387  1.00  0.00     0.029 A 
HETATM   26  C   UNL     1      44.285 -10.787   8.034  1.00  0.00     0.018 A 
BRANCH  24  27
HETATM   27  C   UNL     1      43.337  -8.905  11.074  1.00  0.00    -0.057 C 
BRANCH  27  28
HETATM   28  C   UNL     1      43.266  -8.386  12.155  1.00  0.00    -0.075 C 
BRANCH  28  29
HETATM   29  C   UNL     1      43.169  -7.788  13.485  1.00  0.00     0.258 C 
BRANCH  29  30
HETATM   30  O   UNL     1      42.427  -8.650  14.333  1.00  0.00    -0.389 OA
HETATM   31  H   UNL     1      41.570  -8.802  13.899  1.00  0.00     0.210 HD
ENDBRANCH  29  30
ENDBRANCH  28  29
ENDBRANCH  27  28
ENDBRANCH  24  27
ENDBRANCH  21  22
ENDBRANCH   6  21
TORSDOF 8
ENDMDL
MODEL 9
REMARK VINA RESULT:      -7.1      5.270     10.640
REMARK  8 active torsions:
REMARK  status: ('A' for Active; 'I' for Inactive)
REMARK    1  A    between atoms: C_2  and  C_3 
REMARK    2  A    between atoms: C_3  and  N_4 
REMARK    3  A    between atoms: N_9  and  C_11 
REMARK    4  A    between atoms: C_11  and  C_12 
REMARK    5  A    between atoms: C_14  and  C_15 
REMARK    6  A    between atoms: C_15  and  C_16 
REMARK    7  A    between atoms: C_16  and  C_17 
REMARK    8  A    between atoms: C_17  and  O_18 
ROOT
HETATM    1  N   UNL     1      42.718  -9.087   7.589  1.00  0.00    -0.066 N 
HETATM    2  H   UNL     1      42.617  -8.336   6.895  1.00  0.00     0.280 HD
HETATM    3  C   UNL     1      43.060 -10.382   6.884  1.00  0.00     0.246 C 
HETATM    4  C   UNL     1      41.970 -10.748   5.861  1.00  0.00     0.009 C 
HETATM    5  C   UNL     1      42.312 -12.082   5.171  1.00  0.00     0.246 C 
HETATM    6  N   UNL     1      41.571 -12.031   3.854  1.00  0.00    -0.066 N 
HETATM    7  H   UNL     1      40.666 -12.514   3.977  1.00  0.00     0.280 HD
HETATM    8  C   UNL     1      41.281 -10.587   3.526  1.00  0.00     0.236 C 
HETATM    9  C   UNL     1      41.951  -9.800   4.648  1.00  0.00     0.040 C 
HETATM   10  C   UNL     1      40.604 -10.813   6.579  1.00  0.00     0.014 C 
HETATM   11  C   UNL     1      40.297  -9.547   7.384  1.00  0.00     0.029 C 
HETATM   12  C   UNL     1      41.415  -9.181   8.352  1.00  0.00     0.235 C 
ENDROOT
BRANCH   1  13
HETATM   13  C   UNL     1      43.843  -8.596   8.505  1.00  0.00     0.273 C 
BRANCH  13  14
HETATM   14  C   UNL     1      43.547  -8.847   9.962  1.00  0.00    -0.032 A 
HETATM   15  C   UNL     1      43.648 -10.141  10.503  1.00  0.00     0.012 A 
HETATM   16  C   UNL     1      43.300 -10.377  11.834  1.00  0.00     0.043 A 
HETATM   17  C   UNL     1      42.863  -9.324  12.630  1.00  0.00     0.116 A 
HETATM   18  C   UNL     1      42.780  -8.035  12.122  1.00  0.00     0.043 A 
HETATM   19  F   UNL     1      42.514  -9.558  13.899  1.00  0.00    -0.206 F 
HETATM   20  C   UNL     1      43.123  -7.792  10.791  1.00  0.00     0.012 A 
ENDBRANCH  13  14
ENDBRANCH   1  13
BRANCH   6  21
HETATM   21  C   UNL     1      42.237 -12.793   2.724  1.00  0.00     0.280 C 
BRANCH  21  22
HETATM   22  C   UNL     1      42.085 -14.269   2.874  1.00  0.00     0.009 A 
HETATM   23  S   UNL     1      43.209 -15.317   2.112  1.00  0.00    -0.084 SA
HETATM   24  C   UNL     1      42.420 -16.709   2.704  1.00  0.00     0.058 A 
HETATM   25  C   UNL     1      41.323 -16.388   3.471  1.00  0.00     0.029 A 
HETATM   26  C   UNL     1      41.129 -14.977   3.574  1.00  0.00     0.018 A 
BRANCH  24  27
HETATM   27  C   UNL     1      42.864 -18.033   2.420  1.00  0.00    -0.057 C 
BRANCH  27  28
HETATM   28  C   UNL     1      43.223 -19.149   2.159  1.00  0.00    -0.075 C 
BRANCH  28  29
HETATM   29  C   UNL     1      43.622 -20.518   1.839  1.00  0.00     0.258 C 
BRANCH  29  30
HETATM   30  O   UNL     1      43.902 -21.217   3.042  1.00  0.00    -0.389 OA
HETATM   31  H   UNL     1      44.577 -20.703   3.515  1.00  0.00     0.210 HD
ENDBRANCH  29  30
ENDBRANCH  28  29
ENDBRANCH  27  28
ENDBRANCH  24  27
ENDBRANCH  21  22
ENDBRANCH   6  21
TORSDOF 8
ENDMDL
MODEL 10
REMARK VINA RESULT:      -7.0      1.534      2.495
REMARK  8 active torsions:
REMARK  status: ('A' for Active; 'I' for Inactive)
REMARK    1  A    between atoms: C_2  and  C_3 
REMARK    2  A    between atoms: C_3  and  N_4 
REMARK    3  A    between atoms: N_9  and  C_11 
REMARK    4  A    between atoms: C_11  and  C_12 
REMARK    5  A    between atoms: C_14  and  C_15 
REMARK    6  A    between atoms: C_15  and  C_16 
REMARK    7  A    between atoms: C_16  and  C_17 
REMARK    8  A    between atoms: C_17  and  O_18 
ROOT
HETATM    1  N   UNL     1      41.609 -13.871   4.567  1.00  0.00    -0.066 N 
HETATM    2  H   UNL     1      40.900 -13.279   5.018  1.00  0.00     0.280 HD
HETATM    3  C   UNL     1      42.892 -13.821   5.368  1.00  0.00     0.246 C 
HETATM    4  C   UNL     1      43.404 -12.374   5.483  1.00  0.00     0.009 C 
HETATM    5  C   UNL     1      44.725 -12.337   6.274  1.00  0.00     0.246 C 
HETATM    6  N   UNL     1      44.800 -10.930   6.824  1.00  0.00    -0.066 N 
HETATM    7  H   UNL     1      45.364 -10.361   6.172  1.00  0.00     0.280 HD
HETATM    8  C   UNL     1      43.406 -10.354   6.851  1.00  0.00     0.236 C 
HETATM    9  C   UNL     1      42.513 -11.497   6.381  1.00  0.00     0.040 C 
HETATM   10  C   UNL     1      43.573 -11.783   4.066  1.00  0.00     0.014 C 
HETATM   11  C   UNL     1      42.311 -11.926   3.210  1.00  0.00     0.029 C 
HETATM   12  C   UNL     1      41.798 -13.360   3.156  1.00  0.00     0.235 C 
ENDROOT
BRANCH   1  13
HETATM   13  C   UNL     1      40.973 -15.265   4.553  1.00  0.00     0.273 C 
BRANCH  13  14
HETATM   14  C   UNL     1      41.929 -16.327   4.074  1.00  0.00    -0.032 A 
HETATM   15  C   UNL     1      42.881 -16.884   4.947  1.00  0.00     0.012 A 
HETATM   16  C   UNL     1      43.811 -17.812   4.476  1.00  0.00     0.043 A 
HETATM   17  C   UNL     1      43.787 -18.195   3.140  1.00  0.00     0.116 A 
HETATM   18  C   UNL     1      42.840 -17.677   2.267  1.00  0.00     0.043 A 
HETATM   19  F   UNL     1      44.691 -19.071   2.690  1.00  0.00    -0.206 F 
HETATM   20  C   UNL     1      41.909 -16.745   2.731  1.00  0.00     0.012 A 
ENDBRANCH  13  14
ENDBRANCH   1  13
BRANCH   6  21
HETATM   21  C   UNL     1      45.539 -10.806   8.144  1.00  0.00     0.280 C 
BRANCH  21  22
HETATM   22  C   UNL     1      44.882  -9.838   9.068  1.00  0.00     0.009 A 
HETATM   23  S   UNL     1      44.410 -10.353  10.636  1.00  0.00    -0.084 SA
HETATM   24  C   UNL     1      43.790  -8.814  11.032  1.00  0.00     0.058 A 
HETATM   25  C   UNL     1      43.940  -7.919   9.996  1.00  0.00     0.029 A 
HETATM   26  C   UNL     1      44.575  -8.509   8.860  1.00  0.00     0.018 A 
BRANCH  24  27
HETATM   27  C   UNL     1      43.191  -8.519  12.290  1.00  0.00    -0.057 C 
BRANCH  27  28
HETATM   28  C   UNL     1      42.663  -8.263  13.339  1.00  0.00    -0.075 C 
BRANCH  28  29
HETATM   29  C   UNL     1      42.048  -7.973  14.632  1.00  0.00     0.258 C 
BRANCH  29  30
HETATM   30  O   UNL     1      40.645  -7.843  14.464  1.00  0.00    -0.389 OA
HETATM   31  H   UNL     1      40.484  -6.945  14.127  1.00  0.00     0.210 HD
ENDBRANCH  29  30
ENDBRANCH  28  29
ENDBRANCH  27  28
ENDBRANCH  24  27
ENDBRANCH  21  22
ENDBRANCH   6  21
TORSDOF 8
ENDMDL
