MODEL 1
REMARK VINA RESULT:      -9.0      0.000      0.000
REMARK  6 active torsions:
REMARK  status: ('A' for Active; 'I' for Inactive)
REMARK    1  A    between atoms: N_4  and  C_5 
REMARK    2  A    between atoms: C_13  and  C_14 
REMARK       I    between atoms: C_14  and  N_15 
REMARK    3  A    between atoms: N_15  and  C_16 
REMARK    4  A    between atoms: C_16  and  C_17 
REMARK    5  A    between atoms: C_17  and  O_18 
REMARK    6  A    between atoms: C_17  and  C_19 
ROOT
HETATM    1  C   UNL     1      42.765 -13.496   5.406  1.00  0.00     0.257 C 
HETATM    2  N   UNL     1      43.818 -12.613   5.413  1.00  0.00    -0.354 N 
HETATM    3  O   UNL     1      41.737 -13.246   6.033  1.00  0.00    -0.267 OA
HETATM    4  H   UNL     1      44.657 -12.847   4.896  1.00  0.00     0.162 HD
ENDROOT
BRANCH   1   5
HETATM    5  C   UNL     1      42.914 -14.708   4.619  1.00  0.00     0.098 C 
HETATM    6  C   UNL     1      43.073 -14.774   3.209  1.00  0.00     0.070 C 
HETATM    7  C   UNL     1      43.119 -13.647   2.237  1.00  0.00     0.073 C 
HETATM    8  N   UNL     1      43.143 -16.029   2.762  1.00  0.00    -0.170 NA
HETATM    9  N   UNL     1      43.147 -16.815   3.876  1.00  0.00    -0.221 N 
HETATM   10  C   UNL     1      42.907 -16.036   5.000  1.00  0.00     0.145 C 
HETATM   11 CL   UNL     1      42.544 -16.712   6.531  1.00  0.00    -0.061 Cl
BRANCH   9  12
HETATM   12  C   UNL     1      43.405 -18.213   3.711  1.00  0.00     0.060 A 
HETATM   13  C   UNL     1      43.939 -19.012   4.729  1.00  0.00     0.031 A 
HETATM   14  C   UNL     1      44.188 -20.371   4.504  1.00  0.00     0.002 A 
HETATM   15  C   UNL     1      43.918 -20.943   3.262  1.00  0.00     0.000 A 
HETATM   16  C   UNL     1      43.409 -20.155   2.235  1.00  0.00     0.002 A 
HETATM   17  C   UNL     1      43.161 -18.798   2.455  1.00  0.00     0.031 A 
ENDBRANCH   9  12
ENDBRANCH   1   5
BRANCH   2  18
HETATM   18  C   UNL     1      43.818 -11.408   6.236  1.00  0.00     0.159 C 
BRANCH  18  19
HETATM   19  C   UNL     1      45.040 -11.301   7.179  1.00  0.00     0.169 C 
BRANCH  19  20
HETATM   20  O   UNL     1      46.133 -10.598   6.584  1.00  0.00    -0.389 OA
HETATM   21  H   UNL     1      45.768  -9.907   5.994  1.00  0.00     0.210 HD
ENDBRANCH  19  20
BRANCH  19  22
HETATM   22  C   UNL     1      44.668 -10.583   8.462  1.00  0.00    -0.025 A 
HETATM   23  C   UNL     1      43.337 -10.211   8.705  1.00  0.00     0.053 A 
HETATM   24  C   UNL     1      43.002  -9.534   9.878  1.00  0.00     0.138 A 
HETATM   25  F   UNL     1      41.718  -9.191  10.073  1.00  0.00    -0.204 F 
HETATM   26  C   UNL     1      43.975  -9.215  10.821  1.00  0.00     0.072 A 
HETATM   27 CL   UNL     1      43.559  -8.378  12.267  1.00  0.00    -0.081 Cl
HETATM   28  C   UNL     1      45.300  -9.572  10.592  1.00  0.00     0.028 A 
HETATM   29  C   UNL     1      45.644 -10.249   9.418  1.00  0.00     0.012 A 
ENDBRANCH  19  22
ENDBRANCH  18  19
ENDBRANCH   2  18
TORSDOF 6
ENDMDL
MODEL 2
REMARK VINA RESULT:      -9.0      3.788      9.018
REMARK  6 active torsions:
REMARK  status: ('A' for Active; 'I' for Inactive)
REMARK    1  A    between atoms: N_4  and  C_5 
REMARK    2  A    between atoms: C_13  and  C_14 
REMARK       I    between atoms: C_14  and  N_15 
REMARK    3  A    between atoms: N_15  and  C_16 
REMARK    4  A    between atoms: C_16  and  C_17 
REMARK    5  A    between atoms: C_17  and  O_18 
REMARK    6  A    between atoms: C_17  and  C_19 
ROOT
HETATM    1  C   UNL     1      41.730 -14.167   4.800  1.00  0.00     0.257 C 
HETATM    2  N   UNL     1      42.414 -14.617   3.696  1.00  0.00    -0.354 N 
HETATM    3  O   UNL     1      40.530 -14.401   4.929  1.00  0.00    -0.267 OA
HETATM    4  H   UNL     1      43.400 -14.403   3.609  1.00  0.00     0.162 HD
ENDROOT
BRANCH   1   5
HETATM    5  C   UNL     1      42.485 -13.433   5.801  1.00  0.00     0.098 C 
HETATM    6  C   UNL     1      43.116 -13.991   6.945  1.00  0.00     0.070 C 
HETATM    7  C   UNL     1      43.145 -15.415   7.375  1.00  0.00     0.073 C 
HETATM    8  N   UNL     1      43.700 -13.064   7.707  1.00  0.00    -0.170 NA
HETATM    9  N   UNL     1      43.568 -11.892   7.024  1.00  0.00    -0.221 N 
HETATM   10  C   UNL     1      42.747 -12.082   5.920  1.00  0.00     0.145 C 
HETATM   11 CL   UNL     1      42.115 -10.781   5.004  1.00  0.00    -0.061 Cl
BRANCH   9  12
HETATM   12  C   UNL     1      44.269 -10.744   7.514  1.00  0.00     0.060 A 
HETATM   13  C   UNL     1      45.661 -10.616   7.442  1.00  0.00     0.031 A 
HETATM   14  C   UNL     1      46.293  -9.478   7.956  1.00  0.00     0.002 A 
HETATM   15  C   UNL     1      45.549  -8.466   8.557  1.00  0.00     0.000 A 
HETATM   16  C   UNL     1      44.167  -8.592   8.657  1.00  0.00     0.002 A 
HETATM   17  C   UNL     1      43.531  -9.726   8.147  1.00  0.00     0.031 A 
ENDBRANCH   9  12
ENDBRANCH   1   5
BRANCH   2  18
HETATM   18  C   UNL     1      41.744 -15.287   2.586  1.00  0.00     0.159 C 
BRANCH  18  19
HETATM   19  C   UNL     1      42.676 -16.212   1.767  1.00  0.00     0.169 C 
BRANCH  19  20
HETATM   20  O   UNL     1      43.814 -15.522   1.245  1.00  0.00    -0.389 OA
HETATM   21  H   UNL     1      44.414 -16.183   0.840  1.00  0.00     0.210 HD
ENDBRANCH  19  20
BRANCH  19  22
HETATM   22  C   UNL     1      43.179 -17.360   2.620  1.00  0.00    -0.025 A 
HETATM   23  C   UNL     1      43.163 -18.673   2.123  1.00  0.00     0.053 A 
HETATM   24  C   UNL     1      43.608 -19.729   2.918  1.00  0.00     0.138 A 
HETATM   25  F   UNL     1      43.574 -20.970   2.409  1.00  0.00    -0.204 F 
HETATM   26  C   UNL     1      44.071 -19.503   4.212  1.00  0.00     0.072 A 
HETATM   27 CL   UNL     1      44.619 -20.808   5.192  1.00  0.00    -0.081 Cl
HETATM   28  C   UNL     1      44.088 -18.208   4.721  1.00  0.00     0.028 A 
HETATM   29  C   UNL     1      43.641 -17.144   3.931  1.00  0.00     0.012 A 
ENDBRANCH  19  22
ENDBRANCH  18  19
ENDBRANCH   2  18
TORSDOF 6
ENDMDL
MODEL 3
REMARK VINA RESULT:      -8.8      3.710      8.890
REMARK  6 active torsions:
REMARK  status: ('A' for Active; 'I' for Inactive)
REMARK    1  A    between atoms: N_4  and  C_5 
REMARK    2  A    between atoms: C_13  and  C_14 
REMARK       I    between atoms: C_14  and  N_15 
REMARK    3  A    between atoms: N_15  and  C_16 
REMARK    4  A    between atoms: C_16  and  C_17 
REMARK    5  A    between atoms: C_17  and  O_18 
REMARK    6  A    between atoms: C_17  and  C_19 
ROOT
HETATM    1  C   UNL     1      41.565 -13.955   4.497  1.00  0.00     0.257 C 
HETATM    2  N   UNL     1      42.058 -14.270   3.253  1.00  0.00    -0.354 N 
HETATM    3  O   UNL     1      40.720 -14.670   5.032  1.00  0.00    -0.267 OA
HETATM    4  H   UNL     1      42.746 -13.660   2.830  1.00  0.00     0.162 HD
ENDROOT
BRANCH   1   5
HETATM    5  C   UNL     1      42.096 -12.770   5.146  1.00  0.00     0.098 C 
HETATM    6  C   UNL     1      41.673 -11.433   4.920  1.00  0.00     0.070 C 
HETATM    7  C   UNL     1      40.618 -10.949   3.988  1.00  0.00     0.073 C 
HETATM    8  N   UNL     1      42.375 -10.548   5.631  1.00  0.00    -0.170 NA
HETATM    9  N   UNL     1      43.198 -11.289   6.426  1.00  0.00    -0.221 N 
HETATM   10  C   UNL     1      43.113 -12.628   6.071  1.00  0.00     0.145 C 
HETATM   11 CL   UNL     1      44.216 -13.807   6.642  1.00  0.00    -0.061 Cl
BRANCH   9  12
HETATM   12  C   UNL     1      43.943 -10.609   7.441  1.00  0.00     0.060 A 
HETATM   13  C   UNL     1      43.339  -9.981   8.537  1.00  0.00     0.031 A 
HETATM   14  C   UNL     1      44.119  -9.313   9.488  1.00  0.00     0.002 A 
HETATM   15  C   UNL     1      45.504  -9.255   9.352  1.00  0.00     0.000 A 
HETATM   16  C   UNL     1      46.115  -9.855   8.256  1.00  0.00     0.002 A 
HETATM   17  C   UNL     1      45.341 -10.520   7.303  1.00  0.00     0.031 A 
ENDBRANCH   9  12
ENDBRANCH   1   5
BRANCH   2  18
HETATM   18  C   UNL     1      41.536 -15.385   2.469  1.00  0.00     0.159 C 
BRANCH  18  19
HETATM   19  C   UNL     1      42.633 -16.190   1.731  1.00  0.00     0.169 C 
BRANCH  19  20
HETATM   20  O   UNL     1      43.752 -15.383   1.362  1.00  0.00    -0.389 OA
HETATM   21  H   UNL     1      44.527 -15.674   1.887  1.00  0.00     0.210 HD
ENDBRANCH  19  20
BRANCH  19  22
HETATM   22  C   UNL     1      43.142 -17.324   2.599  1.00  0.00    -0.025 A 
HETATM   23  C   UNL     1      43.161 -18.639   2.110  1.00  0.00     0.053 A 
HETATM   24  C   UNL     1      43.612 -19.682   2.919  1.00  0.00     0.138 A 
HETATM   25  F   UNL     1      43.612 -20.927   2.415  1.00  0.00    -0.204 F 
HETATM   26  C   UNL     1      44.048 -19.440   4.219  1.00  0.00     0.072 A 
HETATM   27 CL   UNL     1      44.604 -20.729   5.216  1.00  0.00    -0.081 Cl
HETATM   28  C   UNL     1      44.030 -18.142   4.722  1.00  0.00     0.028 A 
HETATM   29  C   UNL     1      43.576 -17.092   3.917  1.00  0.00     0.012 A 
ENDBRANCH  19  22
ENDBRANCH  18  19
ENDBRANCH   2  18
TORSDOF 6
ENDMDL
MODEL 4
REMARK VINA RESULT:      -8.6      5.254      7.937
REMARK  6 active torsions:
REMARK  status: ('A' for Active; 'I' for Inactive)
REMARK    1  A    between atoms: N_4  and  C_5 
REMARK    2  A    between atoms: C_13  and  C_14 
REMARK       I    between atoms: C_14  and  N_15 
REMARK    3  A    between atoms: N_15  and  C_16 
REMARK    4  A    between atoms: C_16  and  C_17 
REMARK    5  A    between atoms: C_17  and  O_18 
REMARK    6  A    between atoms: C_17  and  C_19 
ROOT
HETATM    1  C   UNL     1      41.791 -14.448   5.179  1.00  0.00     0.257 C 
HETATM    2  N   UNL     1      41.395 -15.643   5.730  1.00  0.00    -0.354 N 
HETATM    3  O   UNL     1      42.673 -13.777   5.711  1.00  0.00    -0.267 OA
HETATM    4  H   UNL     1      40.660 -16.172   5.276  1.00  0.00     0.162 HD
ENDROOT
BRANCH   1   5
HETATM    5  C   UNL     1      41.144 -14.033   3.947  1.00  0.00     0.098 C 
HETATM    6  C   UNL     1      40.062 -13.118   3.839  1.00  0.00     0.070 C 
HETATM    7  C   UNL     1      39.358 -12.396   4.933  1.00  0.00     0.073 C 
HETATM    8  N   UNL     1      39.649 -12.964   2.579  1.00  0.00    -0.170 NA
HETATM    9  N   UNL     1      40.521 -13.683   1.817  1.00  0.00    -0.221 N 
HETATM   10  C   UNL     1      41.367 -14.416   2.638  1.00  0.00     0.145 C 
HETATM   11 CL   UNL     1      42.386 -15.656   2.042  1.00  0.00    -0.061 Cl
BRANCH   9  12
HETATM   12  C   UNL     1      40.437 -13.552   0.394  1.00  0.00     0.060 A 
HETATM   13  C   UNL     1      40.930 -12.439  -0.297  1.00  0.00     0.031 A 
HETATM   14  C   UNL     1      40.802 -12.357  -1.689  1.00  0.00     0.002 A 
HETATM   15  C   UNL     1      40.173 -13.375  -2.402  1.00  0.00     0.000 A 
HETATM   16  C   UNL     1      39.657 -14.475  -1.725  1.00  0.00     0.002 A 
HETATM   17  C   UNL     1      39.781 -14.560  -0.336  1.00  0.00     0.031 A 
ENDBRANCH   9  12
ENDBRANCH   1   5
BRANCH   2  18
HETATM   18  C   UNL     1      41.911 -16.118   7.009  1.00  0.00     0.159 C 
BRANCH  18  19
HETATM   19  C   UNL     1      43.404 -16.522   6.965  1.00  0.00     0.169 C 
BRANCH  19  20
HETATM   20  O   UNL     1      43.924 -16.847   8.255  1.00  0.00    -0.389 OA
HETATM   21  H   UNL     1      44.048 -17.818   8.300  1.00  0.00     0.210 HD
ENDBRANCH  19  20
BRANCH  19  22
HETATM   22  C   UNL     1      43.610 -17.724   6.063  1.00  0.00    -0.025 A 
HETATM   23  C   UNL     1      43.936 -17.548   4.710  1.00  0.00     0.053 A 
HETATM   24  C   UNL     1      44.105 -18.656   3.880  1.00  0.00     0.138 A 
HETATM   25  F   UNL     1      44.414 -18.447   2.590  1.00  0.00    -0.204 F 
HETATM   26  C   UNL     1      43.951 -19.949   4.374  1.00  0.00     0.072 A 
HETATM   27 CL   UNL     1      44.160 -21.316   3.348  1.00  0.00    -0.081 Cl
HETATM   28  C   UNL     1      43.622 -20.140   5.713  1.00  0.00     0.028 A 
HETATM   29  C   UNL     1      43.448 -19.034   6.551  1.00  0.00     0.012 A 
ENDBRANCH  19  22
ENDBRANCH  18  19
ENDBRANCH   2  18
TORSDOF 6
ENDMDL
MODEL 5
REMARK VINA RESULT:      -8.6      2.308      3.512
REMARK  6 active torsions:
REMARK  status: ('A' for Active; 'I' for Inactive)
REMARK    1  A    between atoms: N_4  and  C_5 
REMARK    2  A    between atoms: C_13  and  C_14 
REMARK       I    between atoms: C_14  and  N_15 
REMARK    3  A    between atoms: N_15  and  C_16 
REMARK    4  A    between atoms: C_16  and  C_17 
REMARK    5  A    between atoms: C_17  and  O_18 
REMARK    6  A    between atoms: C_17  and  C_19 
ROOT
HETATM    1  C   UNL     1      43.878 -11.580   7.367  1.00  0.00     0.257 C 
HETATM    2  N   UNL     1      42.962 -10.806   8.036  1.00  0.00    -0.354 N 
HETATM    3  O   UNL     1      45.056 -11.599   7.719  1.00  0.00    -0.267 OA
HETATM    4  H   UNL     1      41.999 -10.801   7.721  1.00  0.00     0.162 HD
ENDROOT
BRANCH   1   5
HETATM    5  C   UNL     1      43.392 -12.379   6.255  1.00  0.00     0.098 C 
HETATM    6  C   UNL     1      42.854 -11.879   5.039  1.00  0.00     0.070 C 
HETATM    7  C   UNL     1      42.664 -10.459   4.635  1.00  0.00     0.073 C 
HETATM    8  N   UNL     1      42.450 -12.853   4.221  1.00  0.00    -0.170 NA
HETATM    9  N   UNL     1      42.819 -14.017   4.828  1.00  0.00    -0.221 N 
HETATM   10  C   UNL     1      43.297 -13.749   6.104  1.00  0.00     0.145 C 
HETATM   11 CL   UNL     1      43.567 -14.979   7.265  1.00  0.00    -0.061 Cl
BRANCH   9  12
HETATM   12  C   UNL     1      42.681 -15.234   4.088  1.00  0.00     0.060 A 
HETATM   13  C   UNL     1      43.540 -16.327   4.256  1.00  0.00     0.031 A 
HETATM   14  C   UNL     1      43.368 -17.485   3.489  1.00  0.00     0.002 A 
HETATM   15  C   UNL     1      42.349 -17.562   2.542  1.00  0.00     0.000 A 
HETATM   16  C   UNL     1      41.503 -16.475   2.349  1.00  0.00     0.002 A 
HETATM   17  C   UNL     1      41.672 -15.315   3.111  1.00  0.00     0.031 A 
ENDBRANCH   9  12
ENDBRANCH   1   5
BRANCH   2  18
HETATM   18  C   UNL     1      43.349  -9.897   9.110  1.00  0.00     0.159 C 
BRANCH  18  19
HETATM   19  C   UNL     1      43.642 -10.611  10.452  1.00  0.00     0.169 C 
BRANCH  19  20
HETATM   20  O   UNL     1      45.037 -10.840  10.658  1.00  0.00    -0.389 OA
HETATM   21  H   UNL     1      45.429 -11.129   9.808  1.00  0.00     0.210 HD
ENDBRANCH  19  20
BRANCH  19  22
HETATM   22  C   UNL     1      43.126  -9.793  11.620  1.00  0.00    -0.025 A 
HETATM   23  C   UNL     1      41.982 -10.202  12.322  1.00  0.00     0.053 A 
HETATM   24  C   UNL     1      41.500  -9.436  13.383  1.00  0.00     0.138 A 
HETATM   25  F   UNL     1      40.401  -9.859  14.028  1.00  0.00    -0.204 F 
HETATM   26  C   UNL     1      42.139  -8.259  13.763  1.00  0.00     0.072 A 
HETATM   27 CL   UNL     1      41.541  -7.315  15.073  1.00  0.00    -0.081 Cl
HETATM   28  C   UNL     1      43.272  -7.836  13.073  1.00  0.00     0.028 A 
HETATM   29  C   UNL     1      43.759  -8.597  12.006  1.00  0.00     0.012 A 
ENDBRANCH  19  22
ENDBRANCH  18  19
ENDBRANCH   2  18
TORSDOF 6
ENDMDL
MODEL 6
REMARK VINA RESULT:      -8.6      4.820      7.213
REMARK  6 active torsions:
REMARK  status: ('A' for Active; 'I' for Inactive)
REMARK    1  A    between atoms: N_4  and  C_5 
REMARK    2  A    between atoms: C_13  and  C_14 
REMARK       I    between atoms: C_14  and  N_15 
REMARK    3  A    between atoms: N_15  and  C_16 
REMARK    4  A    between atoms: C_16  and  C_17 
REMARK    5  A    between atoms: C_17  and  O_18 
REMARK    6  A    between atoms: C_17  and  C_19 
ROOT
HETATM    1  C   UNL     1      42.118 -13.187   3.529  1.00  0.00     0.257 C 
HETATM    2  N   UNL     1      40.871 -12.867   4.009  1.00  0.00    -0.354 N 
HETATM    3  O   UNL     1      42.758 -12.376   2.863  1.00  0.00    -0.267 OA
HETATM    4  H   UNL     1      40.360 -13.556   4.547  1.00  0.00     0.162 HD
ENDROOT
BRANCH   1   5
HETATM    5  C   UNL     1      42.643 -14.501   3.857  1.00  0.00     0.098 C 
HETATM    6  C   UNL     1      43.141 -14.909   5.123  1.00  0.00     0.070 C 
HETATM    7  C   UNL     1      43.242 -14.105   6.372  1.00  0.00     0.073 C 
HETATM    8  N   UNL     1      43.596 -16.163   5.112  1.00  0.00    -0.170 NA
HETATM    9  N   UNL     1      43.303 -16.648   3.873  1.00  0.00    -0.221 N 
HETATM   10  C   UNL     1      42.819 -15.623   3.071  1.00  0.00     0.145 C 
HETATM   11 CL   UNL     1      42.632 -15.787   1.377  1.00  0.00    -0.061 Cl
BRANCH   9  12
HETATM   12  C   UNL     1      43.509 -18.044   3.631  1.00  0.00     0.060 A 
HETATM   13  C   UNL     1      43.213 -18.655   2.407  1.00  0.00     0.031 A 
HETATM   14  C   UNL     1      43.417 -20.029   2.234  1.00  0.00     0.002 A 
HETATM   15  C   UNL     1      43.905 -20.808   3.281  1.00  0.00     0.000 A 
HETATM   16  C   UNL     1      44.180 -20.218   4.510  1.00  0.00     0.002 A 
HETATM   17  C   UNL     1      43.977 -18.847   4.687  1.00  0.00     0.031 A 
ENDBRANCH   9  12
ENDBRANCH   1   5
BRANCH   2  18
HETATM   18  C   UNL     1      40.206 -11.613   3.671  1.00  0.00     0.159 C 
BRANCH  18  19
HETATM   19  C   UNL     1      39.054 -11.778   2.650  1.00  0.00     0.169 C 
BRANCH  19  20
HETATM   20  O   UNL     1      38.133 -10.686   2.681  1.00  0.00    -0.389 OA
HETATM   21  H   UNL     1      38.564  -9.933   3.136  1.00  0.00     0.210 HD
ENDBRANCH  19  20
BRANCH  19  22
HETATM   22  C   UNL     1      39.598 -11.889   1.239  1.00  0.00    -0.025 A 
HETATM   23  C   UNL     1      39.724 -13.144   0.624  1.00  0.00     0.053 A 
HETATM   24  C   UNL     1      40.243 -13.243  -0.666  1.00  0.00     0.138 A 
HETATM   25  F   UNL     1      40.351 -14.462  -1.220  1.00  0.00    -0.204 F 
HETATM   26  C   UNL     1      40.645 -12.107  -1.364  1.00  0.00     0.072 A 
HETATM   27 CL   UNL     1      41.286 -12.232  -2.957  1.00  0.00    -0.081 Cl
HETATM   28  C   UNL     1      40.532 -10.855  -0.766  1.00  0.00     0.028 A 
HETATM   29  C   UNL     1      40.015 -10.748   0.529  1.00  0.00     0.012 A 
ENDBRANCH  19  22
ENDBRANCH  18  19
ENDBRANCH   2  18
TORSDOF 6
ENDMDL
MODEL 7
REMARK VINA RESULT:      -8.2     16.881     18.952
REMARK  6 active torsions:
REMARK  status: ('A' for Active; 'I' for Inactive)
REMARK    1  A    between atoms: N_4  and  C_5 
REMARK    2  A    between atoms: C_13  and  C_14 
REMARK       I    between atoms: C_14  and  N_15 
REMARK    3  A    between atoms: N_15  and  C_16 
REMARK    4  A    between atoms: C_16  and  C_17 
REMARK    5  A    between atoms: C_17  and  O_18 
REMARK    6  A    between atoms: C_17  and  C_19 
ROOT
HETATM    1  C   UNL     1      46.897 -28.940   1.739  1.00  0.00     0.257 C 
HETATM    2  N   UNL     1      45.853 -29.826   1.855  1.00  0.00    -0.354 N 
HETATM    3  O   UNL     1      46.717 -27.737   1.916  1.00  0.00    -0.267 OA
HETATM    4  H   UNL     1      46.026 -30.811   1.696  1.00  0.00     0.162 HD
ENDROOT
BRANCH   1   5
HETATM    5  C   UNL     1      48.206 -29.486   1.425  1.00  0.00     0.098 C 
HETATM    6  C   UNL     1      49.208 -29.846   2.365  1.00  0.00     0.070 C 
HETATM    7  C   UNL     1      49.153 -29.747   3.849  1.00  0.00     0.073 C 
HETATM    8  N   UNL     1      50.325 -30.281   1.778  1.00  0.00    -0.170 NA
HETATM    9  N   UNL     1      50.044 -30.326   0.445  1.00  0.00    -0.221 N 
HETATM   10  C   UNL     1      48.802 -29.752   0.208  1.00  0.00     0.145 C 
HETATM   11 CL   UNL     1      48.251 -29.361  -1.366  1.00  0.00    -0.061 Cl
BRANCH   9  12
HETATM   12  C   UNL     1      51.003 -30.938  -0.424  1.00  0.00     0.060 A 
HETATM   13  C   UNL     1      51.188 -30.538  -1.753  1.00  0.00     0.031 A 
HETATM   14  C   UNL     1      52.128 -31.187  -2.562  1.00  0.00     0.002 A 
HETATM   15  C   UNL     1      52.882 -32.245  -2.060  1.00  0.00     0.000 A 
HETATM   16  C   UNL     1      52.691 -32.668  -0.749  1.00  0.00     0.002 A 
HETATM   17  C   UNL     1      51.753 -32.025   0.062  1.00  0.00     0.031 A 
ENDBRANCH   9  12
ENDBRANCH   1   5
BRANCH   2  18
HETATM   18  C   UNL     1      44.480 -29.386   2.081  1.00  0.00     0.159 C 
BRANCH  18  19
HETATM   19  C   UNL     1      43.452 -30.054   1.136  1.00  0.00     0.169 C 
BRANCH  19  20
HETATM   20  O   UNL     1      42.170 -29.427   1.189  1.00  0.00    -0.389 OA
HETATM   21  H   UNL     1      42.206 -28.710   1.857  1.00  0.00     0.210 HD
ENDBRANCH  19  20
BRANCH  19  22
HETATM   22  C   UNL     1      43.934 -30.007  -0.301  1.00  0.00    -0.025 A 
HETATM   23  C   UNL     1      44.215 -28.778  -0.916  1.00  0.00     0.053 A 
HETATM   24  C   UNL     1      44.639 -28.738  -2.244  1.00  0.00     0.138 A 
HETATM   25  F   UNL     1      44.896 -27.542  -2.798  1.00  0.00    -0.204 F 
HETATM   26  C   UNL     1      44.789 -29.910  -2.981  1.00  0.00     0.072 A 
HETATM   27 CL   UNL     1      45.312 -29.859  -4.621  1.00  0.00    -0.081 Cl
HETATM   28  C   UNL     1      44.508 -31.138  -2.388  1.00  0.00     0.028 A 
HETATM   29  C   UNL     1      44.080 -31.185  -1.057  1.00  0.00     0.012 A 
ENDBRANCH  19  22
ENDBRANCH  18  19
ENDBRANCH   2  18
TORSDOF 6
ENDMDL
MODEL 8
REMARK VINA RESULT:      -8.1      4.822      7.596
REMARK  6 active torsions:
REMARK  status: ('A' for Active; 'I' for Inactive)
REMARK    1  A    between atoms: N_4  and  C_5 
REMARK    2  A    between atoms: C_13  and  C_14 
REMARK       I    between atoms: C_14  and  N_15 
REMARK    3  A    between atoms: N_15  and  C_16 
REMARK    4  A    between atoms: C_16  and  C_17 
REMARK    5  A    between atoms: C_17  and  O_18 
REMARK    6  A    between atoms: C_17  and  C_19 
ROOT
HETATM    1  C   UNL     1      42.264 -13.421   3.021  1.00  0.00     0.257 C 
HETATM    2  N   UNL     1      40.909 -13.234   2.890  1.00  0.00    -0.354 N 
HETATM    3  O   UNL     1      43.051 -12.532   2.700  1.00  0.00    -0.267 OA
HETATM    4  H   UNL     1      40.283 -13.985   3.154  1.00  0.00     0.162 HD
ENDROOT
BRANCH   1   5
HETATM    5  C   UNL     1      42.714 -14.689   3.568  1.00  0.00     0.098 C 
HETATM    6  C   UNL     1      42.973 -14.963   4.938  1.00  0.00     0.070 C 
HETATM    7  C   UNL     1      42.851 -14.038   6.098  1.00  0.00     0.073 C 
HETATM    8  N   UNL     1      43.416 -16.207   5.134  1.00  0.00    -0.170 NA
HETATM    9  N   UNL     1      43.349 -16.815   3.917  1.00  0.00    -0.221 N 
HETATM   10  C   UNL     1      43.024 -15.881   2.943  1.00  0.00     0.145 C 
HETATM   11 CL   UNL     1      43.145 -16.214   1.267  1.00  0.00    -0.061 Cl
BRANCH   9  12
HETATM   12  C   UNL     1      43.588 -18.225   3.856  1.00  0.00     0.060 A 
HETATM   13  C   UNL     1      44.047 -18.966   4.951  1.00  0.00     0.031 A 
HETATM   14  C   UNL     1      44.281 -20.341   4.827  1.00  0.00     0.002 A 
HETATM   15  C   UNL     1      44.071 -20.986   3.610  1.00  0.00     0.000 A 
HETATM   16  C   UNL     1      43.637 -20.258   2.508  1.00  0.00     0.002 A 
HETATM   17  C   UNL     1      43.404 -18.885   2.627  1.00  0.00     0.031 A 
ENDBRANCH   9  12
ENDBRANCH   1   5
BRANCH   2  18
HETATM   18  C   UNL     1      40.345 -12.038   2.273  1.00  0.00     0.159 C 
BRANCH  18  19
HETATM   19  C   UNL     1      39.367 -12.343   1.112  1.00  0.00     0.169 C 
BRANCH  19  20
HETATM   20  O   UNL     1      38.027 -11.943   1.404  1.00  0.00    -0.389 OA
HETATM   21  H   UNL     1      37.585 -11.714   0.560  1.00  0.00     0.210 HD
ENDBRANCH  19  20
BRANCH  19  22
HETATM   22  C   UNL     1      39.800 -11.632  -0.155  1.00  0.00    -0.025 A 
HETATM   23  C   UNL     1      41.003 -10.909  -0.188  1.00  0.00     0.053 A 
HETATM   24  C   UNL     1      41.387 -10.241  -1.350  1.00  0.00     0.138 A 
HETATM   25  F   UNL     1      42.544  -9.558  -1.341  1.00  0.00    -0.204 F 
HETATM   26  C   UNL     1      40.590 -10.275  -2.491  1.00  0.00     0.072 A 
HETATM   27 CL   UNL     1      41.067  -9.448  -3.924  1.00  0.00    -0.081 Cl
HETATM   28  C   UNL     1      39.392 -10.982  -2.474  1.00  0.00     0.028 A 
HETATM   29  C   UNL     1      38.998 -11.653  -1.311  1.00  0.00     0.012 A 
ENDBRANCH  19  22
ENDBRANCH  18  19
ENDBRANCH   2  18
TORSDOF 6
ENDMDL
MODEL 9
REMARK VINA RESULT:      -7.9      5.960      9.895
REMARK  6 active torsions:
REMARK  status: ('A' for Active; 'I' for Inactive)
REMARK    1  A    between atoms: N_4  and  C_5 
REMARK    2  A    between atoms: C_13  and  C_14 
REMARK       I    between atoms: C_14  and  N_15 
REMARK    3  A    between atoms: N_15  and  C_16 
REMARK    4  A    between atoms: C_16  and  C_17 
REMARK    5  A    between atoms: C_17  and  O_18 
REMARK    6  A    between atoms: C_17  and  C_19 
ROOT
HETATM    1  C   UNL     1      40.327 -13.762   0.576  1.00  0.00     0.257 C 
HETATM    2  N   UNL     1      41.351 -14.679   0.538  1.00  0.00    -0.354 N 
HETATM    3  O   UNL     1      39.632 -13.645   1.583  1.00  0.00    -0.267 OA
HETATM    4  H   UNL     1      41.904 -14.761  -0.307  1.00  0.00     0.162 HD
ENDROOT
BRANCH   1   5
HETATM    5  C   UNL     1      40.125 -12.937  -0.602  1.00  0.00     0.098 C 
HETATM    6  C   UNL     1      39.534 -13.357  -1.824  1.00  0.00     0.070 C 
HETATM    7  C   UNL     1      39.005 -14.704  -2.173  1.00  0.00     0.073 C 
HETATM    8  N   UNL     1      39.521 -12.389  -2.743  1.00  0.00    -0.170 NA
HETATM    9  N   UNL     1      39.995 -11.279  -2.111  1.00  0.00    -0.221 N 
HETATM   10  C   UNL     1      40.459 -11.620  -0.848  1.00  0.00     0.145 C 
HETATM   11 CL   UNL     1      41.393 -10.553   0.112  1.00  0.00    -0.061 Cl
BRANCH   9  12
HETATM   12  C   UNL     1      39.919 -10.027  -2.803  1.00  0.00     0.060 A 
HETATM   13  C   UNL     1      38.963  -9.050  -2.502  1.00  0.00     0.031 A 
HETATM   14  C   UNL     1      38.925  -7.852  -3.226  1.00  0.00     0.002 A 
HETATM   15  C   UNL     1      39.828  -7.623  -4.261  1.00  0.00     0.000 A 
HETATM   16  C   UNL     1      40.768  -8.595  -4.585  1.00  0.00     0.002 A 
HETATM   17  C   UNL     1      40.809  -9.793  -3.867  1.00  0.00     0.031 A 
ENDBRANCH   9  12
ENDBRANCH   1   5
BRANCH   2  18
HETATM   18  C   UNL     1      41.593 -15.620   1.626  1.00  0.00     0.159 C 
BRANCH  18  19
HETATM   19  C   UNL     1      43.042 -15.581   2.169  1.00  0.00     0.169 C 
BRANCH  19  20
HETATM   20  O   UNL     1      43.275 -14.466   3.030  1.00  0.00    -0.389 OA
HETATM   21  H   UNL     1      42.876 -13.671   2.618  1.00  0.00     0.210 HD
ENDBRANCH  19  20
BRANCH  19  22
HETATM   22  C   UNL     1      43.359 -16.844   2.946  1.00  0.00    -0.025 A 
HETATM   23  C   UNL     1      43.578 -16.789   4.331  1.00  0.00     0.053 A 
HETATM   24  C   UNL     1      43.888 -17.950   5.038  1.00  0.00     0.138 A 
HETATM   25  F   UNL     1      44.094 -17.856   6.362  1.00  0.00    -0.204 F 
HETATM   26  C   UNL     1      43.988 -19.178   4.388  1.00  0.00     0.072 A 
HETATM   27 CL   UNL     1      44.372 -20.610   5.263  1.00  0.00    -0.081 Cl
HETATM   28  C   UNL     1      43.779 -19.249   3.014  1.00  0.00     0.028 A 
HETATM   29  C   UNL     1      43.470 -18.088   2.297  1.00  0.00     0.012 A 
ENDBRANCH  19  22
ENDBRANCH  18  19
ENDBRANCH   2  18
TORSDOF 6
ENDMDL
MODEL 10
REMARK VINA RESULT:      -7.9      6.590      9.909
REMARK  6 active torsions:
REMARK  status: ('A' for Active; 'I' for Inactive)
REMARK    1  A    between atoms: N_4  and  C_5 
REMARK    2  A    between atoms: C_13  and  C_14 
REMARK       I    between atoms: C_14  and  N_15 
REMARK    3  A    between atoms: N_15  and  C_16 
REMARK    4  A    between atoms: C_16  and  C_17 
REMARK    5  A    between atoms: C_17  and  O_18 
REMARK    6  A    between atoms: C_17  and  C_19 
ROOT
HETATM    1  C   UNL     1      41.108  -9.292  12.953  1.00  0.00     0.257 C 
HETATM    2  N   UNL     1      41.444  -8.216  13.740  1.00  0.00    -0.354 N 
HETATM    3  O   UNL     1      40.314 -10.138  13.358  1.00  0.00    -0.267 OA
HETATM    4  H   UNL     1      42.107  -7.538  13.386  1.00  0.00     0.162 HD
ENDROOT
BRANCH   1   5
HETATM    5  C   UNL     1      41.710  -9.368  11.633  1.00  0.00     0.098 C 
HETATM    6  C   UNL     1      41.230  -8.730  10.458  1.00  0.00     0.070 C 
HETATM    7  C   UNL     1      40.029  -7.863  10.310  1.00  0.00     0.073 C 
HETATM    8  N   UNL     1      41.967  -9.018   9.384  1.00  0.00    -0.170 NA
HETATM    9  N   UNL     1      43.015  -9.756   9.847  1.00  0.00    -0.221 N 
HETATM   10  C   UNL     1      42.818 -10.061  11.187  1.00  0.00     0.145 C 
HETATM   11 CL   UNL     1      43.768 -11.217  12.019  1.00  0.00    -0.061 Cl
BRANCH   9  12
HETATM   12  C   UNL     1      44.081 -10.053   8.939  1.00  0.00     0.060 A 
HETATM   13  C   UNL     1      44.099 -11.200   8.136  1.00  0.00     0.031 A 
HETATM   14  C   UNL     1      45.179 -11.447   7.281  1.00  0.00     0.002 A 
HETATM   15  C   UNL     1      46.254 -10.563   7.226  1.00  0.00     0.000 A 
HETATM   16  C   UNL     1      46.260  -9.432   8.035  1.00  0.00     0.002 A 
HETATM   17  C   UNL     1      45.186  -9.182   8.892  1.00  0.00     0.031 A 
ENDBRANCH   9  12
ENDBRANCH   1   5
BRANCH   2  18
HETATM   18  C   UNL     1      40.971  -8.081  15.114  1.00  0.00     0.159 C 
BRANCH  18  19
HETATM   19  C   UNL     1      41.935  -7.282  16.025  1.00  0.00     0.169 C 
BRANCH  19  20
HETATM   20  O   UNL     1      42.116  -5.935  15.585  1.00  0.00    -0.389 OA
HETATM   21  H   UNL     1      41.459  -5.751  14.882  1.00  0.00     0.210 HD
ENDBRANCH  19  20
BRANCH  19  22
HETATM   22  C   UNL     1      41.417  -7.240  17.449  1.00  0.00    -0.025 A 
HETATM   23  C   UNL     1      40.299  -8.003  17.820  1.00  0.00     0.053 A 
HETATM   24  C   UNL     1      39.814  -7.947  19.127  1.00  0.00     0.138 A 
HETATM   25  F   UNL     1      38.741  -8.690  19.442  1.00  0.00    -0.204 F 
HETATM   26  C   UNL     1      40.424  -7.138  20.081  1.00  0.00     0.072 A 
HETATM   27 CL   UNL     1      39.824  -7.070  21.693  1.00  0.00    -0.081 Cl
HETATM   28  C   UNL     1      41.531  -6.370  19.728  1.00  0.00     0.028 A 
HETATM   29  C   UNL     1      42.020  -6.419  18.419  1.00  0.00     0.012 A 
ENDBRANCH  19  22
ENDBRANCH  18  19
ENDBRANCH   2  18
TORSDOF 6
ENDMDL
