MODEL 1
REMARK VINA RESULT:      -8.3      0.000      0.000
REMARK  7 active torsions:
REMARK  status: ('A' for Active; 'I' for Inactive)
REMARK    1  A    between atoms: O_1  and  C_2 
REMARK    2  A    between atoms: C_2  and  C_3 
REMARK    3  A    between atoms: C_3  and  C_4 
REMARK    4  A    between atoms: C_4  and  N_5 
REMARK    5  A    between atoms: C_4  and  C_21 
REMARK       I    between atoms: N_5  and  C_6 
REMARK       I    between atoms: C_6  and  N_8 
REMARK    6  A    between atoms: N_8  and  C_9 
REMARK    7  A    between atoms: C_12  and  C_15 
ROOT
HETATM    1  N   UNL     1      43.587 -11.554   8.320  1.00  0.00    -0.334 N 
HETATM    2  C   UNL     1      43.967 -12.397   7.295  1.00  0.00     0.321 C 
HETATM    3  O   UNL     1      44.813 -12.098   6.464  1.00  0.00    -0.247 OA
HETATM    4  N   UNL     1      43.318 -13.608   7.411  1.00  0.00    -0.309 N 
HETATM    5  H   UNL     1      42.618 -11.632   8.590  1.00  0.00     0.165 HD
HETATM    6  H   UNL     1      42.951 -13.804   8.329  1.00  0.00     0.170 HD
ENDROOT
BRANCH   1   7
HETATM    7  C   UNL     1      44.197 -10.238   8.470  1.00  0.00     0.121 C 
BRANCH   7   8
HETATM    8  C   UNL     1      45.679 -10.373   8.849  1.00  0.00     0.056 C 
BRANCH   8   9
HETATM    9  C   UNL     1      46.585  -9.654   7.856  1.00  0.00     0.166 C 
BRANCH   9  10
HETATM   10  O   UNL     1      47.356 -10.623   7.157  1.00  0.00    -0.401 OA
HETATM   11  H   UNL     1      48.182 -10.188   6.884  1.00  0.00     0.209 HD
ENDBRANCH   9  10
ENDBRANCH   8   9
ENDBRANCH   7   8
BRANCH   7  12
HETATM   12  C   UNL     1      43.438  -9.398   9.486  1.00  0.00    -0.032 A 
HETATM   13  C   UNL     1      42.170  -8.887   9.159  1.00  0.00     0.009 A 
HETATM   14  C   UNL     1      41.460  -8.092  10.063  1.00  0.00     0.004 A 
HETATM   15  C   UNL     1      42.003  -7.806  11.312  1.00  0.00     0.042 A 
HETATM   16  C   UNL     1      43.251  -8.319  11.646  1.00  0.00     0.117 A 
HETATM   17  F   UNL     1      43.773  -8.051  12.850  1.00  0.00    -0.206 F 
HETATM   18  C   UNL     1      43.970  -9.106  10.751  1.00  0.00     0.051 A 
ENDBRANCH   7  12
ENDBRANCH   1   7
BRANCH   4  19
HETATM   19  C   UNL     1      43.419 -14.699   6.526  1.00  0.00     0.036 A 
HETATM   20  C   UNL     1      42.561 -14.726   5.424  1.00  0.00     0.030 A 
HETATM   21  C   UNL     1      42.591 -15.798   4.522  1.00  0.00     0.014 A 
HETATM   22  C   UNL     1      43.495 -16.856   4.688  1.00  0.00    -0.023 A 
HETATM   23  C   UNL     1      44.378 -16.798   5.775  1.00  0.00     0.014 A 
HETATM   24  C   UNL     1      44.339 -15.733   6.687  1.00  0.00     0.030 A 
BRANCH  22  25
HETATM   25  C   UNL     1      43.501 -17.975   3.754  1.00  0.00     0.010 A 
HETATM   26  C   UNL     1      44.099 -19.257   3.845  1.00  0.00     0.152 A 
HETATM   27  N   UNL     1      43.897 -20.010   2.760  1.00  0.00    -0.187 NA
HETATM   28  N   UNL     1      43.171 -19.215   1.960  1.00  0.00    -0.289 N 
HETATM   29  H   UNL     1      42.891 -19.570   1.053  1.00  0.00     0.188 HD
HETATM   30  C   UNL     1      42.909 -17.991   2.506  1.00  0.00     0.123 A 
ENDBRANCH  22  25
ENDBRANCH   4  19
TORSDOF 7
ENDMDL
MODEL 2
REMARK VINA RESULT:      -8.3      6.273      9.812
REMARK  7 active torsions:
REMARK  status: ('A' for Active; 'I' for Inactive)
REMARK    1  A    between atoms: O_1  and  C_2 
REMARK    2  A    between atoms: C_2  and  C_3 
REMARK    3  A    between atoms: C_3  and  C_4 
REMARK    4  A    between atoms: C_4  and  N_5 
REMARK    5  A    between atoms: C_4  and  C_21 
REMARK       I    between atoms: N_5  and  C_6 
REMARK       I    between atoms: C_6  and  N_8 
REMARK    6  A    between atoms: N_8  and  C_9 
REMARK    7  A    between atoms: C_12  and  C_15 
ROOT
HETATM    1  N   UNL     1      43.288 -16.015   3.628  1.00  0.00    -0.334 N 
HETATM    2  C   UNL     1      42.088 -15.628   3.066  1.00  0.00     0.321 C 
HETATM    3  O   UNL     1      41.002 -16.006   3.485  1.00  0.00    -0.247 OA
HETATM    4  N   UNL     1      42.309 -14.721   2.051  1.00  0.00    -0.309 N 
HETATM    5  H   UNL     1      44.050 -16.103   2.972  1.00  0.00     0.165 HD
HETATM    6  H   UNL     1      43.205 -14.260   2.085  1.00  0.00     0.170 HD
ENDROOT
BRANCH   1   7
HETATM    7  C   UNL     1      43.320 -16.907   4.781  1.00  0.00     0.121 C 
BRANCH   7   8
HETATM    8  C   UNL     1      44.382 -16.445   5.789  1.00  0.00     0.056 C 
BRANCH   8   9
HETATM    9  C   UNL     1      43.753 -15.926   7.077  1.00  0.00     0.166 C 
BRANCH   9  10
HETATM   10  O   UNL     1      43.604 -17.013   7.982  1.00  0.00    -0.401 OA
HETATM   11  H   UNL     1      44.370 -17.599   7.852  1.00  0.00     0.209 HD
ENDBRANCH   9  10
ENDBRANCH   8   9
ENDBRANCH   7   8
BRANCH   7  12
HETATM   12  C   UNL     1      43.553 -18.346   4.349  1.00  0.00    -0.032 A 
HETATM   13  C   UNL     1      43.849 -19.324   5.315  1.00  0.00     0.009 A 
HETATM   14  C   UNL     1      44.092 -20.650   4.947  1.00  0.00     0.004 A 
HETATM   15  C   UNL     1      44.031 -21.020   3.606  1.00  0.00     0.042 A 
HETATM   16  C   UNL     1      43.726 -20.061   2.648  1.00  0.00     0.117 A 
HETATM   17  F   UNL     1      43.661 -20.415   1.357  1.00  0.00    -0.206 F 
HETATM   18  C   UNL     1      43.489 -18.736   3.003  1.00  0.00     0.051 A 
ENDBRANCH   7  12
ENDBRANCH   1   7
BRANCH   4  19
HETATM   19  C   UNL     1      41.331 -14.139   1.222  1.00  0.00     0.036 A 
HETATM   20  C   UNL     1      40.630 -14.980   0.353  1.00  0.00     0.030 A 
HETATM   21  C   UNL     1      39.664 -14.459  -0.520  1.00  0.00     0.014 A 
HETATM   22  C   UNL     1      39.360 -13.091  -0.527  1.00  0.00    -0.023 A 
HETATM   23  C   UNL     1      40.042 -12.265   0.378  1.00  0.00     0.014 A 
HETATM   24  C   UNL     1      41.019 -12.782   1.241  1.00  0.00     0.030 A 
BRANCH  22  25
HETATM   25  C   UNL     1      38.369 -12.561  -1.454  1.00  0.00     0.010 A 
HETATM   26  C   UNL     1      37.821 -11.259  -1.582  1.00  0.00     0.152 A 
HETATM   27  N   UNL     1      36.907 -11.167  -2.553  1.00  0.00    -0.187 NA
HETATM   28  N   UNL     1      36.858 -12.410  -3.053  1.00  0.00    -0.289 N 
HETATM   29  H   UNL     1      36.218 -12.596  -3.816  1.00  0.00     0.188 HD
HETATM   30  C   UNL     1      37.709 -13.278  -2.432  1.00  0.00     0.123 A 
ENDBRANCH  22  25
ENDBRANCH   4  19
TORSDOF 7
ENDMDL
MODEL 3
REMARK VINA RESULT:      -8.3      3.865      9.970
REMARK  7 active torsions:
REMARK  status: ('A' for Active; 'I' for Inactive)
REMARK    1  A    between atoms: O_1  and  C_2 
REMARK    2  A    between atoms: C_2  and  C_3 
REMARK    3  A    between atoms: C_3  and  C_4 
REMARK    4  A    between atoms: C_4  and  N_5 
REMARK    5  A    between atoms: C_4  and  C_21 
REMARK       I    between atoms: N_5  and  C_6 
REMARK       I    between atoms: C_6  and  N_8 
REMARK    6  A    between atoms: N_8  and  C_9 
REMARK    7  A    between atoms: C_12  and  C_15 
ROOT
HETATM    1  N   UNL     1      42.568 -15.935   4.216  1.00  0.00    -0.334 N 
HETATM    2  C   UNL     1      42.890 -14.601   4.363  1.00  0.00     0.321 C 
HETATM    3  O   UNL     1      43.263 -13.898   3.434  1.00  0.00    -0.247 OA
HETATM    4  N   UNL     1      42.652 -14.194   5.659  1.00  0.00    -0.309 N 
HETATM    5  H   UNL     1      42.783 -16.509   5.018  1.00  0.00     0.165 HD
HETATM    6  H   UNL     1      42.021 -14.785   6.178  1.00  0.00     0.170 HD
ENDROOT
BRANCH   1   7
HETATM    7  C   UNL     1      42.651 -16.585   2.914  1.00  0.00     0.121 C 
BRANCH   7   8
HETATM    8  C   UNL     1      41.302 -16.502   2.184  1.00  0.00     0.056 C 
BRANCH   8   9
HETATM    9  C   UNL     1      41.259 -15.336   1.204  1.00  0.00     0.166 C 
BRANCH   9  10
HETATM   10  O   UNL     1      42.593 -14.962   0.881  1.00  0.00    -0.401 OA
HETATM   11  H   UNL     1      43.180 -15.451   1.482  1.00  0.00     0.209 HD
ENDBRANCH   9  10
ENDBRANCH   8   9
ENDBRANCH   7   8
BRANCH   7  12
HETATM   12  C   UNL     1      43.120 -18.025   3.052  1.00  0.00    -0.032 A 
HETATM   13  C   UNL     1      42.917 -18.928   1.994  1.00  0.00     0.009 A 
HETATM   14  C   UNL     1      43.316 -20.263   2.101  1.00  0.00     0.004 A 
HETATM   15  C   UNL     1      43.933 -20.712   3.265  1.00  0.00     0.042 A 
HETATM   16  C   UNL     1      44.148 -19.822   4.309  1.00  0.00     0.117 A 
HETATM   17  F   UNL     1      44.747 -20.249   5.428  1.00  0.00    -0.206 F 
HETATM   18  C   UNL     1      43.749 -18.491   4.217  1.00  0.00     0.051 A 
ENDBRANCH   7  12
ENDBRANCH   1   7
BRANCH   4  19
HETATM   19  C   UNL     1      42.901 -12.915   6.194  1.00  0.00     0.036 A 
HETATM   20  C   UNL     1      44.116 -12.711   6.855  1.00  0.00     0.030 A 
HETATM   21  C   UNL     1      44.412 -11.470   7.435  1.00  0.00     0.014 A 
HETATM   22  C   UNL     1      43.513 -10.398   7.347  1.00  0.00    -0.023 A 
HETATM   23  C   UNL     1      42.316 -10.604   6.646  1.00  0.00     0.014 A 
HETATM   24  C   UNL     1      42.011 -11.850   6.079  1.00  0.00     0.030 A 
BRANCH  22  25
HETATM   25  C   UNL     1      43.826  -9.120   7.973  1.00  0.00     0.010 A 
HETATM   26  C   UNL     1      45.068  -8.551   8.352  1.00  0.00     0.152 A 
HETATM   27  N   UNL     1      44.943  -7.351   8.926  1.00  0.00    -0.187 NA
HETATM   28  N   UNL     1      43.619  -7.141   8.923  1.00  0.00    -0.289 N 
HETATM   29  H   UNL     1      43.268  -6.277   9.320  1.00  0.00     0.188 HD
HETATM   30  C   UNL     1      42.909  -8.166   8.367  1.00  0.00     0.123 A 
ENDBRANCH  22  25
ENDBRANCH   4  19
TORSDOF 7
ENDMDL
MODEL 4
REMARK VINA RESULT:      -8.2      1.730      2.284
REMARK  7 active torsions:
REMARK  status: ('A' for Active; 'I' for Inactive)
REMARK    1  A    between atoms: O_1  and  C_2 
REMARK    2  A    between atoms: C_2  and  C_3 
REMARK    3  A    between atoms: C_3  and  C_4 
REMARK    4  A    between atoms: C_4  and  N_5 
REMARK    5  A    between atoms: C_4  and  C_21 
REMARK       I    between atoms: N_5  and  C_6 
REMARK       I    between atoms: C_6  and  N_8 
REMARK    6  A    between atoms: N_8  and  C_9 
REMARK    7  A    between atoms: C_12  and  C_15 
ROOT
HETATM    1  N   UNL     1      43.587 -11.239   8.507  1.00  0.00    -0.334 N 
HETATM    2  C   UNL     1      43.978 -12.108   7.507  1.00  0.00     0.321 C 
HETATM    3  O   UNL     1      45.005 -11.962   6.860  1.00  0.00    -0.247 OA
HETATM    4  N   UNL     1      43.094 -13.164   7.423  1.00  0.00    -0.309 N 
HETATM    5  H   UNL     1      42.588 -11.125   8.597  1.00  0.00     0.165 HD
HETATM    6  H   UNL     1      42.531 -13.309   8.247  1.00  0.00     0.170 HD
ENDROOT
BRANCH   1   7
HETATM    7  C   UNL     1      44.404 -10.082   8.852  1.00  0.00     0.121 C 
BRANCH   7   8
HETATM    8  C   UNL     1      44.898 -10.187  10.303  1.00  0.00     0.056 C 
BRANCH   8   9
HETATM    9  C   UNL     1      43.768 -10.543  11.262  1.00  0.00     0.166 C 
BRANCH   9  10
HETATM   10  O   UNL     1      43.872 -11.921  11.597  1.00  0.00    -0.401 OA
HETATM   11  H   UNL     1      43.456 -12.035  12.469  1.00  0.00     0.209 HD
ENDBRANCH   9  10
ENDBRANCH   8   9
ENDBRANCH   7   8
BRANCH   7  12
HETATM   12  C   UNL     1      43.642  -8.787   8.617  1.00  0.00    -0.032 A 
HETATM   13  C   UNL     1      42.730  -8.700   7.551  1.00  0.00     0.009 A 
HETATM   14  C   UNL     1      42.033  -7.515   7.295  1.00  0.00     0.004 A 
HETATM   15  C   UNL     1      42.231  -6.404   8.110  1.00  0.00     0.042 A 
HETATM   16  C   UNL     1      43.122  -6.488   9.173  1.00  0.00     0.117 A 
HETATM   17  F   UNL     1      43.310  -5.422   9.962  1.00  0.00    -0.206 F 
HETATM   18  C   UNL     1      43.826  -7.660   9.433  1.00  0.00     0.051 A 
ENDBRANCH   7  12
ENDBRANCH   1   7
BRANCH   4  19
HETATM   19  C   UNL     1      43.142 -14.222   6.496  1.00  0.00     0.036 A 
HETATM   20  C   UNL     1      43.654 -15.447   6.933  1.00  0.00     0.030 A 
HETATM   21  C   UNL     1      43.756 -16.532   6.051  1.00  0.00     0.014 A 
HETATM   22  C   UNL     1      43.328 -16.425   4.721  1.00  0.00    -0.023 A 
HETATM   23  C   UNL     1      42.780 -15.203   4.307  1.00  0.00     0.014 A 
HETATM   24  C   UNL     1      42.691 -14.112   5.183  1.00  0.00     0.030 A 
BRANCH  22  25
HETATM   25  C   UNL     1      43.460 -17.555   3.810  1.00  0.00     0.010 A 
HETATM   26  C   UNL     1      44.225 -18.745   3.911  1.00  0.00     0.152 A 
HETATM   27  N   UNL     1      44.099 -19.543   2.847  1.00  0.00    -0.187 NA
HETATM   28  N   UNL     1      43.254 -18.870   2.052  1.00  0.00    -0.289 N 
HETATM   29  H   UNL     1      43.001 -19.281   1.160  1.00  0.00     0.188 HD
HETATM   30  C   UNL     1      42.845 -17.679   2.580  1.00  0.00     0.123 A 
ENDBRANCH  22  25
ENDBRANCH   4  19
TORSDOF 7
ENDMDL
MODEL 5
REMARK VINA RESULT:      -8.1      7.300     10.617
REMARK  7 active torsions:
REMARK  status: ('A' for Active; 'I' for Inactive)
REMARK    1  A    between atoms: O_1  and  C_2 
REMARK    2  A    between atoms: C_2  and  C_3 
REMARK    3  A    between atoms: C_3  and  C_4 
REMARK    4  A    between atoms: C_4  and  N_5 
REMARK    5  A    between atoms: C_4  and  C_21 
REMARK       I    between atoms: N_5  and  C_6 
REMARK       I    between atoms: C_6  and  N_8 
REMARK    6  A    between atoms: N_8  and  C_9 
REMARK    7  A    between atoms: C_12  and  C_15 
ROOT
HETATM    1  N   UNL     1      42.005 -15.665   2.069  1.00  0.00    -0.334 N 
HETATM    2  C   UNL     1      40.815 -15.140   1.604  1.00  0.00     0.321 C 
HETATM    3  O   UNL     1      39.791 -15.112   2.273  1.00  0.00    -0.247 OA
HETATM    4  N   UNL     1      40.992 -14.603   0.346  1.00  0.00    -0.309 N 
HETATM    5  H   UNL     1      42.574 -16.105   1.362  1.00  0.00     0.165 HD
HETATM    6  H   UNL     1      41.949 -14.392   0.109  1.00  0.00     0.170 HD
ENDROOT
BRANCH   1   7
HETATM    7  C   UNL     1      42.102 -16.218   3.415  1.00  0.00     0.121 C 
BRANCH   7   8
HETATM    8  C   UNL     1      42.783 -15.217   4.359  1.00  0.00     0.056 C 
BRANCH   8   9
HETATM    9  C   UNL     1      41.783 -14.551   5.297  1.00  0.00     0.166 C 
BRANCH   9  10
HETATM   10  O   UNL     1      40.488 -15.074   5.028  1.00  0.00    -0.401 OA
HETATM   11  H   UNL     1      40.330 -15.790   5.667  1.00  0.00     0.209 HD
ENDBRANCH   9  10
ENDBRANCH   8   9
ENDBRANCH   7   8
BRANCH   7  12
HETATM   12  C   UNL     1      42.828 -17.554   3.404  1.00  0.00    -0.032 A 
HETATM   13  C   UNL     1      43.595 -17.938   4.518  1.00  0.00     0.009 A 
HETATM   14  C   UNL     1      44.293 -19.149   4.528  1.00  0.00     0.004 A 
HETATM   15  C   UNL     1      44.225 -19.998   3.427  1.00  0.00     0.042 A 
HETATM   16  C   UNL     1      43.459 -19.629   2.328  1.00  0.00     0.117 A 
HETATM   17  F   UNL     1      43.387 -20.447   1.269  1.00  0.00    -0.206 F 
HETATM   18  C   UNL     1      42.765 -18.423   2.304  1.00  0.00     0.051 A 
ENDBRANCH   7  12
ENDBRANCH   1   7
BRANCH   4  19
HETATM   19  C   UNL     1      39.998 -14.019  -0.461  1.00  0.00     0.036 A 
HETATM   20  C   UNL     1      39.632 -12.698  -0.191  1.00  0.00     0.030 A 
HETATM   21  C   UNL     1      38.627 -12.068  -0.939  1.00  0.00     0.014 A 
HETATM   22  C   UNL     1      37.982 -12.737  -1.989  1.00  0.00    -0.023 A 
HETATM   23  C   UNL     1      38.387 -14.048  -2.276  1.00  0.00     0.014 A 
HETATM   24  C   UNL     1      39.381 -14.684  -1.518  1.00  0.00     0.030 A 
BRANCH  22  25
HETATM   25  C   UNL     1      36.926 -12.077  -2.745  1.00  0.00     0.010 A 
HETATM   26  C   UNL     1      36.602 -10.703  -2.883  1.00  0.00     0.152 A 
HETATM   27  N   UNL     1      35.533 -10.490  -3.656  1.00  0.00    -0.187 NA
HETATM   28  N   UNL     1      35.159 -11.726  -4.016  1.00  0.00    -0.289 N 
HETATM   29  H   UNL     1      34.347 -11.828  -4.615  1.00  0.00     0.188 HD
HETATM   30  C   UNL     1      35.955 -12.707  -3.499  1.00  0.00     0.123 A 
ENDBRANCH  22  25
ENDBRANCH   4  19
TORSDOF 7
ENDMDL
MODEL 6
REMARK VINA RESULT:      -7.7      7.170      8.410
REMARK  7 active torsions:
REMARK  status: ('A' for Active; 'I' for Inactive)
REMARK    1  A    between atoms: O_1  and  C_2 
REMARK    2  A    between atoms: C_2  and  C_3 
REMARK    3  A    between atoms: C_3  and  C_4 
REMARK    4  A    between atoms: C_4  and  N_5 
REMARK    5  A    between atoms: C_4  and  C_21 
REMARK       I    between atoms: N_5  and  C_6 
REMARK       I    between atoms: C_6  and  N_8 
REMARK    6  A    between atoms: N_8  and  C_9 
REMARK    7  A    between atoms: C_12  and  C_15 
ROOT
HETATM    1  N   UNL     1      40.889 -12.640   0.418  1.00  0.00    -0.334 N 
HETATM    2  C   UNL     1      41.008 -13.971   0.766  1.00  0.00     0.321 C 
HETATM    3  O   UNL     1      40.305 -14.851   0.289  1.00  0.00    -0.247 OA
HETATM    4  N   UNL     1      42.061 -14.141   1.641  1.00  0.00    -0.309 N 
HETATM    5  H   UNL     1      41.090 -11.992   1.165  1.00  0.00     0.165 HD
HETATM    6  H   UNL     1      42.736 -13.392   1.639  1.00  0.00     0.170 HD
ENDROOT
BRANCH   1   7
HETATM    7  C   UNL     1      39.901 -12.210  -0.564  1.00  0.00     0.121 C 
BRANCH   7   8
HETATM    8  C   UNL     1      40.591 -11.769  -1.863  1.00  0.00     0.056 C 
BRANCH   8   9
HETATM    9  C   UNL     1      40.385 -12.779  -2.985  1.00  0.00     0.166 C 
BRANCH   9  10
HETATM   10  O   UNL     1      41.656 -13.266  -3.399  1.00  0.00    -0.401 OA
HETATM   11  H   UNL     1      41.575 -14.231  -3.494  1.00  0.00     0.209 HD
ENDBRANCH   9  10
ENDBRANCH   8   9
ENDBRANCH   7   8
BRANCH   7  12
HETATM   12  C   UNL     1      39.017 -11.107  -0.001  1.00  0.00    -0.032 A 
HETATM   13  C   UNL     1      39.585  -9.868   0.342  1.00  0.00     0.009 A 
HETATM   14  C   UNL     1      38.803  -8.844   0.883  1.00  0.00     0.004 A 
HETATM   15  C   UNL     1      37.439  -9.041   1.079  1.00  0.00     0.042 A 
HETATM   16  C   UNL     1      36.870 -10.259   0.730  1.00  0.00     0.117 A 
HETATM   17  F   UNL     1      35.557 -10.450   0.912  1.00  0.00    -0.206 F 
HETATM   18  C   UNL     1      37.640 -11.289   0.197  1.00  0.00     0.051 A 
ENDBRANCH   7  12
ENDBRANCH   1   7
BRANCH   4  19
HETATM   19  C   UNL     1      42.459 -15.349   2.245  1.00  0.00     0.036 A 
HETATM   20  C   UNL     1      43.114 -16.291   1.447  1.00  0.00     0.030 A 
HETATM   21  C   UNL     1      43.510 -17.525   1.981  1.00  0.00     0.014 A 
HETATM   22  C   UNL     1      43.282 -17.837   3.328  1.00  0.00    -0.023 A 
HETATM   23  C   UNL     1      42.660 -16.867   4.127  1.00  0.00     0.014 A 
HETATM   24  C   UNL     1      42.249 -15.638   3.591  1.00  0.00     0.030 A 
BRANCH  22  25
HETATM   25  C   UNL     1      43.680 -19.132   3.864  1.00  0.00     0.010 A 
HETATM   26  C   UNL     1      44.104 -19.508   5.164  1.00  0.00     0.152 A 
HETATM   27  N   UNL     1      44.409 -20.805   5.262  1.00  0.00    -0.187 NA
HETATM   28  N   UNL     1      44.188 -21.272   4.025  1.00  0.00    -0.289 N 
HETATM   29  H   UNL     1      44.357 -22.255   3.844  1.00  0.00     0.188 HD
HETATM   30  C   UNL     1      43.753 -20.314   3.154  1.00  0.00     0.123 A 
ENDBRANCH  22  25
ENDBRANCH   4  19
TORSDOF 7
ENDMDL
MODEL 7
REMARK VINA RESULT:      -7.6      4.407     10.149
REMARK  7 active torsions:
REMARK  status: ('A' for Active; 'I' for Inactive)
REMARK    1  A    between atoms: O_1  and  C_2 
REMARK    2  A    between atoms: C_2  and  C_3 
REMARK    3  A    between atoms: C_3  and  C_4 
REMARK    4  A    between atoms: C_4  and  N_5 
REMARK    5  A    between atoms: C_4  and  C_21 
REMARK       I    between atoms: N_5  and  C_6 
REMARK       I    between atoms: C_6  and  N_8 
REMARK    6  A    between atoms: N_8  and  C_9 
REMARK    7  A    between atoms: C_12  and  C_15 
ROOT
HETATM    1  N   UNL     1      41.849 -15.323   3.961  1.00  0.00    -0.334 N 
HETATM    2  C   UNL     1      42.289 -14.038   4.207  1.00  0.00     0.321 C 
HETATM    3  O   UNL     1      42.982 -13.408   3.420  1.00  0.00    -0.247 OA
HETATM    4  N   UNL     1      41.770 -13.578   5.399  1.00  0.00    -0.309 N 
HETATM    5  H   UNL     1      41.768 -15.903   4.782  1.00  0.00     0.165 HD
HETATM    6  H   UNL     1      40.953 -14.073   5.722  1.00  0.00     0.170 HD
ENDROOT
BRANCH   1   7
HETATM    7  C   UNL     1      42.191 -16.005   2.718  1.00  0.00     0.121 C 
BRANCH   7   8
HETATM    8  C   UNL     1      40.950 -16.150   1.825  1.00  0.00     0.056 C 
BRANCH   8   9
HETATM    9  C   UNL     1      40.698 -14.896   0.997  1.00  0.00     0.166 C 
BRANCH   9  10
HETATM   10  O   UNL     1      41.942 -14.248   0.760  1.00  0.00    -0.401 OA
HETATM   11  H   UNL     1      41.761 -13.294   0.705  1.00  0.00     0.209 HD
ENDBRANCH   9  10
ENDBRANCH   8   9
ENDBRANCH   7   8
BRANCH   7  12
HETATM   12  C   UNL     1      42.836 -17.353   2.996  1.00  0.00    -0.032 A 
HETATM   13  C   UNL     1      43.513 -17.565   4.210  1.00  0.00     0.009 A 
HETATM   14  C   UNL     1      44.136 -18.785   4.484  1.00  0.00     0.004 A 
HETATM   15  C   UNL     1      44.082 -19.817   3.551  1.00  0.00     0.042 A 
HETATM   16  C   UNL     1      43.404 -19.619   2.354  1.00  0.00     0.117 A 
HETATM   17  F   UNL     1      43.345 -20.611   1.457  1.00  0.00    -0.206 F 
HETATM   18  C   UNL     1      42.785 -18.404   2.068  1.00  0.00     0.051 A 
ENDBRANCH   7  12
ENDBRANCH   1   7
BRANCH   4  19
HETATM   19  C   UNL     1      42.030 -12.331   5.998  1.00  0.00     0.036 A 
HETATM   20  C   UNL     1      40.977 -11.416   6.083  1.00  0.00     0.030 A 
HETATM   21  C   UNL     1      41.178 -10.146   6.642  1.00  0.00     0.014 A 
HETATM   22  C   UNL     1      42.428  -9.770   7.150  1.00  0.00    -0.023 A 
HETATM   23  C   UNL     1      43.467 -10.712   7.095  1.00  0.00     0.014 A 
HETATM   24  C   UNL     1      43.271 -11.977   6.523  1.00  0.00     0.030 A 
BRANCH  22  25
HETATM   25  C   UNL     1      42.628  -8.440   7.709  1.00  0.00     0.010 A 
HETATM   26  C   UNL     1      42.129  -7.177   7.301  1.00  0.00     0.152 A 
HETATM   27  N   UNL     1      42.559  -6.169   8.066  1.00  0.00    -0.187 NA
HETATM   28  N   UNL     1      43.342  -6.777   8.969  1.00  0.00    -0.289 N 
HETATM   29  H   UNL     1      43.797  -6.207   9.673  1.00  0.00     0.188 HD
HETATM   30  C   UNL     1      43.417  -8.130   8.799  1.00  0.00     0.123 A 
ENDBRANCH  22  25
ENDBRANCH   4  19
TORSDOF 7
ENDMDL
MODEL 8
REMARK VINA RESULT:      -7.6      2.834      3.082
REMARK  7 active torsions:
REMARK  status: ('A' for Active; 'I' for Inactive)
REMARK    1  A    between atoms: O_1  and  C_2 
REMARK    2  A    between atoms: C_2  and  C_3 
REMARK    3  A    between atoms: C_3  and  C_4 
REMARK    4  A    between atoms: C_4  and  N_5 
REMARK    5  A    between atoms: C_4  and  C_21 
REMARK       I    between atoms: N_5  and  C_6 
REMARK       I    between atoms: C_6  and  N_8 
REMARK    6  A    between atoms: N_8  and  C_9 
REMARK    7  A    between atoms: C_12  and  C_15 
ROOT
HETATM    1  N   UNL     1      43.666 -10.832   8.679  1.00  0.00    -0.334 N 
HETATM    2  C   UNL     1      43.160 -10.959   7.401  1.00  0.00     0.321 C 
HETATM    3  O   UNL     1      42.985 -10.005   6.654  1.00  0.00    -0.247 OA
HETATM    4  N   UNL     1      42.972 -12.290   7.094  1.00  0.00    -0.309 N 
HETATM    5  H   UNL     1      43.302 -11.500   9.342  1.00  0.00     0.165 HD
HETATM    6  H   UNL     1      43.495 -12.933   7.668  1.00  0.00     0.170 HD
ENDROOT
BRANCH   1   7
HETATM    7  C   UNL     1      44.032  -9.525   9.211  1.00  0.00     0.121 C 
BRANCH   7   8
HETATM    8  C   UNL     1      45.553  -9.428   9.399  1.00  0.00     0.056 C 
BRANCH   8   9
HETATM    9  C   UNL     1      46.268  -9.130   8.087  1.00  0.00     0.166 C 
BRANCH   9  10
HETATM   10  O   UNL     1      46.585 -10.362   7.451  1.00  0.00    -0.401 OA
HETATM   11  H   UNL     1      47.553 -10.460   7.485  1.00  0.00     0.209 HD
ENDBRANCH   9  10
ENDBRANCH   8   9
ENDBRANCH   7   8
BRANCH   7  12
HETATM   12  C   UNL     1      43.292  -9.238  10.509  1.00  0.00    -0.032 A 
HETATM   13  C   UNL     1      41.964  -9.674  10.664  1.00  0.00     0.009 A 
HETATM   14  C   UNL     1      41.251  -9.404  11.835  1.00  0.00     0.004 A 
HETATM   15  C   UNL     1      41.860  -8.704  12.873  1.00  0.00     0.042 A 
HETATM   16  C   UNL     1      43.176  -8.281  12.731  1.00  0.00     0.117 A 
HETATM   17  F   UNL     1      43.766  -7.612  13.730  1.00  0.00    -0.206 F 
HETATM   18  C   UNL     1      43.894  -8.538  11.566  1.00  0.00     0.051 A 
ENDBRANCH   7  12
ENDBRANCH   1   7
BRANCH   4  19
HETATM   19  C   UNL     1      42.432 -12.805   5.900  1.00  0.00     0.036 A 
HETATM   20  C   UNL     1      41.109 -13.253   5.923  1.00  0.00     0.030 A 
HETATM   21  C   UNL     1      40.522 -13.803   4.775  1.00  0.00     0.014 A 
HETATM   22  C   UNL     1      41.236 -13.898   3.573  1.00  0.00    -0.023 A 
HETATM   23  C   UNL     1      42.550 -13.408   3.552  1.00  0.00     0.014 A 
HETATM   24  C   UNL     1      43.143 -12.871   4.704  1.00  0.00     0.030 A 
BRANCH  22  25
HETATM   25  C   UNL     1      40.620 -14.492   2.393  1.00  0.00     0.010 A 
HETATM   26  C   UNL     1      40.212 -15.824   2.130  1.00  0.00     0.152 A 
HETATM   27  N   UNL     1      39.701 -15.985   0.906  1.00  0.00    -0.187 NA
HETATM   28  N   UNL     1      39.780 -14.758   0.372  1.00  0.00    -0.289 N 
HETATM   29  H   UNL     1      39.449 -14.624  -0.577  1.00  0.00     0.188 HD
HETATM   30  C   UNL     1      40.322 -13.832   1.217  1.00  0.00     0.123 A 
ENDBRANCH  22  25
ENDBRANCH   4  19
TORSDOF 7
ENDMDL
MODEL 9
REMARK VINA RESULT:      -7.6      3.087      3.400
REMARK  7 active torsions:
REMARK  status: ('A' for Active; 'I' for Inactive)
REMARK    1  A    between atoms: O_1  and  C_2 
REMARK    2  A    between atoms: C_2  and  C_3 
REMARK    3  A    between atoms: C_3  and  C_4 
REMARK    4  A    between atoms: C_4  and  N_5 
REMARK    5  A    between atoms: C_4  and  C_21 
REMARK       I    between atoms: N_5  and  C_6 
REMARK       I    between atoms: C_6  and  N_8 
REMARK    6  A    between atoms: N_8  and  C_9 
REMARK    7  A    between atoms: C_12  and  C_15 
ROOT
HETATM    1  N   UNL     1      43.460 -10.898   8.730  1.00  0.00    -0.334 N 
HETATM    2  C   UNL     1      43.084 -11.000   7.405  1.00  0.00     0.321 C 
HETATM    3  O   UNL     1      43.097 -10.051   6.633  1.00  0.00    -0.247 OA
HETATM    4  N   UNL     1      42.785 -12.310   7.095  1.00  0.00    -0.309 N 
HETATM    5  H   UNL     1      42.955 -11.506   9.357  1.00  0.00     0.165 HD
HETATM    6  H   UNL     1      43.169 -12.992   7.731  1.00  0.00     0.170 HD
ENDROOT
BRANCH   1   7
HETATM    7  C   UNL     1      43.909  -9.626   9.283  1.00  0.00     0.121 C 
BRANCH   7   8
HETATM    8  C   UNL     1      45.434  -9.625   9.461  1.00  0.00     0.056 C 
BRANCH   8   9
HETATM    9  C   UNL     1      46.148  -9.079   8.231  1.00  0.00     0.166 C 
BRANCH   9  10
HETATM   10  O   UNL     1      46.268 -10.124   7.272  1.00  0.00    -0.401 OA
HETATM   11  H   UNL     1      45.675  -9.903   6.534  1.00  0.00     0.209 HD
ENDBRANCH   9  10
ENDBRANCH   8   9
ENDBRANCH   7   8
BRANCH   7  12
HETATM   12  C   UNL     1      43.197  -9.319  10.591  1.00  0.00    -0.032 A 
HETATM   13  C   UNL     1      43.864  -8.594  11.594  1.00  0.00     0.009 A 
HETATM   14  C   UNL     1      43.244  -8.318  12.816  1.00  0.00     0.004 A 
HETATM   15  C   UNL     1      41.942  -8.754  13.048  1.00  0.00     0.042 A 
HETATM   16  C   UNL     1      41.273  -9.460  12.056  1.00  0.00     0.117 A 
HETATM   17  F   UNL     1      40.018  -9.875  12.274  1.00  0.00    -0.206 F 
HETATM   18  C   UNL     1      41.883  -9.746  10.838  1.00  0.00     0.051 A 
ENDBRANCH   7  12
ENDBRANCH   1   7
BRANCH   4  19
HETATM   19  C   UNL     1      42.323 -12.792   5.855  1.00  0.00     0.036 A 
HETATM   20  C   UNL     1      40.982 -13.172   5.763  1.00  0.00     0.030 A 
HETATM   21  C   UNL     1      40.468 -13.688   4.565  1.00  0.00     0.014 A 
HETATM   22  C   UNL     1      41.276 -13.813   3.426  1.00  0.00    -0.023 A 
HETATM   23  C   UNL     1      42.610 -13.389   3.521  1.00  0.00     0.014 A 
HETATM   24  C   UNL     1      43.129 -12.888   4.723  1.00  0.00     0.030 A 
BRANCH  22  25
HETATM   25  C   UNL     1      40.734 -14.369   2.194  1.00  0.00     0.010 A 
HETATM   26  C   UNL     1      40.855 -13.938   0.848  1.00  0.00     0.152 A 
HETATM   27  N   UNL     1      40.186 -14.710  -0.013  1.00  0.00    -0.187 NA
HETATM   28  N   UNL     1      39.626 -15.640   0.773  1.00  0.00    -0.289 N 
HETATM   29  H   UNL     1      39.051 -16.354   0.340  1.00  0.00     0.188 HD
HETATM   30  C   UNL     1      39.921 -15.481   2.096  1.00  0.00     0.123 A 
ENDBRANCH  22  25
ENDBRANCH   4  19
TORSDOF 7
ENDMDL
MODEL 10
REMARK VINA RESULT:      -7.4      6.806      8.542
REMARK  7 active torsions:
REMARK  status: ('A' for Active; 'I' for Inactive)
REMARK    1  A    between atoms: O_1  and  C_2 
REMARK    2  A    between atoms: C_2  and  C_3 
REMARK    3  A    between atoms: C_3  and  C_4 
REMARK    4  A    between atoms: C_4  and  N_5 
REMARK    5  A    between atoms: C_4  and  C_21 
REMARK       I    between atoms: N_5  and  C_6 
REMARK       I    between atoms: C_6  and  N_8 
REMARK    6  A    between atoms: N_8  and  C_9 
REMARK    7  A    between atoms: C_12  and  C_15 
ROOT
HETATM    1  N   UNL     1      41.233 -12.908  -0.170  1.00  0.00    -0.334 N 
HETATM    2  C   UNL     1      41.166 -14.001   0.672  1.00  0.00     0.321 C 
HETATM    3  O   UNL     1      40.136 -14.630   0.867  1.00  0.00    -0.247 OA
HETATM    4  N   UNL     1      42.419 -14.296   1.167  1.00  0.00    -0.309 N 
HETATM    5  H   UNL     1      41.890 -12.198   0.116  1.00  0.00     0.165 HD
HETATM    6  H   UNL     1      43.184 -13.917   0.633  1.00  0.00     0.170 HD
ENDROOT
BRANCH   1   7
HETATM    7  C   UNL     1      40.052 -12.446  -0.890  1.00  0.00     0.121 C 
BRANCH   7   8
HETATM    8  C   UNL     1      40.135 -12.846  -2.371  1.00  0.00     0.056 C 
BRANCH   8   9
HETATM    9  C   UNL     1      39.469 -14.192  -2.632  1.00  0.00     0.166 C 
BRANCH   9  10
HETATM   10  O   UNL     1      38.534 -14.448  -1.592  1.00  0.00    -0.401 OA
HETATM   11  H   UNL     1      39.035 -14.480  -0.759  1.00  0.00     0.209 HD
ENDBRANCH   9  10
ENDBRANCH   8   9
ENDBRANCH   7   8
BRANCH   7  12
HETATM   12  C   UNL     1      39.869 -10.946  -0.729  1.00  0.00    -0.032 A 
HETATM   13  C   UNL     1      39.236 -10.209  -1.746  1.00  0.00     0.009 A 
HETATM   14  C   UNL     1      39.074  -8.825  -1.638  1.00  0.00     0.004 A 
HETATM   15  C   UNL     1      39.534  -8.159  -0.504  1.00  0.00     0.042 A 
HETATM   16  C   UNL     1      40.149  -8.883   0.509  1.00  0.00     0.117 A 
HETATM   17  F   UNL     1      40.586  -8.246   1.603  1.00  0.00    -0.206 F 
HETATM   18  C   UNL     1      40.321 -10.261   0.409  1.00  0.00     0.051 A 
ENDBRANCH   7  12
ENDBRANCH   1   7
BRANCH   4  19
HETATM   19  C   UNL     1      42.735 -15.314   2.087  1.00  0.00     0.036 A 
HETATM   20  C   UNL     1      43.021 -16.585   1.581  1.00  0.00     0.030 A 
HETATM   21  C   UNL     1      43.314 -17.648   2.445  1.00  0.00     0.014 A 
HETATM   22  C   UNL     1      43.352 -17.461   3.834  1.00  0.00    -0.023 A 
HETATM   23  C   UNL     1      43.103 -16.172   4.327  1.00  0.00     0.014 A 
HETATM   24  C   UNL     1      42.794 -15.111   3.464  1.00  0.00     0.030 A 
BRANCH  22  25
HETATM   25  C   UNL     1      43.638 -18.580   4.722  1.00  0.00     0.010 A 
HETATM   26  C   UNL     1      44.178 -19.864   4.453  1.00  0.00     0.152 A 
HETATM   27  N   UNL     1      44.272 -20.633   5.542  1.00  0.00    -0.187 NA
HETATM   28  N   UNL     1      43.788 -19.851   6.518  1.00  0.00    -0.289 N 
HETATM   29  H   UNL     1      43.751 -20.224   7.460  1.00  0.00     0.188 HD
HETATM   30  C   UNL     1      43.396 -18.618   6.081  1.00  0.00     0.123 A 
ENDBRANCH  22  25
ENDBRANCH   4  19
TORSDOF 7
ENDMDL
