MODEL 1
REMARK VINA RESULT:      -8.1      0.000      0.000
REMARK  6 active torsions:
REMARK  status: ('A' for Active; 'I' for Inactive)
REMARK    1  A    between atoms: C_2  and  C_3 
REMARK       I    between atoms: C_3  and  N_4 
REMARK    2  A    between atoms: N_4  and  C_5 
REMARK    3  A    between atoms: C_7  and  N_8 
REMARK       I    between atoms: N_8  and  C_9 
REMARK    4  A    between atoms: C_9  and  C_10 
REMARK    5  A    between atoms: C_12  and  O_13 
REMARK    6  A    between atoms: O_13  and  C_14 
ROOT
HETATM    1  N   UNL     1      43.988 -12.341   5.955  1.00  0.00    -0.323 N 
HETATM    2  C   UNL     1      43.506 -11.976   4.710  1.00  0.00     0.256 C 
HETATM    3  O   UNL     1      43.468 -10.842   4.246  1.00  0.00    -0.267 OA
HETATM    4  H   UNL     1      43.824 -13.291   6.264  1.00  0.00     0.169 HD
ENDROOT
BRANCH   1   5
HETATM    5  C   UNL     1      44.624 -11.501   6.899  1.00  0.00     0.037 A 
HETATM    6  C   UNL     1      43.869 -11.101   8.015  1.00  0.00     0.059 A 
HETATM    7  C   UNL     1      44.419 -10.272   8.999  1.00  0.00     0.036 A 
HETATM    8  C   UNL     1      45.743  -9.844   8.862  1.00  0.00     0.029 A 
HETATM    9  C   UNL     1      46.503 -10.242   7.763  1.00  0.00     0.004 A 
HETATM   10  C   UNL     1      45.945 -11.068   6.787  1.00  0.00     0.029 A 
BRANCH   7  11
HETATM   11  N   UNL     1      43.720  -9.827  10.141  1.00  0.00    -0.327 N 
HETATM   12  C   UNL     1      43.577 -10.477  11.353  1.00  0.00     0.221 C 
HETATM   13  O   UNL     1      44.040 -11.571  11.656  1.00  0.00    -0.273 OA
HETATM   14  H   UNL     1      43.275  -8.922  10.057  1.00  0.00     0.169 HD
BRANCH  12  15
HETATM   15  C   UNL     1      42.747  -9.685  12.347  1.00  0.00     0.098 C 
HETATM   16  C   UNL     1      43.254  -8.262  12.508  1.00  0.00     0.014 C 
ENDBRANCH  12  15
ENDBRANCH   7  11
ENDBRANCH   1   5
BRANCH   2  17
HETATM   17  C   UNL     1      42.952 -13.078   3.876  1.00  0.00     0.037 A 
HETATM   18  C   UNL     1      42.948 -14.408   4.294  1.00  0.00     0.075 A 
HETATM   19  C   UNL     1      42.474 -15.357   3.407  1.00  0.00     0.165 A 
HETATM   20  N   UNL     1      42.006 -15.077   2.174  1.00  0.00    -0.237 NA
HETATM   21  C   UNL     1      42.020 -13.784   1.795  1.00  0.00     0.120 A 
HETATM   22  C   UNL     1      42.484 -12.759   2.598  1.00  0.00     0.036 A 
BRANCH  19  23
HETATM   23  O   UNL     1      42.494 -16.672   3.832  1.00  0.00    -0.329 OA
BRANCH  23  24
HETATM   24  C   UNL     1      43.440 -17.535   3.161  1.00  0.00     0.130 C 
HETATM   25  C   UNL     1      43.969 -18.710   4.025  1.00  0.00     0.032 C 
HETATM   26  C   UNL     1      43.965 -19.566   2.746  1.00  0.00     0.005 C 
HETATM   27  C   UNL     1      42.879 -18.620   2.203  1.00  0.00     0.032 C 
ENDBRANCH  23  24
ENDBRANCH  19  23
ENDBRANCH   2  17
TORSDOF 6
ENDMDL
MODEL 2
REMARK VINA RESULT:      -8.0      1.426      1.547
REMARK  6 active torsions:
REMARK  status: ('A' for Active; 'I' for Inactive)
REMARK    1  A    between atoms: C_2  and  C_3 
REMARK       I    between atoms: C_3  and  N_4 
REMARK    2  A    between atoms: N_4  and  C_5 
REMARK    3  A    between atoms: C_7  and  N_8 
REMARK       I    between atoms: N_8  and  C_9 
REMARK    4  A    between atoms: C_9  and  C_10 
REMARK    5  A    between atoms: C_12  and  O_13 
REMARK    6  A    between atoms: O_13  and  C_14 
ROOT
HETATM    1  N   UNL     1      43.784 -12.472   5.936  1.00  0.00    -0.323 N 
HETATM    2  C   UNL     1      43.441 -13.797   6.133  1.00  0.00     0.256 C 
HETATM    3  O   UNL     1      43.738 -14.492   7.099  1.00  0.00    -0.267 OA
HETATM    4  H   UNL     1      43.596 -12.066   5.028  1.00  0.00     0.169 HD
ENDROOT
BRANCH   1   5
HETATM    5  C   UNL     1      44.458 -11.624   6.846  1.00  0.00     0.037 A 
HETATM    6  C   UNL     1      43.741 -11.193   7.975  1.00  0.00     0.059 A 
HETATM    7  C   UNL     1      44.329 -10.354   8.927  1.00  0.00     0.036 A 
HETATM    8  C   UNL     1      45.654  -9.947   8.745  1.00  0.00     0.029 A 
HETATM    9  C   UNL     1      46.377 -10.375   7.632  1.00  0.00     0.004 A 
HETATM   10  C   UNL     1      45.781 -11.211   6.688  1.00  0.00     0.029 A 
BRANCH   7  11
HETATM   11  N   UNL     1      43.669  -9.878  10.080  1.00  0.00    -0.327 N 
HETATM   12  C   UNL     1      43.576 -10.491  11.316  1.00  0.00     0.221 C 
HETATM   13  O   UNL     1      44.058 -11.573  11.636  1.00  0.00    -0.273 OA
HETATM   14  H   UNL     1      43.214  -8.979   9.985  1.00  0.00     0.169 HD
BRANCH  12  15
HETATM   15  C   UNL     1      42.778  -9.674  12.316  1.00  0.00     0.098 C 
HETATM   16  C   UNL     1      43.324  -8.265  12.467  1.00  0.00     0.014 C 
ENDBRANCH  12  15
ENDBRANCH   7  11
ENDBRANCH   1   5
BRANCH   2  17
HETATM   17  C   UNL     1      42.659 -14.440   5.041  1.00  0.00     0.037 A 
HETATM   18  C   UNL     1      43.178 -15.460   4.245  1.00  0.00     0.075 A 
HETATM   19  C   UNL     1      42.388 -15.932   3.214  1.00  0.00     0.165 A 
HETATM   20  N   UNL     1      41.148 -15.480   2.938  1.00  0.00    -0.237 NA
HETATM   21  C   UNL     1      40.670 -14.494   3.723  1.00  0.00     0.120 A 
HETATM   22  C   UNL     1      41.381 -13.942   4.771  1.00  0.00     0.036 A 
BRANCH  19  23
HETATM   23  O   UNL     1      42.926 -16.931   2.425  1.00  0.00    -0.329 OA
BRANCH  23  24
HETATM   24  C   UNL     1      42.919 -18.258   2.999  1.00  0.00     0.130 C 
HETATM   25  C   UNL     1      42.986 -19.411   1.963  1.00  0.00     0.032 C 
HETATM   26  C   UNL     1      43.858 -20.179   2.972  1.00  0.00     0.005 C 
HETATM   27  C   UNL     1      44.258 -18.812   3.557  1.00  0.00     0.032 C 
ENDBRANCH  23  24
ENDBRANCH  19  23
ENDBRANCH   2  17
TORSDOF 6
ENDMDL
MODEL 3
REMARK VINA RESULT:      -7.9      2.016      9.255
REMARK  6 active torsions:
REMARK  status: ('A' for Active; 'I' for Inactive)
REMARK    1  A    between atoms: C_2  and  C_3 
REMARK       I    between atoms: C_3  and  N_4 
REMARK    2  A    between atoms: N_4  and  C_5 
REMARK    3  A    between atoms: C_7  and  N_8 
REMARK       I    between atoms: N_8  and  C_9 
REMARK    4  A    between atoms: C_9  and  C_10 
REMARK    5  A    between atoms: C_12  and  O_13 
REMARK    6  A    between atoms: O_13  and  C_14 
ROOT
HETATM    1  N   UNL     1      43.238 -13.256   7.066  1.00  0.00    -0.323 N 
HETATM    2  C   UNL     1      43.779 -12.153   6.430  1.00  0.00     0.256 C 
HETATM    3  O   UNL     1      43.788 -11.938   5.223  1.00  0.00    -0.267 OA
HETATM    4  H   UNL     1      43.430 -13.373   8.053  1.00  0.00     0.169 HD
ENDROOT
BRANCH   1   5
HETATM    5  C   UNL     1      42.502 -14.305   6.467  1.00  0.00     0.037 A 
HETATM    6  C   UNL     1      43.234 -15.329   5.842  1.00  0.00     0.059 A 
HETATM    7  C   UNL     1      42.588 -16.406   5.226  1.00  0.00     0.036 A 
HETATM    8  C   UNL     1      41.191 -16.457   5.242  1.00  0.00     0.029 A 
HETATM    9  C   UNL     1      40.455 -15.451   5.866  1.00  0.00     0.004 A 
HETATM   10  C   UNL     1      41.109 -14.381   6.477  1.00  0.00     0.029 A 
BRANCH   7  11
HETATM   11  N   UNL     1      43.257 -17.465   4.576  1.00  0.00    -0.327 N 
HETATM   12  C   UNL     1      43.284 -17.746   3.222  1.00  0.00     0.221 C 
HETATM   13  O   UNL     1      42.722 -17.116   2.332  1.00  0.00    -0.273 OA
HETATM   14  H   UNL     1      43.782 -18.087   5.177  1.00  0.00     0.169 HD
BRANCH  12  15
HETATM   15  C   UNL     1      44.111 -18.976   2.896  1.00  0.00     0.098 C 
HETATM   16  C   UNL     1      43.323 -19.997   2.096  1.00  0.00     0.014 C 
ENDBRANCH  12  15
ENDBRANCH   7  11
ENDBRANCH   1   5
BRANCH   2  17
HETATM   17  C   UNL     1      44.440 -11.150   7.312  1.00  0.00     0.037 A 
HETATM   18  C   UNL     1      43.741 -10.417   8.270  1.00  0.00     0.075 A 
HETATM   19  C   UNL     1      44.443  -9.462   8.982  1.00  0.00     0.165 A 
HETATM   20  N   UNL     1      45.757  -9.205   8.817  1.00  0.00    -0.237 NA
HETATM   21  C   UNL     1      46.408  -9.929   7.885  1.00  0.00     0.120 A 
HETATM   22  C   UNL     1      45.799 -10.898   7.110  1.00  0.00     0.036 A 
BRANCH  19  23
HETATM   23  O   UNL     1      43.731  -8.732   9.915  1.00  0.00    -0.329 OA
BRANCH  23  24
HETATM   24  C   UNL     1      43.680  -9.295  11.246  1.00  0.00     0.130 C 
HETATM   25  C   UNL     1      43.439  -8.259  12.376  1.00  0.00     0.032 C 
HETATM   26  C   UNL     1      42.594  -9.331  13.088  1.00  0.00     0.005 C 
HETATM   27  C   UNL     1      42.351  -9.956  11.702  1.00  0.00     0.032 C 
ENDBRANCH  23  24
ENDBRANCH  19  23
ENDBRANCH   2  17
TORSDOF 6
ENDMDL
MODEL 4
REMARK VINA RESULT:      -7.3      2.206      3.188
REMARK  6 active torsions:
REMARK  status: ('A' for Active; 'I' for Inactive)
REMARK    1  A    between atoms: C_2  and  C_3 
REMARK       I    between atoms: C_3  and  N_4 
REMARK    2  A    between atoms: N_4  and  C_5 
REMARK    3  A    between atoms: C_7  and  N_8 
REMARK       I    between atoms: N_8  and  C_9 
REMARK    4  A    between atoms: C_9  and  C_10 
REMARK    5  A    between atoms: C_12  and  O_13 
REMARK    6  A    between atoms: O_13  and  C_14 
ROOT
HETATM    1  N   UNL     1      43.747 -12.666   6.256  1.00  0.00    -0.323 N 
HETATM    2  C   UNL     1      43.213 -13.866   6.691  1.00  0.00     0.256 C 
HETATM    3  O   UNL     1      43.342 -14.360   7.806  1.00  0.00    -0.267 OA
HETATM    4  H   UNL     1      43.683 -12.452   5.268  1.00  0.00     0.169 HD
ENDROOT
BRANCH   1   5
HETATM    5  C   UNL     1      44.460 -11.723   7.031  1.00  0.00     0.037 A 
HETATM    6  C   UNL     1      43.812 -11.196   8.161  1.00  0.00     0.059 A 
HETATM    7  C   UNL     1      44.444 -10.259   8.985  1.00  0.00     0.036 A 
HETATM    8  C   UNL     1      45.743  -9.849   8.673  1.00  0.00     0.029 A 
HETATM    9  C   UNL     1      46.399 -10.372   7.559  1.00  0.00     0.004 A 
HETATM   10  C   UNL     1      45.760 -11.305   6.743  1.00  0.00     0.029 A 
BRANCH   7  11
HETATM   11  N   UNL     1      43.852  -9.684  10.130  1.00  0.00    -0.327 N 
HETATM   12  C   UNL     1      43.673 -10.265  11.372  1.00  0.00     0.221 C 
HETATM   13  O   UNL     1      44.001 -11.399  11.705  1.00  0.00    -0.273 OA
HETATM   14  H   UNL     1      43.526  -8.732  10.024  1.00  0.00     0.169 HD
BRANCH  12  15
HETATM   15  C   UNL     1      42.992  -9.335  12.360  1.00  0.00     0.098 C 
HETATM   16  C   UNL     1      41.650  -9.876  12.820  1.00  0.00     0.014 C 
ENDBRANCH  12  15
ENDBRANCH   7  11
ENDBRANCH   1   5
BRANCH   2  17
HETATM   17  C   UNL     1      42.434 -14.638   5.684  1.00  0.00     0.037 A 
HETATM   18  C   UNL     1      42.550 -14.415   4.313  1.00  0.00     0.075 A 
HETATM   19  C   UNL     1      41.724 -15.141   3.474  1.00  0.00     0.165 A 
HETATM   20  N   UNL     1      40.827 -16.055   3.896  1.00  0.00    -0.237 NA
HETATM   21  C   UNL     1      40.736 -16.252   5.226  1.00  0.00     0.120 A 
HETATM   22  C   UNL     1      41.505 -15.571   6.151  1.00  0.00     0.036 A 
BRANCH  19  23
HETATM   23  O   UNL     1      41.840 -14.894   2.119  1.00  0.00    -0.329 OA
BRANCH  23  24
HETATM   24  C   UNL     1      40.672 -14.332   1.480  1.00  0.00     0.130 C 
HETATM   25  C   UNL     1      40.979 -13.325   0.340  1.00  0.00     0.032 C 
HETATM   26  C   UNL     1      39.750 -13.886  -0.398  1.00  0.00     0.005 C 
HETATM   27  C   UNL     1      39.956 -15.187   0.399  1.00  0.00     0.032 C 
ENDBRANCH  23  24
ENDBRANCH  19  23
ENDBRANCH   2  17
TORSDOF 6
ENDMDL
MODEL 5
REMARK VINA RESULT:      -7.2      1.801      2.224
REMARK  6 active torsions:
REMARK  status: ('A' for Active; 'I' for Inactive)
REMARK    1  A    between atoms: C_2  and  C_3 
REMARK       I    between atoms: C_3  and  N_4 
REMARK    2  A    between atoms: N_4  and  C_5 
REMARK    3  A    between atoms: C_7  and  N_8 
REMARK       I    between atoms: N_8  and  C_9 
REMARK    4  A    between atoms: C_9  and  C_10 
REMARK    5  A    between atoms: C_12  and  O_13 
REMARK    6  A    between atoms: O_13  and  C_14 
ROOT
HETATM    1  N   UNL     1      43.745 -11.018   6.905  1.00  0.00    -0.323 N 
HETATM    2  C   UNL     1      43.809 -12.346   6.520  1.00  0.00     0.256 C 
HETATM    3  O   UNL     1      44.267 -13.274   7.177  1.00  0.00    -0.267 OA
HETATM    4  H   UNL     1      43.476 -10.338   6.205  1.00  0.00     0.169 HD
ENDROOT
BRANCH   1   5
HETATM    5  C   UNL     1      44.100 -10.480   8.163  1.00  0.00     0.037 A 
HETATM    6  C   UNL     1      43.192 -10.660   9.220  1.00  0.00     0.059 A 
HETATM    7  C   UNL     1      43.463 -10.162  10.499  1.00  0.00     0.036 A 
HETATM    8  C   UNL     1      44.663  -9.479  10.719  1.00  0.00     0.029 A 
HETATM    9  C   UNL     1      45.575  -9.302   9.680  1.00  0.00     0.004 A 
HETATM   10  C   UNL     1      45.295  -9.802   8.409  1.00  0.00     0.029 A 
BRANCH   7  11
HETATM   11  N   UNL     1      42.596 -10.300  11.603  1.00  0.00    -0.327 N 
HETATM   12  C   UNL     1      41.450  -9.576  11.877  1.00  0.00     0.221 C 
HETATM   13  O   UNL     1      40.976  -8.671  11.198  1.00  0.00    -0.273 OA
HETATM   14  H   UNL     1      42.846 -11.020  12.270  1.00  0.00     0.169 HD
BRANCH  12  15
HETATM   15  C   UNL     1      40.778 -10.009  13.167  1.00  0.00     0.098 C 
HETATM   16  C   UNL     1      39.410 -10.620  12.920  1.00  0.00     0.014 C 
ENDBRANCH  12  15
ENDBRANCH   7  11
ENDBRANCH   1   5
BRANCH   2  17
HETATM   17  C   UNL     1      43.294 -12.657   5.158  1.00  0.00     0.037 A 
HETATM   18  C   UNL     1      42.876 -13.935   4.787  1.00  0.00     0.075 A 
HETATM   19  C   UNL     1      42.486 -14.124   3.475  1.00  0.00     0.165 A 
HETATM   20  N   UNL     1      42.471 -13.153   2.539  1.00  0.00    -0.237 NA
HETATM   21  C   UNL     1      42.879 -11.928   2.924  1.00  0.00     0.120 A 
HETATM   22  C   UNL     1      43.302 -11.634   4.207  1.00  0.00     0.036 A 
BRANCH  19  23
HETATM   23  O   UNL     1      42.091 -15.400   3.120  1.00  0.00    -0.329 OA
BRANCH  23  24
HETATM   24  C   UNL     1      43.160 -16.337   2.853  1.00  0.00     0.130 C 
HETATM   25  C   UNL     1      43.619 -17.163   4.084  1.00  0.00     0.032 C 
HETATM   26  C   UNL     1      43.830 -18.349   3.128  1.00  0.00     0.005 C 
HETATM   27  C   UNL     1      42.786 -17.697   2.204  1.00  0.00     0.032 C 
ENDBRANCH  23  24
ENDBRANCH  19  23
ENDBRANCH   2  17
TORSDOF 6
ENDMDL
MODEL 6
REMARK VINA RESULT:      -6.9      4.500      7.494
REMARK  6 active torsions:
REMARK  status: ('A' for Active; 'I' for Inactive)
REMARK    1  A    between atoms: C_2  and  C_3 
REMARK       I    between atoms: C_3  and  N_4 
REMARK    2  A    between atoms: N_4  and  C_5 
REMARK    3  A    between atoms: C_7  and  N_8 
REMARK       I    between atoms: N_8  and  C_9 
REMARK    4  A    between atoms: C_9  and  C_10 
REMARK    5  A    between atoms: C_12  and  O_13 
REMARK    6  A    between atoms: O_13  and  C_14 
ROOT
HETATM    1  N   UNL     1      42.278 -13.633   3.797  1.00  0.00    -0.323 N 
HETATM    2  C   UNL     1      41.044 -13.629   3.171  1.00  0.00     0.256 C 
HETATM    3  O   UNL     1      40.095 -14.363   3.424  1.00  0.00    -0.267 OA
HETATM    4  H   UNL     1      43.015 -13.073   3.388  1.00  0.00     0.169 HD
ENDROOT
BRANCH   1   5
HETATM    5  C   UNL     1      42.660 -14.410   4.915  1.00  0.00     0.037 A 
HETATM    6  C   UNL     1      42.749 -15.800   4.732  1.00  0.00     0.059 A 
HETATM    7  C   UNL     1      43.121 -16.645   5.784  1.00  0.00     0.036 A 
HETATM    8  C   UNL     1      43.413 -16.084   7.031  1.00  0.00     0.029 A 
HETATM    9  C   UNL     1      43.337 -14.705   7.221  1.00  0.00     0.004 A 
HETATM   10  C   UNL     1      42.963 -13.873   6.166  1.00  0.00     0.029 A 
BRANCH   7  11
HETATM   11  N   UNL     1      43.225 -18.048   5.675  1.00  0.00    -0.327 N 
HETATM   12  C   UNL     1      44.114 -18.774   4.904  1.00  0.00     0.221 C 
HETATM   13  O   UNL     1      44.982 -18.321   4.166  1.00  0.00    -0.273 OA
HETATM   14  H   UNL     1      42.571 -18.580   6.234  1.00  0.00     0.169 HD
BRANCH  12  15
HETATM   15  C   UNL     1      43.920 -20.273   5.043  1.00  0.00     0.098 C 
HETATM   16  C   UNL     1      43.876 -20.970   3.695  1.00  0.00     0.014 C 
ENDBRANCH  12  15
ENDBRANCH   7  11
ENDBRANCH   1   5
BRANCH   2  17
HETATM   17  C   UNL     1      40.878 -12.651   2.059  1.00  0.00     0.037 A 
HETATM   18  C   UNL     1      39.973 -12.846   1.017  1.00  0.00     0.075 A 
HETATM   19  C   UNL     1      39.955 -11.909   0.001  1.00  0.00     0.165 A 
HETATM   20  N   UNL     1      40.745 -10.816  -0.038  1.00  0.00    -0.237 NA
HETATM   21  C   UNL     1      41.610 -10.652   0.983  1.00  0.00     0.120 A 
HETATM   22  C   UNL     1      41.718 -11.535   2.040  1.00  0.00     0.036 A 
BRANCH  19  23
HETATM   23  O   UNL     1      39.065 -12.127  -1.032  1.00  0.00    -0.329 OA
BRANCH  23  24
HETATM   24  C   UNL     1      38.919 -13.501  -1.457  1.00  0.00     0.130 C 
HETATM   25  C   UNL     1      37.822 -13.733  -2.530  1.00  0.00     0.032 C 
HETATM   26  C   UNL     1      38.744 -14.799  -3.148  1.00  0.00     0.005 C 
HETATM   27  C   UNL     1      39.924 -14.045  -2.509  1.00  0.00     0.032 C 
ENDBRANCH  23  24
ENDBRANCH  19  23
ENDBRANCH   2  17
TORSDOF 6
ENDMDL
MODEL 7
REMARK VINA RESULT:      -6.9      1.983      2.602
REMARK  6 active torsions:
REMARK  status: ('A' for Active; 'I' for Inactive)
REMARK    1  A    between atoms: C_2  and  C_3 
REMARK       I    between atoms: C_3  and  N_4 
REMARK    2  A    between atoms: N_4  and  C_5 
REMARK    3  A    between atoms: C_7  and  N_8 
REMARK       I    between atoms: N_8  and  C_9 
REMARK    4  A    between atoms: C_9  and  C_10 
REMARK    5  A    between atoms: C_12  and  O_13 
REMARK    6  A    between atoms: O_13  and  C_14 
ROOT
HETATM    1  N   UNL     1      41.479 -12.137   4.630  1.00  0.00    -0.323 N 
HETATM    2  C   UNL     1      42.402 -12.780   3.825  1.00  0.00     0.256 C 
HETATM    3  O   UNL     1      43.533 -12.390   3.557  1.00  0.00    -0.267 OA
HETATM    4  H   UNL     1      40.534 -12.500   4.646  1.00  0.00     0.169 HD
ENDROOT
BRANCH   1   5
HETATM    5  C   UNL     1      41.683 -10.957   5.382  1.00  0.00     0.037 A 
HETATM    6  C   UNL     1      42.092 -11.109   6.718  1.00  0.00     0.059 A 
HETATM    7  C   UNL     1      42.319  -9.995   7.535  1.00  0.00     0.036 A 
HETATM    8  C   UNL     1      42.137  -8.716   7.002  1.00  0.00     0.029 A 
HETATM    9  C   UNL     1      41.740  -8.554   5.675  1.00  0.00     0.004 A 
HETATM   10  C   UNL     1      41.515  -9.670   4.870  1.00  0.00     0.029 A 
BRANCH   7  11
HETATM   11  N   UNL     1      42.724 -10.072   8.884  1.00  0.00    -0.327 N 
HETATM   12  C   UNL     1      43.944 -10.496   9.379  1.00  0.00     0.221 C 
HETATM   13  O   UNL     1      44.904 -10.886   8.724  1.00  0.00    -0.273 OA
HETATM   14  H   UNL     1      42.037  -9.777   9.566  1.00  0.00     0.169 HD
BRANCH  12  15
HETATM   15  C   UNL     1      44.011 -10.443  10.895  1.00  0.00     0.098 C 
HETATM   16  C   UNL     1      43.865  -9.027  11.423  1.00  0.00     0.014 C 
ENDBRANCH  12  15
ENDBRANCH   7  11
ENDBRANCH   1   5
BRANCH   2  17
HETATM   17  C   UNL     1      41.952 -14.057   3.205  1.00  0.00     0.037 A 
HETATM   18  C   UNL     1      42.828 -15.104   2.922  1.00  0.00     0.075 A 
HETATM   19  C   UNL     1      42.312 -16.214   2.280  1.00  0.00     0.165 A 
HETATM   20  N   UNL     1      41.018 -16.353   1.924  1.00  0.00    -0.237 NA
HETATM   21  C   UNL     1      40.193 -15.327   2.211  1.00  0.00     0.120 A 
HETATM   22  C   UNL     1      40.608 -14.168   2.838  1.00  0.00     0.036 A 
BRANCH  19  23
HETATM   23  O   UNL     1      43.198 -17.234   1.990  1.00  0.00    -0.329 OA
BRANCH  23  24
HETATM   24  C   UNL     1      43.037 -18.445   2.764  1.00  0.00     0.130 C 
HETATM   25  C   UNL     1      43.180 -19.757   1.948  1.00  0.00     0.032 C 
HETATM   26  C   UNL     1      43.859 -20.374   3.184  1.00  0.00     0.005 C 
HETATM   27  C   UNL     1      44.251 -18.943   3.593  1.00  0.00     0.032 C 
ENDBRANCH  23  24
ENDBRANCH  19  23
ENDBRANCH   2  17
TORSDOF 6
ENDMDL
MODEL 8
REMARK VINA RESULT:      -6.9      2.115      9.180
REMARK  6 active torsions:
REMARK  status: ('A' for Active; 'I' for Inactive)
REMARK    1  A    between atoms: C_2  and  C_3 
REMARK       I    between atoms: C_3  and  N_4 
REMARK    2  A    between atoms: N_4  and  C_5 
REMARK    3  A    between atoms: C_7  and  N_8 
REMARK       I    between atoms: N_8  and  C_9 
REMARK    4  A    between atoms: C_9  and  C_10 
REMARK    5  A    between atoms: C_12  and  O_13 
REMARK    6  A    between atoms: O_13  and  C_14 
ROOT
HETATM    1  N   UNL     1      43.360 -12.900   7.369  1.00  0.00    -0.323 N 
HETATM    2  C   UNL     1      44.438 -12.054   7.177  1.00  0.00     0.256 C 
HETATM    3  O   UNL     1      45.377 -12.232   6.410  1.00  0.00    -0.267 OA
HETATM    4  H   UNL     1      42.734 -12.697   8.138  1.00  0.00     0.169 HD
ENDROOT
BRANCH   1   5
HETATM    5  C   UNL     1      43.072 -14.085   6.654  1.00  0.00     0.037 A 
HETATM    6  C   UNL     1      42.818 -13.961   5.278  1.00  0.00     0.059 A 
HETATM    7  C   UNL     1      42.526 -15.082   4.493  1.00  0.00     0.036 A 
HETATM    8  C   UNL     1      42.493 -16.342   5.098  1.00  0.00     0.029 A 
HETATM    9  C   UNL     1      42.752 -16.478   6.461  1.00  0.00     0.004 A 
HETATM   10  C   UNL     1      43.041 -15.354   7.234  1.00  0.00     0.029 A 
BRANCH   7  11
HETATM   11  N   UNL     1      42.255 -15.032   3.109  1.00  0.00    -0.327 N 
HETATM   12  C   UNL     1      41.029 -15.148   2.481  1.00  0.00     0.221 C 
HETATM   13  O   UNL     1      39.942 -15.319   3.023  1.00  0.00    -0.273 OA
HETATM   14  H   UNL     1      43.059 -14.889   2.510  1.00  0.00     0.169 HD
BRANCH  12  15
HETATM   15  C   UNL     1      41.133 -15.047   0.970  1.00  0.00     0.098 C 
HETATM   16  C   UNL     1      40.932 -13.624   0.479  1.00  0.00     0.014 C 
ENDBRANCH  12  15
ENDBRANCH   7  11
ENDBRANCH   1   5
BRANCH   2  17
HETATM   17  C   UNL     1      44.460 -10.823   8.015  1.00  0.00     0.037 A 
HETATM   18  C   UNL     1      43.471 -10.536   8.954  1.00  0.00     0.075 A 
HETATM   19  C   UNL     1      43.555  -9.330   9.624  1.00  0.00     0.165 A 
HETATM   20  N   UNL     1      44.536  -8.423   9.436  1.00  0.00    -0.237 NA
HETATM   21  C   UNL     1      45.480  -8.726   8.523  1.00  0.00     0.120 A 
HETATM   22  C   UNL     1      45.482  -9.897   7.789  1.00  0.00     0.036 A 
BRANCH  19  23
HETATM   23  O   UNL     1      42.557  -9.054  10.539  1.00  0.00    -0.329 OA
BRANCH  23  24
HETATM   24  C   UNL     1      42.848  -9.404  11.911  1.00  0.00     0.130 C 
HETATM   25  C   UNL     1      43.032  -8.191  12.862  1.00  0.00     0.032 C 
HETATM   26  C   UNL     1      42.345  -9.028  13.956  1.00  0.00     0.005 C 
HETATM   27  C   UNL     1      41.660  -9.813  12.823  1.00  0.00     0.032 C 
ENDBRANCH  23  24
ENDBRANCH  19  23
ENDBRANCH   2  17
TORSDOF 6
ENDMDL
MODEL 9
REMARK VINA RESULT:      -6.9      4.356      7.828
REMARK  6 active torsions:
REMARK  status: ('A' for Active; 'I' for Inactive)
REMARK    1  A    between atoms: C_2  and  C_3 
REMARK       I    between atoms: C_3  and  N_4 
REMARK    2  A    between atoms: N_4  and  C_5 
REMARK    3  A    between atoms: C_7  and  N_8 
REMARK       I    between atoms: N_8  and  C_9 
REMARK    4  A    between atoms: C_9  and  C_10 
REMARK    5  A    between atoms: C_12  and  O_13 
REMARK    6  A    between atoms: O_13  and  C_14 
ROOT
HETATM    1  N   UNL     1      41.654 -15.106   0.750  1.00  0.00    -0.323 N 
HETATM    2  C   UNL     1      40.425 -14.514   0.518  1.00  0.00     0.256 C 
HETATM    3  O   UNL     1      39.553 -14.293   1.351  1.00  0.00    -0.267 OA
HETATM    4  H   UNL     1      42.214 -15.359  -0.054  1.00  0.00     0.169 HD
ENDROOT
BRANCH   1   5
HETATM    5  C   UNL     1      42.192 -15.484   2.002  1.00  0.00     0.037 A 
HETATM    6  C   UNL     1      42.515 -14.454   2.901  1.00  0.00     0.059 A 
HETATM    7  C   UNL     1      43.051 -14.737   4.162  1.00  0.00     0.036 A 
HETATM    8  C   UNL     1      43.260 -16.071   4.525  1.00  0.00     0.029 A 
HETATM    9  C   UNL     1      42.935 -17.101   3.644  1.00  0.00     0.004 A 
HETATM   10  C   UNL     1      42.403 -16.808   2.389  1.00  0.00     0.029 A 
BRANCH   7  11
HETATM   11  N   UNL     1      43.403 -13.755   5.112  1.00  0.00    -0.327 N 
HETATM   12  C   UNL     1      42.557 -12.994   5.898  1.00  0.00     0.221 C 
HETATM   13  O   UNL     1      41.331 -13.038   5.909  1.00  0.00    -0.273 OA
HETATM   14  H   UNL     1      44.395 -13.596   5.231  1.00  0.00     0.169 HD
BRANCH  12  15
HETATM   15  C   UNL     1      43.305 -12.033   6.803  1.00  0.00     0.098 C 
HETATM   16  C   UNL     1      44.755 -11.868   6.386  1.00  0.00     0.014 C 
ENDBRANCH  12  15
ENDBRANCH   7  11
ENDBRANCH   1   5
BRANCH   2  17
HETATM   17  C   UNL     1      40.136 -14.141  -0.895  1.00  0.00     0.037 A 
HETATM   18  C   UNL     1      40.715 -13.035  -1.513  1.00  0.00     0.075 A 
HETATM   19  C   UNL     1      40.318 -12.742  -2.805  1.00  0.00     0.165 A 
HETATM   20  N   UNL     1      39.419 -13.465  -3.505  1.00  0.00    -0.237 NA
HETATM   21  C   UNL     1      38.875 -14.530  -2.883  1.00  0.00     0.120 A 
HETATM   22  C   UNL     1      39.192 -14.902  -1.591  1.00  0.00     0.036 A 
BRANCH  19  23
HETATM   23  O   UNL     1      40.889 -11.632  -3.396  1.00  0.00    -0.329 OA
BRANCH  23  24
HETATM   24  C   UNL     1      40.347 -10.355  -2.990  1.00  0.00     0.130 C 
HETATM   25  C   UNL     1      41.009  -9.126  -3.668  1.00  0.00     0.032 C 
HETATM   26  C   UNL     1      39.619  -8.465  -3.679  1.00  0.00     0.005 C 
HETATM   27  C   UNL     1      39.024  -9.885  -3.653  1.00  0.00     0.032 C 
ENDBRANCH  23  24
ENDBRANCH  19  23
ENDBRANCH   2  17
TORSDOF 6
ENDMDL
MODEL 10
REMARK VINA RESULT:      -6.8      7.015     13.564
REMARK  6 active torsions:
REMARK  status: ('A' for Active; 'I' for Inactive)
REMARK    1  A    between atoms: C_2  and  C_3 
REMARK       I    between atoms: C_3  and  N_4 
REMARK    2  A    between atoms: N_4  and  C_5 
REMARK    3  A    between atoms: C_7  and  N_8 
REMARK       I    between atoms: N_8  and  C_9 
REMARK    4  A    between atoms: C_9  and  C_10 
REMARK    5  A    between atoms: C_12  and  O_13 
REMARK    6  A    between atoms: O_13  and  C_14 
ROOT
HETATM    1  N   UNL     1      41.326  -8.497  15.438  1.00  0.00    -0.323 N 
HETATM    2  C   UNL     1      40.908  -7.268  15.918  1.00  0.00     0.256 C 
HETATM    3  O   UNL     1      40.504  -6.323  15.250  1.00  0.00    -0.267 OA
HETATM    4  H   UNL     1      41.770  -9.131  16.090  1.00  0.00     0.169 HD
ENDROOT
BRANCH   1   5
HETATM    5  C   UNL     1      41.279  -8.946  14.098  1.00  0.00     0.037 A 
HETATM    6  C   UNL     1      42.441  -8.784  13.324  1.00  0.00     0.059 A 
HETATM    7  C   UNL     1      42.483  -9.201  11.989  1.00  0.00     0.036 A 
HETATM    8  C   UNL     1      41.348  -9.791  11.427  1.00  0.00     0.029 A 
HETATM    9  C   UNL     1      40.192  -9.964  12.188  1.00  0.00     0.004 A 
HETATM   10  C   UNL     1      40.160  -9.544  13.518  1.00  0.00     0.029 A 
BRANCH   7  11
HETATM   11  N   UNL     1      43.612  -9.065  11.152  1.00  0.00    -0.327 N 
HETATM   12  C   UNL     1      44.494 -10.052  10.754  1.00  0.00     0.221 C 
HETATM   13  O   UNL     1      44.454 -11.238  11.061  1.00  0.00    -0.273 OA
HETATM   14  H   UNL     1      43.788  -8.132  10.802  1.00  0.00     0.169 HD
BRANCH  12  15
HETATM   15  C   UNL     1      45.594  -9.523   9.850  1.00  0.00     0.098 C 
HETATM   16  C   UNL     1      45.047  -8.643   8.741  1.00  0.00     0.014 C 
ENDBRANCH  12  15
ENDBRANCH   7  11
ENDBRANCH   1   5
BRANCH   2  17
HETATM   17  C   UNL     1      40.992  -7.080  17.393  1.00  0.00     0.037 A 
HETATM   18  C   UNL     1      40.369  -7.940  18.296  1.00  0.00     0.075 A 
HETATM   19  C   UNL     1      40.454  -7.628  19.640  1.00  0.00     0.165 A 
HETATM   20  N   UNL     1      41.110  -6.556  20.131  1.00  0.00    -0.237 NA
HETATM   21  C   UNL     1      41.703  -5.741  19.236  1.00  0.00     0.120 A 
HETATM   22  C   UNL     1      41.668  -5.955  17.871  1.00  0.00     0.036 A 
BRANCH  19  23
HETATM   23  O   UNL     1      39.816  -8.481  20.520  1.00  0.00    -0.329 OA
BRANCH  23  24
HETATM   24  C   UNL     1      40.466  -9.753  20.745  1.00  0.00     0.130 C 
HETATM   25  C   UNL     1      42.013  -9.680  20.843  1.00  0.00     0.032 C 
HETATM   26  C   UNL     1      41.931 -10.786  21.910  1.00  0.00     0.005 C 
HETATM   27  C   UNL     1      40.497 -10.304  22.196  1.00  0.00     0.032 C 
ENDBRANCH  23  24
ENDBRANCH  19  23
ENDBRANCH   2  17
TORSDOF 6
ENDMDL
