MODEL 1
REMARK VINA RESULT:      -9.5      0.000      0.000
REMARK  3 active torsions:
REMARK  status: ('A' for Active; 'I' for Inactive)
REMARK    1  A    between atoms: C_8  and  C_9 
REMARK    2  A    between atoms: C_14  and  C_15 
REMARK    3  A    between atoms: C_16  and  O_17 
ROOT
HETATM    1  C   UNL     1      40.683 -13.444   0.207  1.00  0.00     0.143 A 
HETATM    2  N   UNL     1      39.849 -13.172   1.190  1.00  0.00    -0.223 NA
HETATM    3  C   UNL     1      40.481 -13.539   2.361  1.00  0.00     0.149 A 
HETATM    4  C   UNL     1      41.734 -14.052   2.068  1.00  0.00     0.046 A 
HETATM    5  C   UNL     1      42.839 -14.467   2.973  1.00  0.00     0.070 C 
HETATM    6  C   UNL     1      42.433 -15.489   4.055  1.00  0.00     0.045 C 
HETATM    7  C   UNL     1      40.937 -15.512   4.439  1.00  0.00     0.132 C 
HETATM    8  N   UNL     1      40.360 -14.205   4.696  1.00  0.00    -0.355 N 
HETATM    9  C   UNL     1      39.907 -13.361   3.697  1.00  0.00     0.272 C 
HETATM   10  O   UNL     1      39.058 -12.515   3.970  1.00  0.00    -0.266 OA
HETATM   11  N   UNL     1      41.832 -14.006   0.702  1.00  0.00    -0.341 N 
HETATM   12  H   UNL     1      42.631 -14.280   0.152  1.00  0.00     0.167 HD
HETATM   13  H   UNL     1      39.841 -14.072   5.556  1.00  0.00     0.162 HD
ENDROOT
BRANCH   1  14
HETATM   14  C   UNL     1      40.397 -13.154  -1.224  1.00  0.00     0.059 A 
HETATM   15  C   UNL     1      40.738 -12.028  -1.951  1.00  0.00     0.040 A 
HETATM   16  C   UNL     1      41.462 -10.778  -1.629  1.00  0.00     0.071 C 
HETATM   17  N   UNL     1      40.238 -12.252  -3.207  1.00  0.00    -0.281 N 
HETATM   18  H   UNL     1      40.289 -11.644  -4.017  1.00  0.00     0.189 HD
HETATM   19  N   UNL     1      39.607 -13.424  -3.347  1.00  0.00    -0.179 NA
HETATM   20  C   UNL     1      39.693 -13.987  -2.133  1.00  0.00     0.067 A 
HETATM   21  C   UNL     1      39.083 -15.318  -1.884  1.00  0.00     0.073 C 
ENDBRANCH   1  14
BRANCH   6  22
HETATM   22  C   UNL     1      42.958 -16.883   3.699  1.00  0.00    -0.019 A 
HETATM   23  C   UNL     1      43.861 -17.555   4.552  1.00  0.00     0.074 A 
HETATM   24  C   UNL     1      44.322 -18.832   4.210  1.00  0.00     0.037 A 
HETATM   25  C   UNL     1      43.911 -19.439   3.022  1.00  0.00     0.003 A 
HETATM   26  C   UNL     1      43.048 -18.772   2.161  1.00  0.00     0.001 A 
HETATM   27  C   UNL     1      42.582 -17.500   2.491  1.00  0.00     0.010 A 
BRANCH  23  28
HETATM   28  O   UNL     1      44.237 -16.881   5.685  1.00  0.00    -0.355 OA
HETATM   29  C   UNL     1      43.675 -17.298   6.923  1.00  0.00     0.210 C 
ENDBRANCH  23  28
ENDBRANCH   6  22
TORSDOF 3
ENDMDL
MODEL 2
REMARK VINA RESULT:      -9.2      0.156      1.601
REMARK  3 active torsions:
REMARK  status: ('A' for Active; 'I' for Inactive)
REMARK    1  A    between atoms: C_8  and  C_9 
REMARK    2  A    between atoms: C_14  and  C_15 
REMARK    3  A    between atoms: C_16  and  O_17 
ROOT
HETATM    1  C   UNL     1      40.660 -13.392   0.307  1.00  0.00     0.143 A 
HETATM    2  N   UNL     1      39.853 -13.122   1.312  1.00  0.00    -0.223 NA
HETATM    3  C   UNL     1      40.506 -13.517   2.462  1.00  0.00     0.149 A 
HETATM    4  C   UNL     1      41.744 -14.044   2.134  1.00  0.00     0.046 A 
HETATM    5  C   UNL     1      42.863 -14.489   3.006  1.00  0.00     0.070 C 
HETATM    6  C   UNL     1      42.466 -15.521   4.082  1.00  0.00     0.045 C 
HETATM    7  C   UNL     1      40.979 -15.529   4.500  1.00  0.00     0.132 C 
HETATM    8  N   UNL     1      40.428 -14.217   4.790  1.00  0.00    -0.355 N 
HETATM    9  C   UNL     1      39.965 -13.352   3.814  1.00  0.00     0.272 C 
HETATM   10  O   UNL     1      39.136 -12.497   4.119  1.00  0.00    -0.266 OA
HETATM   11  N   UNL     1      41.812 -13.978   0.766  1.00  0.00    -0.341 N 
HETATM   12  H   UNL     1      42.594 -14.255   0.194  1.00  0.00     0.167 HD
HETATM   13  H   UNL     1      39.931 -14.090   5.663  1.00  0.00     0.162 HD
ENDROOT
BRANCH   1  14
HETATM   14  C   UNL     1      40.347 -13.075  -1.113  1.00  0.00     0.059 A 
HETATM   15  C   UNL     1      39.678 -13.859  -2.034  1.00  0.00     0.040 A 
HETATM   16  C   UNL     1      39.056 -15.201  -1.983  1.00  0.00     0.071 C 
HETATM   17  N   UNL     1      39.664 -13.118  -3.187  1.00  0.00    -0.281 N 
HETATM   18  H   UNL     1      39.263 -13.365  -4.085  1.00  0.00     0.189 HD
HETATM   19  N   UNL     1      40.266 -11.927  -3.083  1.00  0.00    -0.179 NA
HETATM   20  C   UNL     1      40.695 -11.890  -1.813  1.00  0.00     0.067 A 
HETATM   21  C   UNL     1      41.440 -10.706  -1.313  1.00  0.00     0.073 C 
ENDBRANCH   1  14
BRANCH   6  22
HETATM   22  C   UNL     1      42.962 -16.917   3.693  1.00  0.00    -0.019 A 
HETATM   23  C   UNL     1      43.851 -17.628   4.529  1.00  0.00     0.074 A 
HETATM   24  C   UNL     1      44.285 -18.906   4.157  1.00  0.00     0.037 A 
HETATM   25  C   UNL     1      43.861 -19.476   2.956  1.00  0.00     0.003 A 
HETATM   26  C   UNL     1      43.011 -18.771   2.112  1.00  0.00     0.001 A 
HETATM   27  C   UNL     1      42.572 -17.498   2.471  1.00  0.00     0.010 A 
BRANCH  23  28
HETATM   28  O   UNL     1      44.241 -16.989   5.677  1.00  0.00    -0.355 OA
HETATM   29  C   UNL     1      43.621 -17.376   6.897  1.00  0.00     0.210 C 
ENDBRANCH  23  28
ENDBRANCH   6  22
TORSDOF 3
ENDMDL
MODEL 3
REMARK VINA RESULT:      -8.1      3.585      7.191
REMARK  3 active torsions:
REMARK  status: ('A' for Active; 'I' for Inactive)
REMARK    1  A    between atoms: C_8  and  C_9 
REMARK    2  A    between atoms: C_14  and  C_15 
REMARK    3  A    between atoms: C_16  and  O_17 
ROOT
HETATM    1  C   UNL     1      42.995 -17.656   3.450  1.00  0.00     0.143 A 
HETATM    2  N   UNL     1      41.830 -17.439   2.874  1.00  0.00    -0.223 NA
HETATM    3  C   UNL     1      41.758 -16.084   2.623  1.00  0.00     0.149 A 
HETATM    4  C   UNL     1      42.917 -15.469   3.067  1.00  0.00     0.046 A 
HETATM    5  C   UNL     1      43.376 -14.062   2.920  1.00  0.00     0.070 C 
HETATM    6  C   UNL     1      42.368 -13.002   3.410  1.00  0.00     0.045 C 
HETATM    7  C   UNL     1      40.885 -13.437   3.433  1.00  0.00     0.132 C 
HETATM    8  N   UNL     1      40.429 -14.088   2.218  1.00  0.00    -0.355 N 
HETATM    9  C   UNL     1      40.632 -15.430   1.949  1.00  0.00     0.272 C 
HETATM   10  O   UNL     1      39.875 -16.005   1.170  1.00  0.00    -0.266 OA
HETATM   11  N   UNL     1      43.674 -16.475   3.608  1.00  0.00    -0.341 N 
HETATM   12  H   UNL     1      44.597 -16.381   4.001  1.00  0.00     0.167 HD
HETATM   13  H   UNL     1      39.578 -13.750   1.785  1.00  0.00     0.162 HD
ENDROOT
BRANCH   1  14
HETATM   14  C   UNL     1      43.484 -19.005   3.844  1.00  0.00     0.059 A 
HETATM   15  C   UNL     1      43.741 -20.091   3.028  1.00  0.00     0.040 A 
HETATM   16  C   UNL     1      43.646 -20.327   1.570  1.00  0.00     0.071 C 
HETATM   17  N   UNL     1      44.157 -21.083   3.878  1.00  0.00    -0.281 N 
HETATM   18  H   UNL     1      44.432 -22.031   3.646  1.00  0.00     0.189 HD
HETATM   19  N   UNL     1      44.190 -20.724   5.167  1.00  0.00    -0.179 NA
HETATM   20  C   UNL     1      43.774 -19.450   5.161  1.00  0.00     0.067 A 
HETATM   21  C   UNL     1      43.660 -18.697   6.437  1.00  0.00     0.073 C 
ENDBRANCH   1  14
BRANCH   6  22
HETATM   22  C   UNL     1      42.816 -12.415   4.751  1.00  0.00    -0.019 A 
HETATM   23  C   UNL     1      42.710 -11.030   5.005  1.00  0.00     0.074 A 
HETATM   24  C   UNL     1      43.120 -10.516   6.241  1.00  0.00     0.037 A 
HETATM   25  C   UNL     1      43.651 -11.359   7.218  1.00  0.00     0.003 A 
HETATM   26  C   UNL     1      43.789 -12.718   6.965  1.00  0.00     0.001 A 
HETATM   27  C   UNL     1      43.385 -13.243   5.738  1.00  0.00     0.010 A 
BRANCH  23  28
HETATM   28  O   UNL     1      42.204 -10.266   3.986  1.00  0.00    -0.355 OA
HETATM   29  C   UNL     1      41.504  -9.077   4.331  1.00  0.00     0.210 C 
ENDBRANCH  23  28
ENDBRANCH   6  22
TORSDOF 3
ENDMDL
MODEL 4
REMARK VINA RESULT:      -8.0      2.729      7.435
REMARK  3 active torsions:
REMARK  status: ('A' for Active; 'I' for Inactive)
REMARK    1  A    between atoms: C_8  and  C_9 
REMARK    2  A    between atoms: C_14  and  C_15 
REMARK    3  A    between atoms: C_16  and  O_17 
ROOT
HETATM    1  C   UNL     1      42.253 -15.013   3.960  1.00  0.00     0.143 A 
HETATM    2  N   UNL     1      42.969 -13.908   3.917  1.00  0.00    -0.223 NA
HETATM    3  C   UNL     1      42.180 -12.947   3.317  1.00  0.00     0.149 A 
HETATM    4  C   UNL     1      40.953 -13.497   2.987  1.00  0.00     0.046 A 
HETATM    5  C   UNL     1      39.728 -12.855   2.441  1.00  0.00     0.070 C 
HETATM    6  C   UNL     1      39.950 -12.033   1.155  1.00  0.00     0.045 C 
HETATM    7  C   UNL     1      41.385 -11.506   0.927  1.00  0.00     0.132 C 
HETATM    8  N   UNL     1      41.981 -10.861   2.083  1.00  0.00    -0.355 N 
HETATM    9  C   UNL     1      42.591 -11.555   3.114  1.00  0.00     0.272 C 
HETATM   10  O   UNL     1      43.435 -10.983   3.801  1.00  0.00    -0.266 OA
HETATM   11  N   UNL     1      41.028 -14.808   3.379  1.00  0.00    -0.341 N 
HETATM   12  H   UNL     1      40.293 -15.494   3.310  1.00  0.00     0.167 HD
HETATM   13  H   UNL     1      42.394  -9.945   1.960  1.00  0.00     0.162 HD
ENDROOT
BRANCH   1  14
HETATM   14  C   UNL     1      42.727 -16.282   4.576  1.00  0.00     0.059 A 
HETATM   15  C   UNL     1      43.244 -17.397   3.943  1.00  0.00     0.040 A 
HETATM   16  C   UNL     1      43.514 -17.743   2.530  1.00  0.00     0.071 C 
HETATM   17  N   UNL     1      43.513 -18.285   4.952  1.00  0.00    -0.281 N 
HETATM   18  H   UNL     1      43.900 -19.219   4.876  1.00  0.00     0.189 HD
HETATM   19  N   UNL     1      43.215 -17.833   6.176  1.00  0.00    -0.179 NA
HETATM   20  C   UNL     1      42.726 -16.604   5.959  1.00  0.00     0.067 A 
HETATM   21  C   UNL     1      42.261 -15.775   7.101  1.00  0.00     0.073 C 
ENDBRANCH   1  14
BRANCH   6  22
HETATM   22  C   UNL     1      39.414 -12.789  -0.064  1.00  0.00    -0.019 A 
HETATM   23  C   UNL     1      38.439 -12.208  -0.903  1.00  0.00     0.074 A 
HETATM   24  C   UNL     1      37.968 -12.916  -2.016  1.00  0.00     0.037 A 
HETATM   25  C   UNL     1      38.443 -14.199  -2.293  1.00  0.00     0.003 A 
HETATM   26  C   UNL     1      39.380 -14.791  -1.454  1.00  0.00     0.001 A 
HETATM   27  C   UNL     1      39.856 -14.097  -0.342  1.00  0.00     0.010 A 
BRANCH  23  28
HETATM   28  O   UNL     1      38.005 -10.957  -0.549  1.00  0.00    -0.355 OA
HETATM   29  C   UNL     1      38.267  -9.885  -1.446  1.00  0.00     0.210 C 
ENDBRANCH  23  28
ENDBRANCH   6  22
TORSDOF 3
ENDMDL
MODEL 5
REMARK VINA RESULT:      -8.0      2.721      7.381
REMARK  3 active torsions:
REMARK  status: ('A' for Active; 'I' for Inactive)
REMARK    1  A    between atoms: C_8  and  C_9 
REMARK    2  A    between atoms: C_14  and  C_15 
REMARK    3  A    between atoms: C_16  and  O_17 
ROOT
HETATM    1  C   UNL     1      42.191 -15.016   3.937  1.00  0.00     0.143 A 
HETATM    2  N   UNL     1      42.909 -13.912   3.895  1.00  0.00    -0.223 NA
HETATM    3  C   UNL     1      42.127 -12.952   3.286  1.00  0.00     0.149 A 
HETATM    4  C   UNL     1      40.901 -13.500   2.949  1.00  0.00     0.046 A 
HETATM    5  C   UNL     1      39.680 -12.858   2.394  1.00  0.00     0.070 C 
HETATM    6  C   UNL     1      39.913 -12.040   1.106  1.00  0.00     0.045 C 
HETATM    7  C   UNL     1      41.350 -11.517   0.886  1.00  0.00     0.132 C 
HETATM    8  N   UNL     1      41.940 -10.870   2.043  1.00  0.00    -0.355 N 
HETATM    9  C   UNL     1      42.542 -11.561   3.080  1.00  0.00     0.272 C 
HETATM   10  O   UNL     1      43.382 -10.989   3.771  1.00  0.00    -0.266 OA
HETATM   11  N   UNL     1      40.970 -14.810   3.347  1.00  0.00    -0.341 N 
HETATM   12  H   UNL     1      40.234 -15.494   3.275  1.00  0.00     0.167 HD
HETATM   13  H   UNL     1      42.356  -9.955   1.919  1.00  0.00     0.162 HD
ENDROOT
BRANCH   1  14
HETATM   14  C   UNL     1      42.657 -16.283   4.561  1.00  0.00     0.059 A 
HETATM   15  C   UNL     1      42.671 -16.620   5.901  1.00  0.00     0.040 A 
HETATM   16  C   UNL     1      42.260 -15.922   7.140  1.00  0.00     0.071 C 
HETATM   17  N   UNL     1      43.202 -17.883   5.945  1.00  0.00    -0.281 N 
HETATM   18  H   UNL     1      43.372 -18.462   6.760  1.00  0.00     0.189 HD
HETATM   19  N   UNL     1      43.528 -18.384   4.747  1.00  0.00    -0.179 NA
HETATM   20  C   UNL     1      43.203 -17.408   3.887  1.00  0.00     0.067 A 
HETATM   21  C   UNL     1      43.438 -17.589   2.431  1.00  0.00     0.073 C 
ENDBRANCH   1  14
BRANCH   6  22
HETATM   22  C   UNL     1      39.384 -12.800  -0.114  1.00  0.00    -0.019 A 
HETATM   23  C   UNL     1      38.427 -12.213  -0.971  1.00  0.00     0.074 A 
HETATM   24  C   UNL     1      37.962 -12.924  -2.085  1.00  0.00     0.037 A 
HETATM   25  C   UNL     1      38.423 -14.216  -2.344  1.00  0.00     0.003 A 
HETATM   26  C   UNL     1      39.340 -14.813  -1.488  1.00  0.00     0.001 A 
HETATM   27  C   UNL     1      39.811 -14.116  -0.375  1.00  0.00     0.010 A 
BRANCH  23  28
HETATM   28  O   UNL     1      38.006 -10.954  -0.634  1.00  0.00    -0.355 OA
HETATM   29  C   UNL     1      38.244  -9.903  -1.561  1.00  0.00     0.210 C 
ENDBRANCH  23  28
ENDBRANCH   6  22
TORSDOF 3
ENDMDL
MODEL 6
REMARK VINA RESULT:      -7.5      4.859      7.461
REMARK  3 active torsions:
REMARK  status: ('A' for Active; 'I' for Inactive)
REMARK    1  A    between atoms: C_8  and  C_9 
REMARK    2  A    between atoms: C_14  and  C_15 
REMARK    3  A    between atoms: C_16  and  O_17 
ROOT
HETATM    1  C   UNL     1      42.498 -14.580   4.723  1.00  0.00     0.143 A 
HETATM    2  N   UNL     1      41.301 -14.339   5.217  1.00  0.00    -0.223 NA
HETATM    3  C   UNL     1      41.241 -12.983   5.468  1.00  0.00     0.149 A 
HETATM    4  C   UNL     1      42.444 -12.395   5.117  1.00  0.00     0.046 A 
HETATM    5  C   UNL     1      42.839 -10.961   5.079  1.00  0.00     0.070 C 
HETATM    6  C   UNL     1      42.598 -10.194   6.395  1.00  0.00     0.045 C 
HETATM    7  C   UNL     1      41.515 -10.775   7.331  1.00  0.00     0.132 C 
HETATM    8  N   UNL     1      40.266 -11.109   6.672  1.00  0.00    -0.355 N 
HETATM    9  C   UNL     1      40.057 -12.294   5.988  1.00  0.00     0.272 C 
HETATM   10  O   UNL     1      38.908 -12.709   5.848  1.00  0.00    -0.266 OA
HETATM   11  N   UNL     1      43.232 -13.424   4.671  1.00  0.00    -0.341 N 
HETATM   12  H   UNL     1      44.170 -13.343   4.310  1.00  0.00     0.167 HD
HETATM   13  H   UNL     1      39.404 -10.758   7.073  1.00  0.00     0.162 HD
ENDROOT
BRANCH   1  14
HETATM   14  C   UNL     1      42.952 -15.925   4.275  1.00  0.00     0.059 A 
HETATM   15  C   UNL     1      43.217 -16.351   2.987  1.00  0.00     0.040 A 
HETATM   16  C   UNL     1      43.165 -15.700   1.658  1.00  0.00     0.071 C 
HETATM   17  N   UNL     1      43.589 -17.663   3.116  1.00  0.00    -0.281 N 
HETATM   18  H   UNL     1      43.857 -18.313   2.384  1.00  0.00     0.189 HD
HETATM   19  N   UNL     1      43.587 -18.114   4.377  1.00  0.00    -0.179 NA
HETATM   20  C   UNL     1      43.192 -17.056   5.099  1.00  0.00     0.067 A 
HETATM   21  C   UNL     1      43.050 -17.172   6.573  1.00  0.00     0.073 C 
ENDBRANCH   1  14
BRANCH   6  22
HETATM   22  C   UNL     1      43.923  -9.956   7.126  1.00  0.00    -0.019 A 
HETATM   23  C   UNL     1      44.140  -8.770   7.861  1.00  0.00     0.074 A 
HETATM   24  C   UNL     1      45.357  -8.577   8.527  1.00  0.00     0.037 A 
HETATM   25  C   UNL     1      46.364  -9.540   8.456  1.00  0.00     0.003 A 
HETATM   26  C   UNL     1      46.171 -10.696   7.709  1.00  0.00     0.001 A 
HETATM   27  C   UNL     1      44.964 -10.900   7.041  1.00  0.00     0.010 A 
BRANCH  23  28
HETATM   28  O   UNL     1      43.113  -7.862   7.860  1.00  0.00    -0.355 OA
HETATM   29  C   UNL     1      43.061  -6.917   8.921  1.00  0.00     0.210 C 
ENDBRANCH  23  28
ENDBRANCH   6  22
TORSDOF 3
ENDMDL
MODEL 7
REMARK VINA RESULT:      -7.5      3.927      6.574
REMARK  3 active torsions:
REMARK  status: ('A' for Active; 'I' for Inactive)
REMARK    1  A    between atoms: C_8  and  C_9 
REMARK    2  A    between atoms: C_14  and  C_15 
REMARK    3  A    between atoms: C_16  and  O_17 
ROOT
HETATM    1  C   UNL     1      43.035 -11.821   6.747  1.00  0.00     0.143 A 
HETATM    2  N   UNL     1      42.016 -11.341   6.064  1.00  0.00    -0.223 NA
HETATM    3  C   UNL     1      41.249 -12.423   5.682  1.00  0.00     0.149 A 
HETATM    4  C   UNL     1      41.830 -13.589   6.149  1.00  0.00     0.046 A 
HETATM    5  C   UNL     1      41.337 -14.992   6.110  1.00  0.00     0.070 C 
HETATM    6  C   UNL     1      40.938 -15.494   4.707  1.00  0.00     0.045 C 
HETATM    7  C   UNL     1      40.550 -14.406   3.682  1.00  0.00     0.132 C 
HETATM    8  N   UNL     1      39.614 -13.415   4.181  1.00  0.00    -0.355 N 
HETATM    9  C   UNL     1      39.993 -12.317   4.934  1.00  0.00     0.272 C 
HETATM   10  O   UNL     1      39.273 -11.321   4.943  1.00  0.00    -0.266 OA
HETATM   11  N   UNL     1      42.970 -13.190   6.798  1.00  0.00    -0.341 N 
HETATM   12  H   UNL     1      43.620 -13.788   7.283  1.00  0.00     0.167 HD
HETATM   13  H   UNL     1      38.789 -13.216   3.628  1.00  0.00     0.162 HD
ENDROOT
BRANCH   1  14
HETATM   14  C   UNL     1      44.081 -10.972   7.379  1.00  0.00     0.059 A 
HETATM   15  C   UNL     1      43.946 -10.106   8.448  1.00  0.00     0.040 A 
HETATM   16  C   UNL     1      42.814  -9.713   9.316  1.00  0.00     0.071 C 
HETATM   17  N   UNL     1      45.193  -9.566   8.627  1.00  0.00    -0.281 N 
HETATM   18  H   UNL     1      45.486  -8.884   9.318  1.00  0.00     0.189 HD
HETATM   19  N   UNL     1      46.115 -10.014   7.767  1.00  0.00    -0.179 NA
HETATM   20  C   UNL     1      45.443 -10.876   6.990  1.00  0.00     0.067 A 
HETATM   21  C   UNL     1      46.139 -11.580   5.883  1.00  0.00     0.073 C 
ENDBRANCH   1  14
BRANCH   6  22
HETATM   22  C   UNL     1      42.002 -16.450   4.158  1.00  0.00    -0.019 A 
HETATM   23  C   UNL     1      42.788 -17.235   5.030  1.00  0.00     0.074 A 
HETATM   24  C   UNL     1      43.750 -18.106   4.505  1.00  0.00     0.037 A 
HETATM   25  C   UNL     1      43.951 -18.192   3.127  1.00  0.00     0.003 A 
HETATM   26  C   UNL     1      43.204 -17.400   2.263  1.00  0.00     0.001 A 
HETATM   27  C   UNL     1      42.243 -16.528   2.773  1.00  0.00     0.010 A 
BRANCH  23  28
HETATM   28  O   UNL     1      42.548 -17.073   6.370  1.00  0.00    -0.355 OA
HETATM   29  C   UNL     1      43.651 -17.187   7.260  1.00  0.00     0.210 C 
ENDBRANCH  23  28
ENDBRANCH   6  22
TORSDOF 3
ENDMDL
MODEL 8
REMARK VINA RESULT:      -7.4      3.785      5.031
REMARK  3 active torsions:
REMARK  status: ('A' for Active; 'I' for Inactive)
REMARK    1  A    between atoms: C_8  and  C_9 
REMARK    2  A    between atoms: C_14  and  C_15 
REMARK    3  A    between atoms: C_16  and  O_17 
ROOT
HETATM    1  C   UNL     1      41.838 -13.531   5.376  1.00  0.00     0.143 A 
HETATM    2  N   UNL     1      41.873 -13.974   6.617  1.00  0.00    -0.223 NA
HETATM    3  C   UNL     1      42.776 -15.018   6.640  1.00  0.00     0.149 A 
HETATM    4  C   UNL     1      43.296 -15.208   5.371  1.00  0.00     0.046 A 
HETATM    5  C   UNL     1      44.380 -16.111   4.901  1.00  0.00     0.070 C 
HETATM    6  C   UNL     1      44.191 -17.594   5.282  1.00  0.00     0.045 C 
HETATM    7  C   UNL     1      43.300 -17.869   6.514  1.00  0.00     0.132 C 
HETATM    8  N   UNL     1      43.609 -17.054   7.675  1.00  0.00    -0.355 N 
HETATM    9  C   UNL     1      43.140 -15.763   7.848  1.00  0.00     0.272 C 
HETATM   10  O   UNL     1      43.052 -15.307   8.986  1.00  0.00    -0.266 OA
HETATM   11  N   UNL     1      42.673 -14.275   4.583  1.00  0.00    -0.341 N 
HETATM   12  H   UNL     1      42.839 -14.117   3.601  1.00  0.00     0.167 HD
HETATM   13  H   UNL     1      43.744 -17.520   8.564  1.00  0.00     0.162 HD
ENDROOT
BRANCH   1  14
HETATM   14  C   UNL     1      41.015 -12.373   4.935  1.00  0.00     0.059 A 
HETATM   15  C   UNL     1      41.028 -11.080   5.424  1.00  0.00     0.040 A 
HETATM   16  C   UNL     1      41.798 -10.391   6.483  1.00  0.00     0.071 C 
HETATM   17  N   UNL     1      40.083 -10.413   4.690  1.00  0.00    -0.281 N 
HETATM   18  H   UNL     1      39.805  -9.440   4.764  1.00  0.00     0.189 HD
HETATM   19  N   UNL     1      39.467 -11.166   3.771  1.00  0.00    -0.179 NA
HETATM   20  C   UNL     1      40.027 -12.376   3.914  1.00  0.00     0.067 A 
HETATM   21  C   UNL     1      39.584 -13.508   3.061  1.00  0.00     0.073 C 
ENDBRANCH   1  14
BRANCH   6  22
HETATM   22  C   UNL     1      43.754 -18.409   4.062  1.00  0.00    -0.019 A 
HETATM   23  C   UNL     1      44.063 -19.784   3.962  1.00  0.00     0.074 A 
HETATM   24  C   UNL     1      43.647 -20.511   2.840  1.00  0.00     0.037 A 
HETATM   25  C   UNL     1      42.944 -19.884   1.810  1.00  0.00     0.003 A 
HETATM   26  C   UNL     1      42.663 -18.525   1.885  1.00  0.00     0.001 A 
HETATM   27  C   UNL     1      43.073 -17.789   2.997  1.00  0.00     0.010 A 
BRANCH  23  28
HETATM   28  O   UNL     1      44.778 -20.318   5.002  1.00  0.00    -0.355 OA
HETATM   29  C   UNL     1      44.149 -21.315   5.797  1.00  0.00     0.210 C 
ENDBRANCH  23  28
ENDBRANCH   6  22
TORSDOF 3
ENDMDL
MODEL 9
REMARK VINA RESULT:      -7.4      2.839      7.304
REMARK  3 active torsions:
REMARK  status: ('A' for Active; 'I' for Inactive)
REMARK    1  A    between atoms: C_8  and  C_9 
REMARK    2  A    between atoms: C_14  and  C_15 
REMARK    3  A    between atoms: C_16  and  O_17 
ROOT
HETATM    1  C   UNL     1      42.715 -16.338   4.309  1.00  0.00     0.143 A 
HETATM    2  N   UNL     1      43.331 -15.236   4.686  1.00  0.00    -0.223 NA
HETATM    3  C   UNL     1      42.506 -14.184   4.342  1.00  0.00     0.149 A 
HETATM    4  C   UNL     1      41.360 -14.673   3.737  1.00  0.00     0.046 A 
HETATM    5  C   UNL     1      40.126 -13.967   3.303  1.00  0.00     0.070 C 
HETATM    6  C   UNL     1      40.369 -12.764   2.368  1.00  0.00     0.045 C 
HETATM    7  C   UNL     1      41.764 -12.105   2.458  1.00  0.00     0.132 C 
HETATM    8  N   UNL     1      42.213 -11.829   3.811  1.00  0.00    -0.355 N 
HETATM    9  C   UNL     1      42.805 -12.778   4.627  1.00  0.00     0.272 C 
HETATM   10  O   UNL     1      43.541 -12.406   5.538  1.00  0.00    -0.266 OA
HETATM   11  N   UNL     1      41.523 -16.034   3.704  1.00  0.00    -0.341 N 
HETATM   12  H   UNL     1      40.859 -16.705   3.352  1.00  0.00     0.167 HD
HETATM   13  H   UNL     1      42.551 -10.898   4.022  1.00  0.00     0.162 HD
ENDROOT
BRANCH   1  14
HETATM   14  C   UNL     1      43.253 -17.707   4.540  1.00  0.00     0.059 A 
HETATM   15  C   UNL     1      43.545 -18.678   3.601  1.00  0.00     0.040 A 
HETATM   16  C   UNL     1      43.454 -18.741   2.125  1.00  0.00     0.071 C 
HETATM   17  N   UNL     1      43.998 -19.749   4.327  1.00  0.00    -0.281 N 
HETATM   18  H   UNL     1      44.307 -20.652   3.984  1.00  0.00     0.189 HD
HETATM   19  N   UNL     1      44.023 -19.545   5.650  1.00  0.00    -0.179 NA
HETATM   20  C   UNL     1      43.562 -18.295   5.795  1.00  0.00     0.067 A 
HETATM   21  C   UNL     1      43.425 -17.704   7.151  1.00  0.00     0.073 C 
ENDBRANCH   1  14
BRANCH   6  22
HETATM   22  C   UNL     1      39.994 -13.121   0.927  1.00  0.00    -0.019 A 
HETATM   23  C   UNL     1      39.549 -12.127   0.027  1.00  0.00     0.074 A 
HETATM   24  C   UNL     1      39.218 -12.477  -1.287  1.00  0.00     0.037 A 
HETATM   25  C   UNL     1      39.308 -13.803  -1.712  1.00  0.00     0.003 A 
HETATM   26  C   UNL     1      39.714 -14.793  -0.825  1.00  0.00     0.001 A 
HETATM   27  C   UNL     1      40.046 -14.458   0.487  1.00  0.00     0.010 A 
BRANCH  23  28
HETATM   28  O   UNL     1      39.464 -10.855   0.529  1.00  0.00    -0.355 OA
HETATM   29  C   UNL     1      40.225  -9.837  -0.109  1.00  0.00     0.210 C 
ENDBRANCH  23  28
ENDBRANCH   6  22
TORSDOF 3
ENDMDL
MODEL 10
REMARK VINA RESULT:      -7.4      3.751      7.450
REMARK  3 active torsions:
REMARK  status: ('A' for Active; 'I' for Inactive)
REMARK    1  A    between atoms: C_8  and  C_9 
REMARK    2  A    between atoms: C_14  and  C_15 
REMARK    3  A    between atoms: C_16  and  O_17 
ROOT
HETATM    1  C   UNL     1      42.699 -15.589   4.845  1.00  0.00     0.143 A 
HETATM    2  N   UNL     1      43.445 -14.758   5.544  1.00  0.00    -0.223 NA
HETATM    3  C   UNL     1      42.617 -13.733   5.957  1.00  0.00     0.149 A 
HETATM    4  C   UNL     1      41.334 -13.957   5.488  1.00  0.00     0.046 A 
HETATM    5  C   UNL     1      40.070 -13.223   5.757  1.00  0.00     0.070 C 
HETATM    6  C   UNL     1      40.138 -11.706   5.487  1.00  0.00     0.045 C 
HETATM    7  C   UNL     1      41.544 -11.069   5.544  1.00  0.00     0.132 C 
HETATM    8  N   UNL     1      42.326 -11.439   6.709  1.00  0.00    -0.355 N 
HETATM    9  C   UNL     1      43.051 -12.615   6.800  1.00  0.00     0.272 C 
HETATM   10  O   UNL     1      44.007 -12.670   7.570  1.00  0.00    -0.266 OA
HETATM   11  N   UNL     1      41.412 -15.121   4.768  1.00  0.00    -0.341 N 
HETATM   12  H   UNL     1      40.648 -15.590   4.308  1.00  0.00     0.167 HD
HETATM   13  H   UNL     1      42.754 -10.699   7.253  1.00  0.00     0.162 HD
ENDROOT
BRANCH   1  14
HETATM   14  C   UNL     1      43.205 -16.857   4.254  1.00  0.00     0.059 A 
HETATM   15  C   UNL     1      43.428 -17.148   2.922  1.00  0.00     0.040 A 
HETATM   16  C   UNL     1      43.273 -16.385   1.663  1.00  0.00     0.071 C 
HETATM   17  N   UNL     1      43.879 -18.442   2.911  1.00  0.00    -0.281 N 
HETATM   18  H   UNL     1      44.145 -19.006   2.111  1.00  0.00     0.189 HD
HETATM   19  N   UNL     1      43.966 -19.004   4.123  1.00  0.00    -0.179 NA
HETATM   20  C   UNL     1      43.548 -18.042   4.958  1.00  0.00     0.067 A 
HETATM   21  C   UNL     1      43.487 -18.299   6.420  1.00  0.00     0.073 C 
ENDBRANCH   1  14
BRANCH   6  22
HETATM   22  C   UNL     1      39.401 -11.359   4.189  1.00  0.00    -0.019 A 
HETATM   23  C   UNL     1      38.734 -10.123   4.044  1.00  0.00     0.074 A 
HETATM   24  C   UNL     1      38.074  -9.825   2.847  1.00  0.00     0.037 A 
HETATM   25  C   UNL     1      38.053 -10.748   1.800  1.00  0.00     0.003 A 
HETATM   26  C   UNL     1      38.679 -11.980   1.945  1.00  0.00     0.001 A 
HETATM   27  C   UNL     1      39.341 -12.289   3.134  1.00  0.00     0.010 A 
BRANCH  23  28
HETATM   28  O   UNL     1      38.778  -9.283   5.127  1.00  0.00    -0.355 OA
HETATM   29  C   UNL     1      37.916  -8.153   5.125  1.00  0.00     0.210 C 
ENDBRANCH  23  28
ENDBRANCH   6  22
TORSDOF 3
ENDMDL
