MODEL 1
REMARK VINA RESULT:      -9.0      0.000      0.000
REMARK  6 active torsions:
REMARK  status: ('A' for Active; 'I' for Inactive)
REMARK    1  A    between atoms: C_5  and  O_6 
REMARK    2  A    between atoms: O_6  and  C_7 
REMARK    3  A    between atoms: C_7  and  C_8 
REMARK       I    between atoms: C_8  and  N_9 
REMARK    4  A    between atoms: N_9  and  C_10 
REMARK    5  A    between atoms: C_10  and  C_11 
REMARK       I    between atoms: C_11  and  N_12 
REMARK    6  A    between atoms: N_12  and  N_13 
ROOT
HETATM    1  C   UNL     1      40.210 -13.092   4.647  1.00  0.00     0.255 C 
HETATM    2  N   UNL     1      41.045 -13.598   3.662  1.00  0.00    -0.245 N 
HETATM    3  O   UNL     1      39.383 -12.195   4.488  1.00  0.00    -0.270 OA
HETATM    4  H   UNL     1      41.646 -14.404   3.846  1.00  0.00     0.192 HD
ENDROOT
BRANCH   1   5
HETATM    5  C   UNL     1      40.467 -13.712   6.022  1.00  0.00     0.227 C 
BRANCH   5   6
HETATM    6  N   UNL     1      41.752 -13.270   6.540  1.00  0.00    -0.350 N 
HETATM    7  C   UNL     1      42.880 -14.012   6.750  1.00  0.00     0.242 C 
HETATM    8  O   UNL     1      43.838 -13.501   7.332  1.00  0.00    -0.271 OA
HETATM    9  H   UNL     1      41.761 -12.366   7.005  1.00  0.00     0.163 HD
BRANCH   7  10
HETATM   10  C   UNL     1      42.944 -15.428   6.186  1.00  0.00     0.278 C 
BRANCH  10  11
HETATM   11  O   UNL     1      43.411 -15.376   4.840  1.00  0.00    -0.342 OA
BRANCH  11  12
HETATM   12  C   UNL     1      43.489 -16.599   4.231  1.00  0.00     0.069 A 
HETATM   13  C   UNL     1      43.107 -16.643   2.892  1.00  0.00     0.037 A 
HETATM   14  C   UNL     1      43.179 -17.842   2.178  1.00  0.00     0.009 A 
HETATM   15  C   UNL     1      43.646 -19.006   2.796  1.00  0.00    -0.062 A 
HETATM   16  C   UNL     1      43.762 -20.288   2.027  1.00  0.00     0.048 C 
HETATM   17  C   UNL     1      44.066 -18.944   4.131  1.00  0.00     0.009 A 
HETATM   18  C   UNL     1      43.989 -17.746   4.846  1.00  0.00     0.037 A 
ENDBRANCH  11  12
ENDBRANCH  10  11
ENDBRANCH   7  10
ENDBRANCH   5   6
ENDBRANCH   1   5
BRANCH   2  19
HETATM   19  N   UNL     1      40.988 -13.096   2.392  1.00  0.00    -0.166 NA
HETATM   20  C   UNL     1      40.482 -13.870   1.486  1.00  0.00     0.157 A 
HETATM   21  C   UNL     1      39.928 -15.288   1.649  1.00  0.00     0.277 A 
HETATM   22  C   UNL     1      40.328 -13.539   0.075  1.00  0.00     0.028 A 
HETATM   23  O   UNL     1      39.916 -15.907   2.692  1.00  0.00    -0.266 OA
HETATM   24  N   UNL     1      39.488 -15.660   0.397  1.00  0.00    -0.321 N 
HETATM   25  C   UNL     1      39.724 -14.644  -0.526  1.00  0.00     0.048 A 
HETATM   26  H   UNL     1      39.069 -16.556   0.201  1.00  0.00     0.169 HD
HETATM   27  C   UNL     1      39.437 -14.656  -1.874  1.00  0.00     0.032 A 
HETATM   28  C   UNL     1      39.780 -13.515  -2.612  1.00  0.00     0.021 A 
HETATM   29  C   UNL     1      40.393 -12.407  -1.991  1.00  0.00     0.012 A 
HETATM   30 BR   UNL     1      40.843 -10.894  -3.036  1.00  0.00    -0.051 Br
HETATM   31  C   UNL     1      40.676 -12.404  -0.625  1.00  0.00     0.035 A 
ENDBRANCH   2  19
TORSDOF 6
ENDMDL
MODEL 2
REMARK VINA RESULT:      -8.2      5.542      9.519
REMARK  6 active torsions:
REMARK  status: ('A' for Active; 'I' for Inactive)
REMARK    1  A    between atoms: C_5  and  O_6 
REMARK    2  A    between atoms: O_6  and  C_7 
REMARK    3  A    between atoms: C_7  and  C_8 
REMARK       I    between atoms: C_8  and  N_9 
REMARK    4  A    between atoms: N_9  and  C_10 
REMARK    5  A    between atoms: C_10  and  C_11 
REMARK       I    between atoms: C_11  and  N_12 
REMARK    6  A    between atoms: N_12  and  N_13 
ROOT
HETATM    1  C   UNL     1      43.360 -12.210   6.302  1.00  0.00     0.255 C 
HETATM    2  N   UNL     1      42.673 -13.385   6.568  1.00  0.00    -0.245 N 
HETATM    3  O   UNL     1      44.115 -12.028   5.347  1.00  0.00    -0.270 OA
HETATM    4  H   UNL     1      41.995 -13.435   7.332  1.00  0.00     0.192 HD
ENDROOT
BRANCH   1   5
HETATM    5  C   UNL     1      43.156 -11.143   7.378  1.00  0.00     0.227 C 
BRANCH   5   6
HETATM    6  N   UNL     1      44.158 -11.285   8.423  1.00  0.00    -0.350 N 
HETATM    7  C   UNL     1      44.281 -10.569   9.580  1.00  0.00     0.242 C 
HETATM    8  O   UNL     1      45.278 -10.730  10.285  1.00  0.00    -0.271 OA
HETATM    9  H   UNL     1      44.987 -11.820   8.179  1.00  0.00     0.163 HD
BRANCH   7  10
HETATM   10  C   UNL     1      43.140  -9.649  10.000  1.00  0.00     0.278 C 
BRANCH  10  11
HETATM   11  O   UNL     1      42.504 -10.187  11.157  1.00  0.00    -0.342 OA
BRANCH  11  12
HETATM   12  C   UNL     1      42.486  -9.337  12.228  1.00  0.00     0.069 A 
HETATM   13  C   UNL     1      41.570  -9.635  13.235  1.00  0.00     0.037 A 
HETATM   14  C   UNL     1      41.499  -8.840  14.381  1.00  0.00     0.009 A 
HETATM   15  C   UNL     1      42.354  -7.744  14.536  1.00  0.00    -0.062 A 
HETATM   16  C   UNL     1      42.309  -6.908  15.780  1.00  0.00     0.048 C 
HETATM   17  C   UNL     1      43.298  -7.474  13.538  1.00  0.00     0.009 A 
HETATM   18  C   UNL     1      43.366  -8.267  12.389  1.00  0.00     0.037 A 
ENDBRANCH  11  12
ENDBRANCH  10  11
ENDBRANCH   7  10
ENDBRANCH   5   6
ENDBRANCH   1   5
BRANCH   2  19
HETATM   19  N   UNL     1      42.807 -14.461   5.736  1.00  0.00    -0.166 NA
HETATM   20  C   UNL     1      43.077 -15.596   6.297  1.00  0.00     0.157 A 
HETATM   21  C   UNL     1      43.262 -15.900   7.787  1.00  0.00     0.277 A 
HETATM   22  C   UNL     1      43.262 -16.864   5.604  1.00  0.00     0.028 A 
HETATM   23  O   UNL     1      43.204 -15.071   8.671  1.00  0.00    -0.266 OA
HETATM   24  N   UNL     1      43.504 -17.253   7.861  1.00  0.00    -0.321 N 
HETATM   25  C   UNL     1      43.511 -17.821   6.589  1.00  0.00     0.048 A 
HETATM   26  H   UNL     1      43.666 -17.741   8.730  1.00  0.00     0.169 HD
HETATM   27  C   UNL     1      43.734 -19.141   6.263  1.00  0.00     0.032 A 
HETATM   28  C   UNL     1      43.705 -19.479   4.903  1.00  0.00     0.021 A 
HETATM   29  C   UNL     1      43.455 -18.501   3.918  1.00  0.00     0.012 A 
HETATM   30 BR   UNL     1      43.435 -19.009   2.096  1.00  0.00    -0.051 Br
HETATM   31  C   UNL     1      43.227 -17.167   4.260  1.00  0.00     0.035 A 
ENDBRANCH   2  19
TORSDOF 6
ENDMDL
MODEL 3
REMARK VINA RESULT:      -8.1      5.644      8.989
REMARK  6 active torsions:
REMARK  status: ('A' for Active; 'I' for Inactive)
REMARK    1  A    between atoms: C_5  and  O_6 
REMARK    2  A    between atoms: O_6  and  C_7 
REMARK    3  A    between atoms: C_7  and  C_8 
REMARK       I    between atoms: C_8  and  N_9 
REMARK    4  A    between atoms: N_9  and  C_10 
REMARK    5  A    between atoms: C_10  and  C_11 
REMARK       I    between atoms: C_11  and  N_12 
REMARK    6  A    between atoms: N_12  and  N_13 
ROOT
HETATM    1  C   UNL     1      43.492 -12.077   6.689  1.00  0.00     0.255 C 
HETATM    2  N   UNL     1      42.520 -12.968   6.258  1.00  0.00    -0.245 N 
HETATM    3  O   UNL     1      44.673 -12.356   6.895  1.00  0.00    -0.270 OA
HETATM    4  H   UNL     1      41.578 -12.645   6.024  1.00  0.00     0.192 HD
ENDROOT
BRANCH   1   5
HETATM    5  C   UNL     1      42.936 -10.681   6.975  1.00  0.00     0.227 C 
BRANCH   5   6
HETATM    6  N   UNL     1      43.963  -9.844   7.575  1.00  0.00    -0.350 N 
HETATM    7  C   UNL     1      43.912  -9.158   8.755  1.00  0.00     0.242 C 
HETATM    8  O   UNL     1      44.824  -8.381   9.040  1.00  0.00    -0.271 OA
HETATM    9  H   UNL     1      44.720  -9.553   6.961  1.00  0.00     0.163 HD
BRANCH   7  10
HETATM   10  C   UNL     1      42.762  -9.436   9.718  1.00  0.00     0.278 C 
BRANCH  10  11
HETATM   11  O   UNL     1      43.273 -10.067  10.889  1.00  0.00    -0.342 OA
BRANCH  11  12
HETATM   12  C   UNL     1      42.893  -9.465  12.057  1.00  0.00     0.069 A 
HETATM   13  C   UNL     1      43.563  -8.289  12.389  1.00  0.00     0.037 A 
HETATM   14  C   UNL     1      43.223  -7.587  13.548  1.00  0.00     0.009 A 
HETATM   15  C   UNL     1      42.200  -8.051  14.381  1.00  0.00    -0.062 A 
HETATM   16  C   UNL     1      41.804  -7.283  15.607  1.00  0.00     0.048 C 
HETATM   17  C   UNL     1      41.504  -9.211  14.020  1.00  0.00     0.009 A 
HETATM   18  C   UNL     1      41.847  -9.916  12.863  1.00  0.00     0.037 A 
ENDBRANCH  11  12
ENDBRANCH  10  11
ENDBRANCH   7  10
ENDBRANCH   5   6
ENDBRANCH   1   5
BRANCH   2  19
HETATM   19  N   UNL     1      42.844 -14.276   6.028  1.00  0.00    -0.166 NA
HETATM   20  C   UNL     1      42.845 -14.662   4.793  1.00  0.00     0.157 A 
HETATM   21  C   UNL     1      42.534 -13.840   3.538  1.00  0.00     0.277 A 
HETATM   22  C   UNL     1      43.156 -16.006   4.323  1.00  0.00     0.028 A 
HETATM   23  O   UNL     1      42.204 -12.673   3.545  1.00  0.00    -0.266 OA
HETATM   24  N   UNL     1      42.700 -14.704   2.478  1.00  0.00    -0.321 N 
HETATM   25  C   UNL     1      43.059 -15.972   2.931  1.00  0.00     0.048 A 
HETATM   26  H   UNL     1      42.561 -14.434   1.516  1.00  0.00     0.169 HD
HETATM   27  C   UNL     1      43.294 -17.096   2.170  1.00  0.00     0.032 A 
HETATM   28  C   UNL     1      43.632 -18.273   2.852  1.00  0.00     0.021 A 
HETATM   29  C   UNL     1      43.724 -18.293   4.259  1.00  0.00     0.012 A 
HETATM   30 BR   UNL     1      44.175 -19.911   5.132  1.00  0.00    -0.051 Br
HETATM   31  C   UNL     1      43.486 -17.149   5.020  1.00  0.00     0.035 A 
ENDBRANCH   2  19
TORSDOF 6
ENDMDL
MODEL 4
REMARK VINA RESULT:      -8.1      1.722      2.079
REMARK  6 active torsions:
REMARK  status: ('A' for Active; 'I' for Inactive)
REMARK    1  A    between atoms: C_5  and  O_6 
REMARK    2  A    between atoms: O_6  and  C_7 
REMARK    3  A    between atoms: C_7  and  C_8 
REMARK       I    between atoms: C_8  and  N_9 
REMARK    4  A    between atoms: N_9  and  C_10 
REMARK    5  A    between atoms: C_10  and  C_11 
REMARK       I    between atoms: C_11  and  N_12 
REMARK    6  A    between atoms: N_12  and  N_13 
ROOT
HETATM    1  C   UNL     1      40.301 -12.095   3.789  1.00  0.00     0.255 C 
HETATM    2  N   UNL     1      40.728 -11.658   2.544  1.00  0.00    -0.245 N 
HETATM    3  O   UNL     1      39.160 -12.468   4.060  1.00  0.00    -0.270 OA
HETATM    4  H   UNL     1      41.713 -11.446   2.371  1.00  0.00     0.192 HD
ENDROOT
BRANCH   1   5
HETATM    5  C   UNL     1      41.390 -11.999   4.860  1.00  0.00     0.227 C 
BRANCH   5   6
HETATM    6  N   UNL     1      41.222 -13.057   5.843  1.00  0.00    -0.350 N 
HETATM    7  C   UNL     1      41.760 -14.313   5.834  1.00  0.00     0.242 C 
HETATM    8  O   UNL     1      41.395 -15.131   6.678  1.00  0.00    -0.271 OA
HETATM    9  H   UNL     1      40.453 -12.943   6.498  1.00  0.00     0.163 HD
BRANCH   7  10
HETATM   10  C   UNL     1      42.855 -14.637   4.822  1.00  0.00     0.278 C 
BRANCH  10  11
HETATM   11  O   UNL     1      43.591 -15.771   5.274  1.00  0.00    -0.342 OA
BRANCH  11  12
HETATM   12  C   UNL     1      43.589 -16.820   4.397  1.00  0.00     0.069 A 
HETATM   13  C   UNL     1      44.133 -18.014   4.867  1.00  0.00     0.037 A 
HETATM   14  C   UNL     1      44.148 -19.150   4.053  1.00  0.00     0.009 A 
HETATM   15  C   UNL     1      43.608 -19.103   2.764  1.00  0.00    -0.062 A 
HETATM   16  C   UNL     1      43.588 -20.327   1.898  1.00  0.00     0.048 C 
HETATM   17  C   UNL     1      43.028 -17.911   2.314  1.00  0.00     0.009 A 
HETATM   18  C   UNL     1      43.017 -16.773   3.126  1.00  0.00     0.037 A 
ENDBRANCH  11  12
ENDBRANCH  10  11
ENDBRANCH   7  10
ENDBRANCH   5   6
ENDBRANCH   1   5
BRANCH   2  19
HETATM   19  N   UNL     1      39.851 -11.615   1.496  1.00  0.00    -0.166 NA
HETATM   20  C   UNL     1      39.962 -12.552   0.611  1.00  0.00     0.157 A 
HETATM   21  C   UNL     1      40.952 -13.721   0.582  1.00  0.00     0.277 A 
HETATM   22  C   UNL     1      39.138 -12.698  -0.582  1.00  0.00     0.028 A 
HETATM   23  O   UNL     1      41.817 -13.910   1.411  1.00  0.00    -0.266 OA
HETATM   24  N   UNL     1      40.639 -14.444  -0.548  1.00  0.00    -0.321 N 
HETATM   25  C   UNL     1      39.583 -13.847  -1.234  1.00  0.00     0.048 A 
HETATM   26  H   UNL     1      41.132 -15.280  -0.826  1.00  0.00     0.169 HD
HETATM   27  C   UNL     1      39.006 -14.271  -2.412  1.00  0.00     0.032 A 
HETATM   28  C   UNL     1      37.957 -13.497  -2.926  1.00  0.00     0.021 A 
HETATM   29  C   UNL     1      37.519 -12.335  -2.257  1.00  0.00     0.012 A 
HETATM   30 BR   UNL     1      36.104 -11.321  -2.999  1.00  0.00    -0.051 Br
HETATM   31  C   UNL     1      38.108 -11.917  -1.063  1.00  0.00     0.035 A 
ENDBRANCH   2  19
TORSDOF 6
ENDMDL
MODEL 5
REMARK VINA RESULT:      -8.0      5.917      9.149
REMARK  6 active torsions:
REMARK  status: ('A' for Active; 'I' for Inactive)
REMARK    1  A    between atoms: C_5  and  O_6 
REMARK    2  A    between atoms: O_6  and  C_7 
REMARK    3  A    between atoms: C_7  and  C_8 
REMARK       I    between atoms: C_8  and  N_9 
REMARK    4  A    between atoms: N_9  and  C_10 
REMARK    5  A    between atoms: C_10  and  C_11 
REMARK       I    between atoms: C_11  and  N_12 
REMARK    6  A    between atoms: N_12  and  N_13 
ROOT
HETATM    1  C   UNL     1      43.933 -11.699   7.167  1.00  0.00     0.255 C 
HETATM    2  N   UNL     1      42.807 -12.467   6.918  1.00  0.00    -0.245 N 
HETATM    3  O   UNL     1      45.036 -11.862   6.645  1.00  0.00    -0.270 OA
HETATM    4  H   UNL     1      41.901 -12.219   7.324  1.00  0.00     0.192 HD
ENDROOT
BRANCH   1   5
HETATM    5  C   UNL     1      43.706 -10.638   8.246  1.00  0.00     0.227 C 
BRANCH   5   6
HETATM    6  N   UNL     1      43.770 -11.244   9.567  1.00  0.00    -0.350 N 
HETATM    7  C   UNL     1      43.799 -10.620  10.782  1.00  0.00     0.242 C 
HETATM    8  O   UNL     1      43.999 -11.288  11.797  1.00  0.00    -0.271 OA
HETATM    9  H   UNL     1      44.042 -12.222   9.598  1.00  0.00     0.163 HD
BRANCH   7  10
HETATM   10  C   UNL     1      43.506  -9.124  10.849  1.00  0.00     0.278 C 
BRANCH  10  11
HETATM   11  O   UNL     1      42.177  -8.927  11.326  1.00  0.00    -0.342 OA
BRANCH  11  12
HETATM   12  C   UNL     1      42.111  -8.478  12.616  1.00  0.00     0.069 A 
HETATM   13  C   UNL     1      43.167  -7.676  13.042  1.00  0.00     0.037 A 
HETATM   14  C   UNL     1      43.172  -7.146  14.335  1.00  0.00     0.009 A 
HETATM   15  C   UNL     1      42.112  -7.406  15.210  1.00  0.00    -0.062 A 
HETATM   16  C   UNL     1      42.092  -6.811  16.586  1.00  0.00     0.048 C 
HETATM   17  C   UNL     1      41.035  -8.180  14.761  1.00  0.00     0.009 A 
HETATM   18  C   UNL     1      41.033  -8.714  13.469  1.00  0.00     0.037 A 
ENDBRANCH  11  12
ENDBRANCH  10  11
ENDBRANCH   7  10
ENDBRANCH   5   6
ENDBRANCH   1   5
BRANCH   2  19
HETATM   19  N   UNL     1      42.867 -13.504   6.030  1.00  0.00    -0.166 NA
HETATM   20  C   UNL     1      41.844 -13.661   5.252  1.00  0.00     0.157 A 
HETATM   21  C   UNL     1      40.562 -12.826   5.189  1.00  0.00     0.277 A 
HETATM   22  C   UNL     1      41.697 -14.697   4.238  1.00  0.00     0.028 A 
HETATM   23  O   UNL     1      40.318 -11.883   5.913  1.00  0.00    -0.266 OA
HETATM   24  N   UNL     1      39.806 -13.383   4.181  1.00  0.00    -0.321 N 
HETATM   25  C   UNL     1      40.463 -14.480   3.626  1.00  0.00     0.048 A 
HETATM   26  H   UNL     1      38.898 -13.035   3.911  1.00  0.00     0.169 HD
HETATM   27  C   UNL     1      40.014 -15.298   2.612  1.00  0.00     0.032 A 
HETATM   28  C   UNL     1      40.848 -16.355   2.225  1.00  0.00     0.021 A 
HETATM   29  C   UNL     1      42.092 -16.564   2.855  1.00  0.00     0.012 A 
HETATM   30 BR   UNL     1      43.177 -18.013   2.301  1.00  0.00    -0.051 Br
HETATM   31  C   UNL     1      42.539 -15.729   3.879  1.00  0.00     0.035 A 
ENDBRANCH   2  19
TORSDOF 6
ENDMDL
MODEL 6
REMARK VINA RESULT:      -7.8      3.759      6.797
REMARK  6 active torsions:
REMARK  status: ('A' for Active; 'I' for Inactive)
REMARK    1  A    between atoms: C_5  and  O_6 
REMARK    2  A    between atoms: O_6  and  C_7 
REMARK    3  A    between atoms: C_7  and  C_8 
REMARK       I    between atoms: C_8  and  N_9 
REMARK    4  A    between atoms: N_9  and  C_10 
REMARK    5  A    between atoms: C_10  and  C_11 
REMARK       I    between atoms: C_11  and  N_12 
REMARK    6  A    between atoms: N_12  and  N_13 
ROOT
HETATM    1  C   UNL     1      39.894 -12.255   4.232  1.00  0.00     0.255 C 
HETATM    2  N   UNL     1      40.910 -11.314   4.299  1.00  0.00    -0.245 N 
HETATM    3  O   UNL     1      39.472 -12.916   5.181  1.00  0.00    -0.270 OA
HETATM    4  H   UNL     1      41.149 -10.740   3.487  1.00  0.00     0.192 HD
ENDROOT
BRANCH   1   5
HETATM    5  C   UNL     1      39.374 -12.470   2.810  1.00  0.00     0.227 C 
BRANCH   5   6
HETATM    6  N   UNL     1      39.125 -13.884   2.575  1.00  0.00    -0.350 N 
HETATM    7  C   UNL     1      39.964 -14.810   2.023  1.00  0.00     0.242 C 
HETATM    8  O   UNL     1      39.534 -15.935   1.767  1.00  0.00    -0.271 OA
HETATM    9  H   UNL     1      38.153 -14.181   2.619  1.00  0.00     0.163 HD
BRANCH   7  10
HETATM   10  C   UNL     1      41.429 -14.441   1.812  1.00  0.00     0.278 C 
BRANCH  10  11
HETATM   11  O   UNL     1      42.215 -15.630   1.802  1.00  0.00    -0.342 OA
BRANCH  11  12
HETATM   12  C   UNL     1      42.781 -15.933   3.010  1.00  0.00     0.069 A 
HETATM   13  C   UNL     1      42.683 -14.954   3.997  1.00  0.00     0.037 A 
HETATM   14  C   UNL     1      43.206 -15.183   5.272  1.00  0.00     0.009 A 
HETATM   15  C   UNL     1      43.822 -16.402   5.575  1.00  0.00    -0.062 A 
HETATM   16  C   UNL     1      44.352 -16.671   6.952  1.00  0.00     0.048 C 
HETATM   17  C   UNL     1      43.880 -17.396   4.590  1.00  0.00     0.009 A 
HETATM   18  C   UNL     1      43.362 -17.164   3.313  1.00  0.00     0.037 A 
ENDBRANCH  11  12
ENDBRANCH  10  11
ENDBRANCH   7  10
ENDBRANCH   5   6
ENDBRANCH   1   5
BRANCH   2  19
HETATM   19  N   UNL     1      41.530 -11.058   5.491  1.00  0.00    -0.166 NA
HETATM   20  C   UNL     1      42.821 -11.142   5.501  1.00  0.00     0.157 A 
HETATM   21  C   UNL     1      43.760 -11.489   4.342  1.00  0.00     0.277 A 
HETATM   22  C   UNL     1      43.679 -10.914   6.656  1.00  0.00     0.028 A 
HETATM   23  O   UNL     1      43.394 -11.770   3.220  1.00  0.00    -0.266 OA
HETATM   24  N   UNL     1      45.033 -11.418   4.863  1.00  0.00    -0.321 N 
HETATM   25  C   UNL     1      44.991 -11.088   6.216  1.00  0.00     0.048 A 
HETATM   26  H   UNL     1      45.865 -11.600   4.321  1.00  0.00     0.169 HD
HETATM   27  C   UNL     1      46.059 -10.942   7.075  1.00  0.00     0.032 A 
HETATM   28  C   UNL     1      45.771 -10.616   8.406  1.00  0.00     0.021 A 
HETATM   29  C   UNL     1      44.439 -10.446   8.838  1.00  0.00     0.012 A 
HETATM   30 BR   UNL     1      44.103 -10.014  10.650  1.00  0.00    -0.051 Br
HETATM   31  C   UNL     1      43.365 -10.593   7.960  1.00  0.00     0.035 A 
ENDBRANCH   2  19
TORSDOF 6
ENDMDL
MODEL 7
REMARK VINA RESULT:      -7.8      6.127      9.173
REMARK  6 active torsions:
REMARK  status: ('A' for Active; 'I' for Inactive)
REMARK    1  A    between atoms: C_5  and  O_6 
REMARK    2  A    between atoms: O_6  and  C_7 
REMARK    3  A    between atoms: C_7  and  C_8 
REMARK       I    between atoms: C_8  and  N_9 
REMARK    4  A    between atoms: N_9  and  C_10 
REMARK    5  A    between atoms: C_10  and  C_11 
REMARK       I    between atoms: C_11  and  N_12 
REMARK    6  A    between atoms: N_12  and  N_13 
ROOT
HETATM    1  C   UNL     1      44.518 -11.217   7.947  1.00  0.00     0.255 C 
HETATM    2  N   UNL     1      43.290 -10.726   8.364  1.00  0.00    -0.245 N 
HETATM    3  O   UNL     1      45.581 -11.085   8.553  1.00  0.00    -0.270 OA
HETATM    4  H   UNL     1      42.433 -10.950   7.852  1.00  0.00     0.192 HD
ENDROOT
BRANCH   1   5
HETATM    5  C   UNL     1      44.454 -11.897   6.578  1.00  0.00     0.227 C 
BRANCH   5   6
HETATM    6  N   UNL     1      43.788 -11.032   5.618  1.00  0.00    -0.350 N 
HETATM    7  C   UNL     1      43.018 -11.390   4.548  1.00  0.00     0.242 C 
HETATM    8  O   UNL     1      42.649 -10.525   3.754  1.00  0.00    -0.271 OA
HETATM    9  H   UNL     1      44.097 -10.063   5.597  1.00  0.00     0.163 HD
BRANCH   7  10
HETATM   10  C   UNL     1      42.576 -12.844   4.414  1.00  0.00     0.278 C 
BRANCH  10  11
HETATM   11  O   UNL     1      42.990 -13.346   3.146  1.00  0.00    -0.342 OA
BRANCH  11  12
HETATM   12  C   UNL     1      43.065 -14.711   3.086  1.00  0.00     0.069 A 
HETATM   13  C   UNL     1      43.210 -15.263   1.814  1.00  0.00     0.037 A 
HETATM   14  C   UNL     1      43.323 -16.646   1.655  1.00  0.00     0.009 A 
HETATM   15  C   UNL     1      43.305 -17.490   2.771  1.00  0.00    -0.062 A 
HETATM   16  C   UNL     1      43.464 -18.973   2.611  1.00  0.00     0.048 C 
HETATM   17  C   UNL     1      43.199 -16.925   4.048  1.00  0.00     0.009 A 
HETATM   18  C   UNL     1      43.080 -15.541   4.206  1.00  0.00     0.037 A 
ENDBRANCH  11  12
ENDBRANCH  10  11
ENDBRANCH   7  10
ENDBRANCH   5   6
ENDBRANCH   1   5
BRANCH   2  19
HETATM   19  N   UNL     1      43.193 -10.029   9.536  1.00  0.00    -0.166 NA
HETATM   20  C   UNL     1      42.826  -8.792   9.444  1.00  0.00     0.157 A 
HETATM   21  C   UNL     1      42.474  -7.995   8.185  1.00  0.00     0.277 A 
HETATM   22  C   UNL     1      42.660  -7.869  10.560  1.00  0.00     0.028 A 
HETATM   23  O   UNL     1      42.526  -8.435   7.055  1.00  0.00    -0.266 OA
HETATM   24  N   UNL     1      42.123  -6.739   8.627  1.00  0.00    -0.321 N 
HETATM   25  C   UNL     1      42.234  -6.658  10.014  1.00  0.00     0.048 A 
HETATM   26  H   UNL     1      41.840  -5.992   8.009  1.00  0.00     0.169 HD
HETATM   27  C   UNL     1      41.984  -5.562  10.811  1.00  0.00     0.032 A 
HETATM   28  C   UNL     1      42.179  -5.715  12.190  1.00  0.00     0.021 A 
HETATM   29  C   UNL     1      42.613  -6.945  12.728  1.00  0.00     0.012 A 
HETATM   30 BR   UNL     1      42.869  -7.096  14.598  1.00  0.00    -0.051 Br
HETATM   31  C   UNL     1      42.860  -8.049  11.913  1.00  0.00     0.035 A 
ENDBRANCH   2  19
TORSDOF 6
ENDMDL
MODEL 8
REMARK VINA RESULT:      -7.7      3.137      6.306
REMARK  6 active torsions:
REMARK  status: ('A' for Active; 'I' for Inactive)
REMARK    1  A    between atoms: C_5  and  O_6 
REMARK    2  A    between atoms: O_6  and  C_7 
REMARK    3  A    between atoms: C_7  and  C_8 
REMARK       I    between atoms: C_8  and  N_9 
REMARK    4  A    between atoms: N_9  and  C_10 
REMARK    5  A    between atoms: C_10  and  C_11 
REMARK       I    between atoms: C_11  and  N_12 
REMARK    6  A    between atoms: N_12  and  N_13 
ROOT
HETATM    1  C   UNL     1      41.906 -13.212   5.996  1.00  0.00     0.255 C 
HETATM    2  N   UNL     1      43.108 -13.727   5.535  1.00  0.00    -0.245 N 
HETATM    3  O   UNL     1      40.949 -13.880   6.388  1.00  0.00    -0.270 OA
HETATM    4  H   UNL     1      43.892 -13.110   5.308  1.00  0.00     0.192 HD
ENDROOT
BRANCH   1   5
HETATM    5  C   UNL     1      41.836 -11.687   5.902  1.00  0.00     0.227 C 
BRANCH   5   6
HETATM    6  N   UNL     1      40.449 -11.252   5.838  1.00  0.00    -0.350 N 
HETATM    7  C   UNL     1      39.664 -11.089   4.732  1.00  0.00     0.242 C 
HETATM    8  O   UNL     1      38.552 -10.574   4.852  1.00  0.00    -0.271 OA
HETATM    9  H   UNL     1      40.080 -10.808   6.675  1.00  0.00     0.163 HD
BRANCH   7  10
HETATM   10  C   UNL     1      40.161 -11.625   3.392  1.00  0.00     0.278 C 
BRANCH  10  11
HETATM   11  O   UNL     1      39.656 -12.944   3.198  1.00  0.00    -0.342 OA
BRANCH  11  12
HETATM   12  C   UNL     1      39.629 -13.342   1.890  1.00  0.00     0.069 A 
HETATM   13  C   UNL     1      39.352 -12.351   0.951  1.00  0.00     0.037 A 
HETATM   14  C   UNL     1      39.331 -12.656  -0.412  1.00  0.00     0.009 A 
HETATM   15  C   UNL     1      39.600 -13.957  -0.849  1.00  0.00    -0.062 A 
HETATM   16  C   UNL     1      39.617 -14.285  -2.312  1.00  0.00     0.048 C 
HETATM   17  C   UNL     1      39.918 -14.939   0.098  1.00  0.00     0.009 A 
HETATM   18  C   UNL     1      39.933 -14.634   1.462  1.00  0.00     0.037 A 
ENDBRANCH  11  12
ENDBRANCH  10  11
ENDBRANCH   7  10
ENDBRANCH   5   6
ENDBRANCH   1   5
BRANCH   2  19
HETATM   19  N   UNL     1      43.301 -15.080   5.488  1.00  0.00    -0.166 NA
HETATM   20  C   UNL     1      43.317 -15.622   4.313  1.00  0.00     0.157 A 
HETATM   21  C   UNL     1      43.152 -14.942   2.950  1.00  0.00     0.277 A 
HETATM   22  C   UNL     1      43.505 -17.039   4.032  1.00  0.00     0.028 A 
HETATM   23  O   UNL     1      42.948 -13.757   2.793  1.00  0.00    -0.266 OA
HETATM   24  N   UNL     1      43.274 -15.948   2.017  1.00  0.00    -0.321 N 
HETATM   25  C   UNL     1      43.475 -17.176   2.644  1.00  0.00     0.048 A 
HETATM   26  H   UNL     1      43.209 -15.792   1.022  1.00  0.00     0.169 HD
HETATM   27  C   UNL     1      43.625 -18.407   2.044  1.00  0.00     0.032 A 
HETATM   28  C   UNL     1      43.804 -19.513   2.885  1.00  0.00     0.021 A 
HETATM   29  C   UNL     1      43.829 -19.360   4.287  1.00  0.00     0.012 A 
HETATM   30 BR   UNL     1      44.065 -20.888   5.379  1.00  0.00    -0.051 Br
HETATM   31  C   UNL     1      43.680 -18.109   4.885  1.00  0.00     0.035 A 
ENDBRANCH   2  19
TORSDOF 6
ENDMDL
MODEL 9
REMARK VINA RESULT:      -7.5      5.696      9.101
REMARK  6 active torsions:
REMARK  status: ('A' for Active; 'I' for Inactive)
REMARK    1  A    between atoms: C_5  and  O_6 
REMARK    2  A    between atoms: O_6  and  C_7 
REMARK    3  A    between atoms: C_7  and  C_8 
REMARK       I    between atoms: C_8  and  N_9 
REMARK    4  A    between atoms: N_9  and  C_10 
REMARK    5  A    between atoms: C_10  and  C_11 
REMARK       I    between atoms: C_11  and  N_12 
REMARK    6  A    between atoms: N_12  and  N_13 
ROOT
HETATM    1  C   UNL     1      42.098 -10.346   6.722  1.00  0.00     0.255 C 
HETATM    2  N   UNL     1      42.647  -9.930   7.925  1.00  0.00    -0.245 N 
HETATM    3  O   UNL     1      40.905 -10.289   6.425  1.00  0.00    -0.270 OA
HETATM    4  H   UNL     1      43.660  -9.927   8.068  1.00  0.00     0.192 HD
ENDROOT
BRANCH   1   5
HETATM    5  C   UNL     1      43.127 -10.980   5.784  1.00  0.00     0.227 C 
BRANCH   5   6
HETATM    6  N   UNL     1      42.867 -10.582   4.410  1.00  0.00    -0.350 N 
HETATM    7  C   UNL     1      42.522 -11.373   3.351  1.00  0.00     0.242 C 
HETATM    8  O   UNL     1      42.481 -10.884   2.222  1.00  0.00    -0.271 OA
HETATM    9  H   UNL     1      43.185  -9.653   4.145  1.00  0.00     0.163 HD
BRANCH   7  10
HETATM   10  C   UNL     1      42.124 -12.822   3.615  1.00  0.00     0.278 C 
BRANCH  10  11
HETATM   11  O   UNL     1      43.292 -13.583   3.913  1.00  0.00    -0.342 OA
BRANCH  11  12
HETATM   12  C   UNL     1      43.204 -14.900   3.557  1.00  0.00     0.069 A 
HETATM   13  C   UNL     1      43.237 -15.170   2.190  1.00  0.00     0.037 A 
HETATM   14  C   UNL     1      43.182 -16.489   1.731  1.00  0.00     0.009 A 
HETATM   15  C   UNL     1      43.105 -17.551   2.637  1.00  0.00    -0.062 A 
HETATM   16  C   UNL     1      43.083 -18.970   2.154  1.00  0.00     0.048 C 
HETATM   17  C   UNL     1      43.113 -17.273   4.010  1.00  0.00     0.009 A 
HETATM   18  C   UNL     1      43.163 -15.954   4.469  1.00  0.00     0.037 A 
ENDBRANCH  11  12
ENDBRANCH  10  11
ENDBRANCH   7  10
ENDBRANCH   5   6
ENDBRANCH   1   5
BRANCH   2  19
HETATM   19  N   UNL     1      41.844  -9.406   8.899  1.00  0.00    -0.166 NA
HETATM   20  C   UNL     1      42.213  -9.606  10.123  1.00  0.00     0.157 A 
HETATM   21  C   UNL     1      43.447 -10.357  10.633  1.00  0.00     0.277 A 
HETATM   22  C   UNL     1      41.509  -9.141  11.311  1.00  0.00     0.028 A 
HETATM   23  O   UNL     1      44.259 -10.909   9.922  1.00  0.00    -0.266 OA
HETATM   24  N   UNL     1      43.397 -10.262  12.007  1.00  0.00    -0.321 N 
HETATM   25  C   UNL     1      42.264  -9.557  12.408  1.00  0.00     0.048 A 
HETATM   26  H   UNL     1      44.091 -10.668  12.616  1.00  0.00     0.169 HD
HETATM   27  C   UNL     1      41.867  -9.275  13.697  1.00  0.00     0.032 A 
HETATM   28  C   UNL     1      40.675  -8.558  13.859  1.00  0.00     0.021 A 
HETATM   29  C   UNL     1      39.920  -8.145  12.740  1.00  0.00     0.012 A 
HETATM   30 BR   UNL     1      38.312  -7.186  13.014  1.00  0.00    -0.051 Br
HETATM   31  C   UNL     1      40.332  -8.433  11.439  1.00  0.00     0.035 A 
ENDBRANCH   2  19
TORSDOF 6
ENDMDL
MODEL 10
REMARK VINA RESULT:      -7.4     15.327     17.692
REMARK  6 active torsions:
REMARK  status: ('A' for Active; 'I' for Inactive)
REMARK    1  A    between atoms: C_5  and  O_6 
REMARK    2  A    between atoms: O_6  and  C_7 
REMARK    3  A    between atoms: C_7  and  C_8 
REMARK       I    between atoms: C_8  and  N_9 
REMARK    4  A    between atoms: N_9  and  C_10 
REMARK    5  A    between atoms: C_10  and  C_11 
REMARK       I    between atoms: C_11  and  N_12 
REMARK    6  A    between atoms: N_12  and  N_13 
ROOT
HETATM    1  C   UNL     1      44.343 -30.142   2.143  1.00  0.00     0.255 C 
HETATM    2  N   UNL     1      45.180 -29.564   3.084  1.00  0.00    -0.245 N 
HETATM    3  O   UNL     1      44.334 -31.333   1.833  1.00  0.00    -0.270 OA
HETATM    4  H   UNL     1      45.071 -28.583   3.353  1.00  0.00     0.192 HD
ENDROOT
BRANCH   1   5
HETATM    5  C   UNL     1      43.448 -29.122   1.435  1.00  0.00     0.227 C 
BRANCH   5   6
HETATM    6  N   UNL     1      43.343 -29.443   0.020  1.00  0.00    -0.350 N 
HETATM    7  C   UNL     1      44.212 -29.127  -0.985  1.00  0.00     0.242 C 
HETATM    8  O   UNL     1      43.893 -29.355  -2.152  1.00  0.00    -0.271 OA
HETATM    9  H   UNL     1      42.427 -29.741  -0.305  1.00  0.00     0.163 HD
BRANCH   7  10
HETATM   10  C   UNL     1      45.586 -28.570  -0.622  1.00  0.00     0.278 C 
BRANCH  10  11
HETATM   11  O   UNL     1      46.566 -29.140  -1.486  1.00  0.00    -0.342 OA
BRANCH  11  12
HETATM   12  C   UNL     1      47.595 -29.757  -0.829  1.00  0.00     0.069 A 
HETATM   13  C   UNL     1      47.271 -30.923  -0.138  1.00  0.00     0.037 A 
HETATM   14  C   UNL     1      48.261 -31.639   0.540  1.00  0.00     0.009 A 
HETATM   15  C   UNL     1      49.589 -31.199   0.521  1.00  0.00    -0.062 A 
HETATM   16  C   UNL     1      50.664 -31.982   1.215  1.00  0.00     0.048 C 
HETATM   17  C   UNL     1      49.913 -30.049  -0.208  1.00  0.00     0.009 A 
HETATM   18  C   UNL     1      48.922 -29.330  -0.882  1.00  0.00     0.037 A 
ENDBRANCH  11  12
ENDBRANCH  10  11
ENDBRANCH   7  10
ENDBRANCH   5   6
ENDBRANCH   1   5
BRANCH   2  19
HETATM   19  N   UNL     1      46.091 -30.332   3.754  1.00  0.00    -0.166 NA
HETATM   20  C   UNL     1      47.328 -29.957   3.682  1.00  0.00     0.157 A 
HETATM   21  C   UNL     1      47.914 -28.751   2.943  1.00  0.00     0.277 A 
HETATM   22  C   UNL     1      48.457 -30.627   4.314  1.00  0.00     0.028 A 
HETATM   23  O   UNL     1      47.267 -27.972   2.275  1.00  0.00    -0.266 OA
HETATM   24  N   UNL     1      49.267 -28.781   3.200  1.00  0.00    -0.321 N 
HETATM   25  C   UNL     1      49.590 -29.878   3.996  1.00  0.00     0.048 A 
HETATM   26  H   UNL     1      49.916 -28.098   2.837  1.00  0.00     0.169 HD
HETATM   27  C   UNL     1      50.840 -30.247   4.445  1.00  0.00     0.032 A 
HETATM   28  C   UNL     1      50.924 -31.405   5.229  1.00  0.00     0.021 A 
HETATM   29  C   UNL     1      49.770 -32.154   5.540  1.00  0.00     0.012 A 
HETATM   30 BR   UNL     1      49.939 -33.716   6.596  1.00  0.00    -0.051 Br
HETATM   31  C   UNL     1      48.509 -31.770   5.083  1.00  0.00     0.035 A 
ENDBRANCH   2  19
TORSDOF 6
ENDMDL
