MODEL 1
REMARK VINA RESULT:      -7.7      0.000      0.000
REMARK  4 active torsions:
REMARK  status: ('A' for Active; 'I' for Inactive)
REMARK    1  A    between atoms: C_2  and  N_3 
REMARK    2  A    between atoms: C_2  and  C_13 
REMARK       I    between atoms: N_3  and  C_4 
REMARK    3  A    between atoms: C_4  and  C_5 
REMARK    4  A    between atoms: C_6  and  C_7 
ROOT
HETATM    1  C   UNL     1      40.282 -12.360   2.710  1.00  0.00     0.040 C 
HETATM    2  C   UNL     1      40.991 -13.292   1.734  1.00  0.00     0.150 C 
ENDROOT
BRANCH   2   3
HETATM    3  N   UNL     1      41.238 -14.584   2.351  1.00  0.00    -0.346 N 
HETATM    4  C   UNL     1      42.481 -15.162   2.314  1.00  0.00     0.241 C 
HETATM    5  O   UNL     1      43.466 -14.625   1.822  1.00  0.00    -0.269 OA
HETATM    6  H   UNL     1      40.426 -15.160   2.536  1.00  0.00     0.163 HD
BRANCH   4   7
HETATM    7  C   UNL     1      42.508 -16.522   2.904  1.00  0.00     0.075 C 
HETATM    8  C   UNL     1      43.575 -17.314   2.705  1.00  0.00     0.017 C 
BRANCH   8   9
HETATM    9  C   UNL     1      43.749 -18.637   3.230  1.00  0.00    -0.029 A 
HETATM   10  C   UNL     1      44.082 -18.851   4.553  1.00  0.00     0.061 A 
HETATM   11  S   UNL     1      44.225 -20.515   4.934  1.00  0.00    -0.113 SA
HETATM   12  C   UNL     1      43.839 -20.967   3.332  1.00  0.00     0.050 A 
HETATM   13  C   UNL     1      43.609 -19.873   2.525  1.00  0.00     0.019 A 
ENDBRANCH   8   9
ENDBRANCH   4   7
ENDBRANCH   2   3
BRANCH   2  14
HETATM   14  C   UNL     1      40.189 -13.517   0.488  1.00  0.00     0.127 A 
HETATM   15  N   UNL     1      40.339 -14.466  -0.417  1.00  0.00    -0.231 NA
HETATM   16  C   UNL     1      39.365 -14.232  -1.358  1.00  0.00     0.085 A 
HETATM   17  C   UNL     1      38.614 -13.109  -1.032  1.00  0.00     0.062 A 
HETATM   18  C   UNL     1      39.064 -14.940  -2.531  1.00  0.00     0.034 A 
HETATM   19  N   UNL     1      39.165 -12.665   0.140  1.00  0.00    -0.341 N 
HETATM   20  C   UNL     1      37.560 -12.636  -1.816  1.00  0.00     0.032 A 
HETATM   21  H   UNL     1      38.907 -11.832   0.656  1.00  0.00     0.167 HD
HETATM   22  C   UNL     1      37.272 -13.357  -2.981  1.00  0.00     0.002 A 
HETATM   23  C   UNL     1      38.009 -14.491  -3.336  1.00  0.00     0.002 A 
ENDBRANCH   2  14
TORSDOF 4
ENDMDL
MODEL 2
REMARK VINA RESULT:      -7.3      4.533      8.034
REMARK  4 active torsions:
REMARK  status: ('A' for Active; 'I' for Inactive)
REMARK    1  A    between atoms: C_2  and  N_3 
REMARK    2  A    between atoms: C_2  and  C_13 
REMARK       I    between atoms: N_3  and  C_4 
REMARK    3  A    between atoms: C_4  and  C_5 
REMARK    4  A    between atoms: C_6  and  C_7 
ROOT
HETATM    1  C   UNL     1      41.196 -14.871   2.213  1.00  0.00     0.040 C 
HETATM    2  C   UNL     1      42.599 -14.961   2.804  1.00  0.00     0.150 C 
ENDROOT
BRANCH   2   3
HETATM    3  N   UNL     1      42.692 -14.164   4.016  1.00  0.00    -0.346 N 
HETATM    4  C   UNL     1      43.182 -12.883   3.985  1.00  0.00     0.241 C 
HETATM    5  O   UNL     1      43.515 -12.306   2.956  1.00  0.00    -0.269 OA
HETATM    6  H   UNL     1      42.672 -14.669   4.892  1.00  0.00     0.163 HD
BRANCH   4   7
HETATM    7  C   UNL     1      43.298 -12.273   5.332  1.00  0.00     0.075 C 
HETATM    8  C   UNL     1      44.438 -11.660   5.691  1.00  0.00     0.017 C 
BRANCH   8   9
HETATM    9  C   UNL     1      44.685 -11.010   6.944  1.00  0.00    -0.029 A 
HETATM   10  C   UNL     1      43.673 -10.795   7.858  1.00  0.00     0.061 A 
HETATM   11  S   UNL     1      44.223 -10.009   9.276  1.00  0.00    -0.113 SA
HETATM   12  C   UNL     1      45.824  -9.950   8.683  1.00  0.00     0.050 A 
HETATM   13  C   UNL     1      45.935 -10.516   7.431  1.00  0.00     0.019 A 
ENDBRANCH   8   9
ENDBRANCH   4   7
ENDBRANCH   2   3
BRANCH   2  14
HETATM   14  C   UNL     1      42.976 -16.371   3.144  1.00  0.00     0.127 A 
HETATM   15  N   UNL     1      43.443 -16.835   4.287  1.00  0.00    -0.231 NA
HETATM   16  C   UNL     1      43.634 -18.181   4.086  1.00  0.00     0.085 A 
HETATM   17  C   UNL     1      43.292 -18.546   2.788  1.00  0.00     0.062 A 
HETATM   18  C   UNL     1      44.106 -19.162   4.970  1.00  0.00     0.034 A 
HETATM   19  N   UNL     1      42.887 -17.375   2.206  1.00  0.00    -0.341 N 
HETATM   20  C   UNL     1      43.393 -19.852   2.306  1.00  0.00     0.032 A 
HETATM   21  H   UNL     1      42.609 -17.240   1.241  1.00  0.00     0.167 HD
HETATM   22  C   UNL     1      43.862 -20.818   3.204  1.00  0.00     0.002 A 
HETATM   23  C   UNL     1      44.215 -20.482   4.515  1.00  0.00     0.002 A 
ENDBRANCH   2  14
TORSDOF 4
ENDMDL
MODEL 3
REMARK VINA RESULT:      -7.2      7.766     10.137
REMARK  4 active torsions:
REMARK  status: ('A' for Active; 'I' for Inactive)
REMARK    1  A    between atoms: C_2  and  N_3 
REMARK    2  A    between atoms: C_2  and  C_13 
REMARK       I    between atoms: N_3  and  C_4 
REMARK    3  A    between atoms: C_4  and  C_5 
REMARK    4  A    between atoms: C_6  and  C_7 
ROOT
HETATM    1  C   UNL     1      45.169 -11.306   6.038  1.00  0.00     0.040 C 
HETATM    2  C   UNL     1      44.495 -12.186   7.086  1.00  0.00     0.150 C 
ENDROOT
BRANCH   2   3
HETATM    3  N   UNL     1      43.762 -11.370   8.039  1.00  0.00    -0.346 N 
HETATM    4  C   UNL     1      44.405 -10.730   9.067  1.00  0.00     0.241 C 
HETATM    5  O   UNL     1      45.621 -10.748   9.225  1.00  0.00    -0.269 OA
HETATM    6  H   UNL     1      42.764 -11.529   8.098  1.00  0.00     0.163 HD
BRANCH   4   7
HETATM    7  C   UNL     1      43.477 -10.036   9.992  1.00  0.00     0.075 C 
HETATM    8  C   UNL     1      43.760  -9.981  11.304  1.00  0.00     0.017 C 
BRANCH   8   9
HETATM    9  C   UNL     1      42.972  -9.328  12.308  1.00  0.00    -0.029 A 
HETATM   10  C   UNL     1      41.821  -9.903  12.811  1.00  0.00     0.061 A 
HETATM   11  S   UNL     1      41.066  -8.931  14.001  1.00  0.00    -0.113 SA
HETATM   12  C   UNL     1      42.273  -7.731  13.860  1.00  0.00     0.050 A 
HETATM   13  C   UNL     1      43.229  -8.063  12.923  1.00  0.00     0.019 A 
ENDBRANCH   8   9
ENDBRANCH   4   7
ENDBRANCH   2   3
BRANCH   2  14
HETATM   14  C   UNL     1      43.535 -13.159   6.470  1.00  0.00     0.127 A 
HETATM   15  N   UNL     1      43.223 -13.298   5.196  1.00  0.00    -0.231 NA
HETATM   16  C   UNL     1      42.300 -14.316   5.154  1.00  0.00     0.085 A 
HETATM   17  C   UNL     1      42.030 -14.799   6.429  1.00  0.00     0.062 A 
HETATM   18  C   UNL     1      41.640 -14.882   4.054  1.00  0.00     0.034 A 
HETATM   19  N   UNL     1      42.820 -14.039   7.250  1.00  0.00    -0.341 N 
HETATM   20  C   UNL     1      41.126 -15.831   6.684  1.00  0.00     0.032 A 
HETATM   21  H   UNL     1      42.854 -14.072   8.263  1.00  0.00     0.167 HD
HETATM   22  C   UNL     1      40.479 -16.386   5.573  1.00  0.00     0.002 A 
HETATM   23  C   UNL     1      40.729 -15.922   4.278  1.00  0.00     0.002 A 
ENDBRANCH   2  14
TORSDOF 4
ENDMDL
MODEL 4
REMARK VINA RESULT:      -7.2      5.233      8.247
REMARK  4 active torsions:
REMARK  status: ('A' for Active; 'I' for Inactive)
REMARK    1  A    between atoms: C_2  and  N_3 
REMARK    2  A    between atoms: C_2  and  C_13 
REMARK       I    between atoms: N_3  and  C_4 
REMARK    3  A    between atoms: C_4  and  C_5 
REMARK    4  A    between atoms: C_6  and  C_7 
ROOT
HETATM    1  C   UNL     1      40.598 -13.238   4.224  1.00  0.00     0.040 C 
HETATM    2  C   UNL     1      42.113 -13.267   4.053  1.00  0.00     0.150 C 
ENDROOT
BRANCH   2   3
HETATM    3  N   UNL     1      42.761 -12.558   5.143  1.00  0.00    -0.346 N 
HETATM    4  C   UNL     1      43.802 -11.697   4.909  1.00  0.00     0.241 C 
HETATM    5  O   UNL     1      44.219 -11.421   3.790  1.00  0.00    -0.269 OA
HETATM    6  H   UNL     1      42.626 -12.936   6.072  1.00  0.00     0.163 HD
BRANCH   4   7
HETATM    7  C   UNL     1      44.399 -11.153   6.153  1.00  0.00     0.075 C 
HETATM    8  C   UNL     1      43.607 -10.847   7.194  1.00  0.00     0.017 C 
BRANCH   8   9
HETATM    9  C   UNL     1      44.043 -10.337   8.461  1.00  0.00    -0.029 A 
HETATM   10  C   UNL     1      43.161  -9.751   9.347  1.00  0.00     0.061 A 
HETATM   11  S   UNL     1      43.924  -9.232  10.789  1.00  0.00    -0.113 SA
HETATM   12  C   UNL     1      45.445  -9.789  10.245  1.00  0.00     0.050 A 
HETATM   13  C   UNL     1      45.371 -10.356   8.990  1.00  0.00     0.019 A 
ENDBRANCH   8   9
ENDBRANCH   4   7
ENDBRANCH   2   3
BRANCH   2  14
HETATM   14  C   UNL     1      42.649 -14.666   4.023  1.00  0.00     0.127 A 
HETATM   15  N   UNL     1      43.270 -15.321   4.986  1.00  0.00    -0.231 NA
HETATM   16  C   UNL     1      43.561 -16.557   4.461  1.00  0.00     0.085 A 
HETATM   17  C   UNL     1      43.124 -16.656   3.145  1.00  0.00     0.062 A 
HETATM   18  C   UNL     1      44.207 -17.652   5.052  1.00  0.00     0.034 A 
HETATM   19  N   UNL     1      42.558 -15.436   2.886  1.00  0.00    -0.341 N 
HETATM   20  C   UNL     1      43.294 -17.800   2.364  1.00  0.00     0.032 A 
HETATM   21  H   UNL     1      42.172 -15.120   2.004  1.00  0.00     0.167 HD
HETATM   22  C   UNL     1      43.938 -18.885   2.972  1.00  0.00     0.002 A 
HETATM   23  C   UNL     1      44.388 -18.816   4.293  1.00  0.00     0.002 A 
ENDBRANCH   2  14
TORSDOF 4
ENDMDL
MODEL 5
REMARK VINA RESULT:      -7.1      4.955      7.731
REMARK  4 active torsions:
REMARK  status: ('A' for Active; 'I' for Inactive)
REMARK    1  A    between atoms: C_2  and  N_3 
REMARK    2  A    between atoms: C_2  and  C_13 
REMARK       I    between atoms: N_3  and  C_4 
REMARK    3  A    between atoms: C_4  and  C_5 
REMARK    4  A    between atoms: C_6  and  C_7 
ROOT
HETATM    1  C   UNL     1      40.720 -11.401   4.500  1.00  0.00     0.040 C 
HETATM    2  C   UNL     1      41.206 -12.123   5.753  1.00  0.00     0.150 C 
ENDROOT
BRANCH   2   3
HETATM    3  N   UNL     1      41.537 -13.505   5.448  1.00  0.00    -0.346 N 
HETATM    4  C   UNL     1      40.789 -14.540   5.947  1.00  0.00     0.241 C 
HETATM    5  O   UNL     1      39.778 -14.384   6.624  1.00  0.00    -0.269 OA
HETATM    6  H   UNL     1      42.477 -13.683   5.119  1.00  0.00     0.163 HD
BRANCH   4   7
HETATM    7  C   UNL     1      41.344 -15.873   5.613  1.00  0.00     0.075 C 
HETATM    8  C   UNL     1      42.429 -15.967   4.826  1.00  0.00     0.017 C 
BRANCH   8   9
HETATM    9  C   UNL     1      43.085 -17.181   4.440  1.00  0.00    -0.029 A 
HETATM   10  C   UNL     1      43.571 -18.070   5.378  1.00  0.00     0.061 A 
HETATM   11  S   UNL     1      44.304 -19.444   4.665  1.00  0.00    -0.113 SA
HETATM   12  C   UNL     1      43.975 -18.865   3.092  1.00  0.00     0.050 A 
HETATM   13  C   UNL     1      43.323 -17.650   3.110  1.00  0.00     0.019 A 
ENDBRANCH   8   9
ENDBRANCH   4   7
ENDBRANCH   2   3
BRANCH   2  14
HETATM   14  C   UNL     1      42.421 -11.472   6.341  1.00  0.00     0.127 A 
HETATM   15  N   UNL     1      43.686 -11.799   6.163  1.00  0.00    -0.231 NA
HETATM   16  C   UNL     1      44.407 -10.906   6.919  1.00  0.00     0.085 A 
HETATM   17  C   UNL     1      43.564 -10.024   7.586  1.00  0.00     0.062 A 
HETATM   18  C   UNL     1      45.794 -10.790   7.091  1.00  0.00     0.034 A 
HETATM   19  N   UNL     1      42.306 -10.412   7.212  1.00  0.00    -0.341 N 
HETATM   20  C   UNL     1      44.026  -9.013   8.431  1.00  0.00     0.032 A 
HETATM   21  H   UNL     1      41.428 -10.027   7.540  1.00  0.00     0.167 HD
HETATM   22  C   UNL     1      45.413  -8.910   8.587  1.00  0.00     0.002 A 
HETATM   23  C   UNL     1      46.286  -9.782   7.930  1.00  0.00     0.002 A 
ENDBRANCH   2  14
TORSDOF 4
ENDMDL
MODEL 6
REMARK VINA RESULT:      -7.0      3.272      7.595
REMARK  4 active torsions:
REMARK  status: ('A' for Active; 'I' for Inactive)
REMARK    1  A    between atoms: C_2  and  N_3 
REMARK    2  A    between atoms: C_2  and  C_13 
REMARK       I    between atoms: N_3  and  C_4 
REMARK    3  A    between atoms: C_4  and  C_5 
REMARK    4  A    between atoms: C_6  and  C_7 
ROOT
HETATM    1  C   UNL     1      43.167 -13.644   4.910  1.00  0.00     0.040 C 
HETATM    2  C   UNL     1      42.087 -14.599   4.411  1.00  0.00     0.150 C 
ENDROOT
BRANCH   2   3
HETATM    3  N   UNL     1      41.557 -14.144   3.136  1.00  0.00    -0.346 N 
HETATM    4  C   UNL     1      40.380 -13.443   3.067  1.00  0.00     0.241 C 
HETATM    5  O   UNL     1      39.732 -13.104   4.051  1.00  0.00    -0.269 OA
HETATM    6  H   UNL     1      41.911 -14.606   2.308  1.00  0.00     0.163 HD
BRANCH   4   7
HETATM    7  C   UNL     1      39.952 -13.161   1.676  1.00  0.00     0.075 C 
HETATM    8  C   UNL     1      40.200 -14.057   0.706  1.00  0.00     0.017 C 
BRANCH   8   9
HETATM    9  C   UNL     1      39.826 -13.930  -0.672  1.00  0.00    -0.029 A 
HETATM   10  C   UNL     1      39.948 -12.731  -1.346  1.00  0.00     0.061 A 
HETATM   11  S   UNL     1      39.443 -12.841  -2.979  1.00  0.00    -0.113 SA
HETATM   12  C   UNL     1      39.061 -14.496  -2.802  1.00  0.00     0.050 A 
HETATM   13  C   UNL     1      39.310 -14.954  -1.526  1.00  0.00     0.019 A 
ENDBRANCH   8   9
ENDBRANCH   4   7
ENDBRANCH   2   3
BRANCH   2  14
HETATM   14  C   UNL     1      42.608 -15.992   4.228  1.00  0.00     0.127 A 
HETATM   15  N   UNL     1      43.281 -16.729   5.091  1.00  0.00    -0.231 NA
HETATM   16  C   UNL     1      43.529 -17.916   4.446  1.00  0.00     0.085 A 
HETATM   17  C   UNL     1      43.012 -17.900   3.155  1.00  0.00     0.062 A 
HETATM   18  C   UNL     1      44.201 -19.060   4.900  1.00  0.00     0.034 A 
HETATM   19  N   UNL     1      42.441 -16.661   3.037  1.00  0.00    -0.341 N 
HETATM   20  C   UNL     1      43.124 -18.974   2.270  1.00  0.00     0.032 A 
HETATM   21  H   UNL     1      42.006 -16.269   2.211  1.00  0.00     0.167 HD
HETATM   22  C   UNL     1      43.794 -20.109   2.742  1.00  0.00     0.002 A 
HETATM   23  C   UNL     1      44.326 -20.155   4.034  1.00  0.00     0.002 A 
ENDBRANCH   2  14
TORSDOF 4
ENDMDL
MODEL 7
REMARK VINA RESULT:      -6.9     14.129     15.344
REMARK  4 active torsions:
REMARK  status: ('A' for Active; 'I' for Inactive)
REMARK    1  A    between atoms: C_2  and  N_3 
REMARK    2  A    between atoms: C_2  and  C_13 
REMARK       I    between atoms: N_3  and  C_4 
REMARK    3  A    between atoms: C_4  and  C_5 
REMARK    4  A    between atoms: C_6  and  C_7 
ROOT
HETATM    1  C   UNL     1      42.663 -29.744   2.214  1.00  0.00     0.040 C 
HETATM    2  C   UNL     1      43.998 -29.158   1.768  1.00  0.00     0.150 C 
ENDROOT
BRANCH   2   3
HETATM    3  N   UNL     1      45.101 -29.897   2.358  1.00  0.00    -0.346 N 
HETATM    4  C   UNL     1      46.330 -29.316   2.535  1.00  0.00     0.241 C 
HETATM    5  O   UNL     1      46.572 -28.143   2.271  1.00  0.00    -0.269 OA
HETATM    6  H   UNL     1      45.023 -30.906   2.353  1.00  0.00     0.163 HD
BRANCH   4   7
HETATM    7  C   UNL     1      47.351 -30.258   3.052  1.00  0.00     0.075 C 
HETATM    8  C   UNL     1      48.298 -29.819   3.897  1.00  0.00     0.017 C 
BRANCH   8   9
HETATM    9  C   UNL     1      49.330 -30.616   4.491  1.00  0.00    -0.029 A 
HETATM   10  C   UNL     1      49.048 -31.816   5.114  1.00  0.00     0.061 A 
HETATM   11  S   UNL     1      50.449 -32.580   5.735  1.00  0.00    -0.113 SA
HETATM   12  C   UNL     1      51.450 -31.315   5.175  1.00  0.00     0.050 A 
HETATM   13  C   UNL     1      50.731 -30.330   4.530  1.00  0.00     0.019 A 
ENDBRANCH   8   9
ENDBRANCH   4   7
ENDBRANCH   2   3
BRANCH   2  14
HETATM   14  C   UNL     1      44.157 -29.194   0.278  1.00  0.00     0.127 A 
HETATM   15  N   UNL     1      43.814 -30.158  -0.555  1.00  0.00    -0.231 NA
HETATM   16  C   UNL     1      44.173 -29.711  -1.803  1.00  0.00     0.085 A 
HETATM   17  C   UNL     1      44.761 -28.453  -1.733  1.00  0.00     0.062 A 
HETATM   18  C   UNL     1      44.030 -30.330  -3.053  1.00  0.00     0.034 A 
HETATM   19  N   UNL     1      44.751 -28.151  -0.397  1.00  0.00    -0.341 N 
HETATM   20  C   UNL     1      45.227 -27.760  -2.851  1.00  0.00     0.032 A 
HETATM   21  H   UNL     1      45.145 -27.329   0.043  1.00  0.00     0.167 HD
HETATM   22  C   UNL     1      45.074 -28.393  -4.090  1.00  0.00     0.002 A 
HETATM   23  C   UNL     1      44.486 -29.657  -4.194  1.00  0.00     0.002 A 
ENDBRANCH   2  14
TORSDOF 4
ENDMDL
MODEL 8
REMARK VINA RESULT:      -6.8      3.218      7.724
REMARK  4 active torsions:
REMARK  status: ('A' for Active; 'I' for Inactive)
REMARK    1  A    between atoms: C_2  and  N_3 
REMARK    2  A    between atoms: C_2  and  C_13 
REMARK       I    between atoms: N_3  and  C_4 
REMARK    3  A    between atoms: C_4  and  C_5 
REMARK    4  A    between atoms: C_6  and  C_7 
ROOT
HETATM    1  C   UNL     1      42.995 -13.049   4.584  1.00  0.00     0.040 C 
HETATM    2  C   UNL     1      41.883 -14.014   4.188  1.00  0.00     0.150 C 
ENDROOT
BRANCH   2   3
HETATM    3  N   UNL     1      41.223 -13.559   2.976  1.00  0.00    -0.346 N 
HETATM    4  C   UNL     1      39.982 -12.978   3.020  1.00  0.00     0.241 C 
HETATM    5  O   UNL     1      39.373 -12.751   4.060  1.00  0.00    -0.269 OA
HETATM    6  H   UNL     1      41.561 -13.945   2.104  1.00  0.00     0.163 HD
BRANCH   4   7
HETATM    7  C   UNL     1      39.431 -12.678   1.676  1.00  0.00     0.075 C 
HETATM    8  C   UNL     1      39.847 -13.385   0.612  1.00  0.00     0.017 C 
BRANCH   8   9
HETATM    9  C   UNL     1      39.388 -13.222  -0.737  1.00  0.00    -0.029 A 
HETATM   10  C   UNL     1      39.126 -14.310  -1.547  1.00  0.00     0.061 A 
HETATM   11  S   UNL     1      38.584 -13.853  -3.105  1.00  0.00    -0.113 SA
HETATM   12  C   UNL     1      38.690 -12.194  -2.712  1.00  0.00     0.050 A 
HETATM   13  C   UNL     1      39.131 -11.994  -1.421  1.00  0.00     0.019 A 
ENDBRANCH   8   9
ENDBRANCH   4   7
ENDBRANCH   2   3
BRANCH   2  14
HETATM   14  C   UNL     1      42.401 -15.399   3.944  1.00  0.00     0.127 A 
HETATM   15  N   UNL     1      42.225 -16.158   2.880  1.00  0.00    -0.231 NA
HETATM   16  C   UNL     1      42.891 -17.329   3.150  1.00  0.00     0.085 A 
HETATM   17  C   UNL     1      43.473 -17.293   4.412  1.00  0.00     0.062 A 
HETATM   18  C   UNL     1      43.038 -18.480   2.361  1.00  0.00     0.034 A 
HETATM   19  N   UNL     1      43.137 -16.060   4.902  1.00  0.00    -0.341 N 
HETATM   20  C   UNL     1      44.207 -18.352   4.949  1.00  0.00     0.032 A 
HETATM   21  H   UNL     1      43.347 -15.693   5.823  1.00  0.00     0.167 HD
HETATM   22  C   UNL     1      44.346 -19.490   4.146  1.00  0.00     0.002 A 
HETATM   23  C   UNL     1      43.773 -19.557   2.873  1.00  0.00     0.002 A 
ENDBRANCH   2  14
TORSDOF 4
ENDMDL
MODEL 9
REMARK VINA RESULT:      -6.7      8.028     10.856
REMARK  4 active torsions:
REMARK  status: ('A' for Active; 'I' for Inactive)
REMARK    1  A    between atoms: C_2  and  N_3 
REMARK    2  A    between atoms: C_2  and  C_13 
REMARK       I    between atoms: N_3  and  C_4 
REMARK    3  A    between atoms: C_4  and  C_5 
REMARK    4  A    between atoms: C_6  and  C_7 
ROOT
HETATM    1  C   UNL     1      45.417  -9.101   8.571  1.00  0.00     0.040 C 
HETATM    2  C   UNL     1      43.996  -9.638   8.708  1.00  0.00     0.150 C 
ENDROOT
BRANCH   2   3
HETATM    3  N   UNL     1      43.967 -11.069   8.460  1.00  0.00    -0.346 N 
HETATM    4  C   UNL     1      43.685 -11.568   7.215  1.00  0.00     0.241 C 
HETATM    5  O   UNL     1      43.497 -10.866   6.227  1.00  0.00    -0.269 OA
HETATM    6  H   UNL     1      43.865 -11.667   9.271  1.00  0.00     0.163 HD
BRANCH   4   7
HETATM    7  C   UNL     1      43.598 -13.048   7.186  1.00  0.00     0.075 C 
HETATM    8  C   UNL     1      43.642 -13.696   6.010  1.00  0.00     0.017 C 
BRANCH   8   9
HETATM    9  C   UNL     1      43.592 -15.118   5.832  1.00  0.00    -0.029 A 
HETATM   10  C   UNL     1      43.107 -15.683   4.669  1.00  0.00     0.061 A 
HETATM   11  S   UNL     1      43.160 -17.394   4.698  1.00  0.00    -0.113 SA
HETATM   12  C   UNL     1      43.837 -17.398   6.266  1.00  0.00     0.050 A 
HETATM   13  C   UNL     1      44.016 -16.121   6.757  1.00  0.00     0.019 A 
ENDBRANCH   8   9
ENDBRANCH   4   7
ENDBRANCH   2   3
BRANCH   2  14
HETATM   14  C   UNL     1      43.430  -9.390  10.073  1.00  0.00     0.127 A 
HETATM   15  N   UNL     1      43.915  -8.617  11.027  1.00  0.00    -0.231 NA
HETATM   16  C   UNL     1      43.036  -8.736  12.077  1.00  0.00     0.085 A 
HETATM   17  C   UNL     1      42.001  -9.611  11.766  1.00  0.00     0.062 A 
HETATM   18  C   UNL     1      43.061  -8.126  13.340  1.00  0.00     0.034 A 
HETATM   19  N   UNL     1      42.281 -10.022  10.491  1.00  0.00    -0.341 N 
HETATM   20  C   UNL     1      40.969  -9.923  12.651  1.00  0.00     0.032 A 
HETATM   21  H   UNL     1      41.768 -10.706   9.946  1.00  0.00     0.167 HD
HETATM   22  C   UNL     1      41.008  -9.303  13.906  1.00  0.00     0.002 A 
HETATM   23  C   UNL     1      42.035  -8.418  14.248  1.00  0.00     0.002 A 
ENDBRANCH   2  14
TORSDOF 4
ENDMDL
MODEL 10
REMARK VINA RESULT:      -6.4      5.353      8.351
REMARK  4 active torsions:
REMARK  status: ('A' for Active; 'I' for Inactive)
REMARK    1  A    between atoms: C_2  and  N_3 
REMARK    2  A    between atoms: C_2  and  C_13 
REMARK       I    between atoms: N_3  and  C_4 
REMARK    3  A    between atoms: C_4  and  C_5 
REMARK    4  A    between atoms: C_6  and  C_7 
ROOT
HETATM    1  C   UNL     1      41.408  -9.859   4.429  1.00  0.00     0.040 C 
HETATM    2  C   UNL     1      41.478 -10.952   5.490  1.00  0.00     0.150 C 
ENDROOT
BRANCH   2   3
HETATM    3  N   UNL     1      42.101 -12.148   4.949  1.00  0.00    -0.346 N 
HETATM    4  C   UNL     1      41.576 -13.391   5.188  1.00  0.00     0.241 C 
HETATM    5  O   UNL     1      40.538 -13.583   5.810  1.00  0.00    -0.269 OA
HETATM    6  H   UNL     1      43.066 -12.062   4.657  1.00  0.00     0.163 HD
BRANCH   4   7
HETATM    7  C   UNL     1      42.410 -14.490   4.642  1.00  0.00     0.075 C 
HETATM    8  C   UNL     1      41.849 -15.678   4.365  1.00  0.00     0.017 C 
BRANCH   8   9
HETATM    9  C   UNL     1      42.523 -16.818   3.815  1.00  0.00    -0.029 A 
HETATM   10  C   UNL     1      43.439 -17.541   4.553  1.00  0.00     0.061 A 
HETATM   11  S   UNL     1      44.097 -18.857   3.677  1.00  0.00    -0.113 SA
HETATM   12  C   UNL     1      43.159 -18.476   2.301  1.00  0.00     0.050 A 
HETATM   13  C   UNL     1      42.364 -17.368   2.505  1.00  0.00     0.019 A 
ENDBRANCH   8   9
ENDBRANCH   4   7
ENDBRANCH   2   3
BRANCH   2  14
HETATM   14  C   UNL     1      42.263 -10.520   6.691  1.00  0.00     0.127 A 
HETATM   15  N   UNL     1      41.873  -9.742   7.683  1.00  0.00    -0.231 NA
HETATM   16  C   UNL     1      42.955  -9.648   8.524  1.00  0.00     0.085 A 
HETATM   17  C   UNL     1      44.036 -10.371   8.031  1.00  0.00     0.062 A 
HETATM   18  C   UNL     1      43.092  -8.954   9.735  1.00  0.00     0.034 A 
HETATM   19  N   UNL     1      43.574 -10.906   6.858  1.00  0.00    -0.341 N 
HETATM   20  C   UNL     1      45.269 -10.447   8.680  1.00  0.00     0.032 A 
HETATM   21  H   UNL     1      44.102 -11.458   6.192  1.00  0.00     0.167 HD
HETATM   22  C   UNL     1      45.386  -9.750   9.888  1.00  0.00     0.002 A 
HETATM   23  C   UNL     1      44.318  -9.015  10.411  1.00  0.00     0.002 A 
ENDBRANCH   2  14
TORSDOF 4
ENDMDL
