MODEL 1
REMARK VINA RESULT:      -8.4      0.000      0.000
REMARK  7 active torsions:
REMARK  status: ('A' for Active; 'I' for Inactive)
REMARK    1  A    between atoms: O_2  and  C_3 
REMARK    2  A    between atoms: C_4  and  C_5 
REMARK    3  A    between atoms: C_5  and  C_6 
REMARK       I    between atoms: C_6  and  N_7 
REMARK    4  A    between atoms: N_7  and  N_8 
REMARK       I    between atoms: N_8  and  C_9 
REMARK    5  A    between atoms: C_9  and  C_10 
REMARK    6  A    between atoms: C_15  and  O_16 
REMARK    7  A    between atoms: O_16  and  C_17 
ROOT
HETATM    1  N   UNL     1      42.159 -12.980   5.893  1.00  0.00    -0.262 N 
HETATM    2  C   UNL     1      43.005 -13.964   6.359  1.00  0.00     0.286 C 
HETATM    3  O   UNL     1      43.570 -13.872   7.448  1.00  0.00    -0.264 OA
HETATM    4  H   UNL     1      41.678 -13.025   4.998  1.00  0.00     0.190 HD
ENDROOT
BRANCH   2   5
HETATM    5  C   UNL     1      43.186 -15.098   5.482  1.00  0.00     0.103 A 
HETATM    6  N   UNL     1      42.708 -15.088   4.189  1.00  0.00    -0.351 N 
HETATM    7  H   UNL     1      42.219 -14.303   3.780  1.00  0.00     0.166 HD
HETATM    8  C   UNL     1      42.957 -16.284   3.558  1.00  0.00     0.045 A 
HETATM    9  C   UNL     1      43.623 -17.099   4.472  1.00  0.00     0.026 A 
HETATM   10  C   UNL     1      42.632 -16.705   2.265  1.00  0.00     0.030 A 
HETATM   11  C   UNL     1      43.990 -18.408   4.087  1.00  0.00     0.087 A 
HETATM   12  C   UNL     1      43.774 -16.338   5.669  1.00  0.00     0.052 A 
HETATM   13  C   UNL     1      43.640 -18.853   2.802  1.00  0.00     0.038 A 
HETATM   14  C   UNL     1      42.982 -18.009   1.906  1.00  0.00     0.005 A 
BRANCH  11  15
HETATM   15  O   UNL     1      44.612 -19.200   5.017  1.00  0.00    -0.289 OA
BRANCH  15  16
HETATM   16  C   UNL     1      43.848 -20.322   5.426  1.00  0.00     0.505 C 
HETATM   17  F   UNL     1      44.720 -21.310   5.749  1.00  0.00    -0.184 F 
HETATM   18  F   UNL     1      43.183 -20.008   6.567  1.00  0.00    -0.184 F 
ENDBRANCH  15  16
ENDBRANCH  11  15
ENDBRANCH   2   5
BRANCH   1  19
HETATM   19  N   UNL     1      42.027 -11.792   6.617  1.00  0.00    -0.267 N 
HETATM   20  C   UNL     1      42.707 -10.676   6.174  1.00  0.00     0.240 C 
HETATM   21  O   UNL     1      43.363 -10.678   5.132  1.00  0.00    -0.272 OA
HETATM   22  H   UNL     1      41.432 -11.811   7.444  1.00  0.00     0.190 HD
BRANCH  20  23
HETATM   23  C   UNL     1      42.580  -9.470   7.077  1.00  0.00     0.146 C 
BRANCH  23  24
HETATM   24  C   UNL     1      43.399  -9.487   8.352  1.00  0.00    -0.016 A 
HETATM   25  C   UNL     1      42.724  -9.414   9.590  1.00  0.00     0.074 A 
HETATM   26  C   UNL     1      43.451  -9.408  10.785  1.00  0.00     0.037 A 
HETATM   27  C   UNL     1      44.844  -9.481  10.761  1.00  0.00     0.003 A 
HETATM   28  C   UNL     1      45.518  -9.558   9.547  1.00  0.00     0.001 A 
HETATM   29  C   UNL     1      44.801  -9.561   8.349  1.00  0.00     0.010 A 
BRANCH  25  30
HETATM   30  O   UNL     1      41.356  -9.334   9.517  1.00  0.00    -0.355 OA
HETATM   31  C   UNL     1      40.632  -9.397  10.739  1.00  0.00     0.210 C 
ENDBRANCH  25  30
ENDBRANCH  23  24
ENDBRANCH  20  23
ENDBRANCH   1  19
TORSDOF 7
ENDMDL
MODEL 2
REMARK VINA RESULT:      -8.2      2.689      3.398
REMARK  7 active torsions:
REMARK  status: ('A' for Active; 'I' for Inactive)
REMARK    1  A    between atoms: O_2  and  C_3 
REMARK    2  A    between atoms: C_4  and  C_5 
REMARK    3  A    between atoms: C_5  and  C_6 
REMARK       I    between atoms: C_6  and  N_7 
REMARK    4  A    between atoms: N_7  and  N_8 
REMARK       I    between atoms: N_8  and  C_9 
REMARK    5  A    between atoms: C_9  and  C_10 
REMARK    6  A    between atoms: C_15  and  O_16 
REMARK    7  A    between atoms: O_16  and  C_17 
ROOT
HETATM    1  N   UNL     1      43.503 -12.745   6.861  1.00  0.00    -0.262 N 
HETATM    2  C   UNL     1      43.331 -14.095   7.076  1.00  0.00     0.286 C 
HETATM    3  O   UNL     1      43.361 -14.582   8.206  1.00  0.00    -0.264 OA
HETATM    4  H   UNL     1      43.485 -12.311   5.942  1.00  0.00     0.190 HD
ENDROOT
BRANCH   2   5
HETATM    5  C   UNL     1      43.122 -14.894   5.891  1.00  0.00     0.103 A 
HETATM    6  N   UNL     1      43.714 -16.131   5.747  1.00  0.00    -0.351 N 
HETATM    7  H   UNL     1      44.311 -16.550   6.448  1.00  0.00     0.166 HD
HETATM    8  C   UNL     1      43.410 -16.689   4.528  1.00  0.00     0.045 A 
HETATM    9  C   UNL     1      42.589 -15.785   3.857  1.00  0.00     0.026 A 
HETATM   10  C   UNL     1      43.809 -17.908   3.970  1.00  0.00     0.030 A 
HETATM   11  C   UNL     1      42.134 -16.101   2.557  1.00  0.00     0.087 A 
HETATM   12  C   UNL     1      42.403 -14.671   4.728  1.00  0.00     0.052 A 
HETATM   13  C   UNL     1      42.554 -17.307   1.974  1.00  0.00     0.038 A 
HETATM   14  C   UNL     1      43.369 -18.197   2.676  1.00  0.00     0.005 A 
BRANCH  11  15
HETATM   15  O   UNL     1      41.357 -15.179   1.905  1.00  0.00    -0.289 OA
BRANCH  15  16
HETATM   16  C   UNL     1      39.965 -15.437   1.981  1.00  0.00     0.505 C 
HETATM   17  F   UNL     1      39.644 -16.235   0.932  1.00  0.00    -0.184 F 
HETATM   18  F   UNL     1      39.713 -16.157   3.103  1.00  0.00    -0.184 F 
ENDBRANCH  15  16
ENDBRANCH  11  15
ENDBRANCH   2   5
BRANCH   1  19
HETATM   19  N   UNL     1      43.837 -11.918   7.937  1.00  0.00    -0.267 N 
HETATM   20  C   UNL     1      44.947 -11.106   7.819  1.00  0.00     0.240 C 
HETATM   21  O   UNL     1      45.603 -11.038   6.779  1.00  0.00    -0.272 OA
HETATM   22  H   UNL     1      43.242 -11.958   8.763  1.00  0.00     0.190 HD
BRANCH  20  23
HETATM   23  C   UNL     1      45.284 -10.324   9.068  1.00  0.00     0.146 C 
BRANCH  23  24
HETATM   24  C   UNL     1      44.364  -9.171   9.416  1.00  0.00    -0.016 A 
HETATM   25  C   UNL     1      43.400  -9.356  10.430  1.00  0.00     0.074 A 
HETATM   26  C   UNL     1      42.523  -8.317  10.761  1.00  0.00     0.037 A 
HETATM   27  C   UNL     1      42.600  -7.093  10.097  1.00  0.00     0.003 A 
HETATM   28  C   UNL     1      43.550  -6.899   9.099  1.00  0.00     0.001 A 
HETATM   29  C   UNL     1      44.427  -7.931   8.760  1.00  0.00     0.010 A 
BRANCH  25  30
HETATM   30  O   UNL     1      43.389 -10.595  11.020  1.00  0.00    -0.355 OA
HETATM   31  C   UNL     1      42.985 -10.666  12.381  1.00  0.00     0.210 C 
ENDBRANCH  25  30
ENDBRANCH  23  24
ENDBRANCH  20  23
ENDBRANCH   1  19
TORSDOF 7
ENDMDL
MODEL 3
REMARK VINA RESULT:      -8.2      1.738      2.728
REMARK  7 active torsions:
REMARK  status: ('A' for Active; 'I' for Inactive)
REMARK    1  A    between atoms: O_2  and  C_3 
REMARK    2  A    between atoms: C_4  and  C_5 
REMARK    3  A    between atoms: C_5  and  C_6 
REMARK       I    between atoms: C_6  and  N_7 
REMARK    4  A    between atoms: N_7  and  N_8 
REMARK       I    between atoms: N_8  and  C_9 
REMARK    5  A    between atoms: C_9  and  C_10 
REMARK    6  A    between atoms: C_15  and  O_16 
REMARK    7  A    between atoms: O_16  and  C_17 
ROOT
HETATM    1  N   UNL     1      42.881 -11.865   6.976  1.00  0.00    -0.262 N 
HETATM    2  C   UNL     1      42.968 -11.778   5.603  1.00  0.00     0.286 C 
HETATM    3  O   UNL     1      42.992 -10.693   5.022  1.00  0.00    -0.264 OA
HETATM    4  H   UNL     1      42.857 -12.744   7.487  1.00  0.00     0.190 HD
ENDROOT
BRANCH   2   5
HETATM    5  C   UNL     1      43.020 -13.038   4.899  1.00  0.00     0.103 A 
HETATM    6  N   UNL     1      43.162 -13.089   3.529  1.00  0.00    -0.351 N 
HETATM    7  H   UNL     1      43.244 -12.266   2.945  1.00  0.00     0.166 HD
HETATM    8  C   UNL     1      43.145 -14.386   3.074  1.00  0.00     0.045 A 
HETATM    9  C   UNL     1      42.989 -15.208   4.189  1.00  0.00     0.026 A 
HETATM   10  C   UNL     1      43.240 -14.886   1.772  1.00  0.00     0.030 A 
HETATM   11  C   UNL     1      42.922 -16.608   4.008  1.00  0.00     0.087 A 
HETATM   12  C   UNL     1      42.928 -14.352   5.328  1.00  0.00     0.052 A 
HETATM   13  C   UNL     1      42.984 -17.119   2.702  1.00  0.00     0.038 A 
HETATM   14  C   UNL     1      43.150 -16.270   1.606  1.00  0.00     0.005 A 
BRANCH  11  15
HETATM   15  O   UNL     1      42.733 -17.391   5.116  1.00  0.00    -0.289 OA
BRANCH  15  16
HETATM   16  C   UNL     1      43.922 -17.971   5.626  1.00  0.00     0.505 C 
HETATM   17  F   UNL     1      44.083 -19.170   5.012  1.00  0.00    -0.184 F 
HETATM   18  F   UNL     1      44.978 -17.205   5.254  1.00  0.00    -0.184 F 
ENDBRANCH  15  16
ENDBRANCH  11  15
ENDBRANCH   2   5
BRANCH   1  19
HETATM   19  N   UNL     1      42.697 -10.700   7.726  1.00  0.00    -0.267 N 
HETATM   20  C   UNL     1      43.665 -10.354   8.646  1.00  0.00     0.240 C 
HETATM   21  O   UNL     1      44.708 -10.996   8.775  1.00  0.00    -0.272 OA
HETATM   22  H   UNL     1      41.849 -10.161   7.556  1.00  0.00     0.190 HD
BRANCH  20  23
HETATM   23  C   UNL     1      43.330  -9.135   9.476  1.00  0.00     0.146 C 
BRANCH  23  24
HETATM   24  C   UNL     1      42.543  -9.376  10.748  1.00  0.00    -0.016 A 
HETATM   25  C   UNL     1      41.133  -9.412  10.675  1.00  0.00     0.074 A 
HETATM   26  C   UNL     1      40.377  -9.613  11.834  1.00  0.00     0.037 A 
HETATM   27  C   UNL     1      41.009  -9.783  13.066  1.00  0.00     0.003 A 
HETATM   28  C   UNL     1      42.397  -9.753  13.148  1.00  0.00     0.001 A 
HETATM   29  C   UNL     1      43.160  -9.551  11.997  1.00  0.00     0.010 A 
BRANCH  25  30
HETATM   30  O   UNL     1      40.598  -9.223   9.425  1.00  0.00    -0.355 OA
HETATM   31  C   UNL     1      39.263  -9.663   9.213  1.00  0.00     0.210 C 
ENDBRANCH  25  30
ENDBRANCH  23  24
ENDBRANCH  20  23
ENDBRANCH   1  19
TORSDOF 7
ENDMDL
MODEL 4
REMARK VINA RESULT:      -8.0      2.568      3.950
REMARK  7 active torsions:
REMARK  status: ('A' for Active; 'I' for Inactive)
REMARK    1  A    between atoms: O_2  and  C_3 
REMARK    2  A    between atoms: C_4  and  C_5 
REMARK    3  A    between atoms: C_5  and  C_6 
REMARK       I    between atoms: C_6  and  N_7 
REMARK    4  A    between atoms: N_7  and  N_8 
REMARK       I    between atoms: N_8  and  C_9 
REMARK    5  A    between atoms: C_9  and  C_10 
REMARK    6  A    between atoms: C_15  and  O_16 
REMARK    7  A    between atoms: O_16  and  C_17 
ROOT
HETATM    1  N   UNL     1      43.263 -11.565   7.855  1.00  0.00    -0.262 N 
HETATM    2  C   UNL     1      42.850 -11.717   6.549  1.00  0.00     0.286 C 
HETATM    3  O   UNL     1      42.383 -10.780   5.903  1.00  0.00    -0.264 OA
HETATM    4  H   UNL     1      43.651 -12.318   8.417  1.00  0.00     0.190 HD
ENDROOT
BRANCH   2   5
HETATM    5  C   UNL     1      42.993 -13.045   5.999  1.00  0.00     0.103 A 
HETATM    6  N   UNL     1      43.634 -14.045   6.699  1.00  0.00    -0.351 N 
HETATM    7  H   UNL     1      44.029 -13.917   7.622  1.00  0.00     0.166 HD
HETATM    8  C   UNL     1      43.690 -15.208   5.967  1.00  0.00     0.045 A 
HETATM    9  C   UNL     1      43.059 -14.955   4.750  1.00  0.00     0.026 A 
HETATM   10  C   UNL     1      44.258 -16.445   6.283  1.00  0.00     0.030 A 
HETATM   11  C   UNL     1      42.984 -15.986   3.787  1.00  0.00     0.087 A 
HETATM   12  C   UNL     1      42.613 -13.601   4.790  1.00  0.00     0.052 A 
HETATM   13  C   UNL     1      43.580 -17.224   4.080  1.00  0.00     0.038 A 
HETATM   14  C   UNL     1      44.196 -17.448   5.313  1.00  0.00     0.005 A 
BRANCH  11  15
HETATM   15  O   UNL     1      42.390 -15.701   2.585  1.00  0.00    -0.289 OA
BRANCH  15  16
HETATM   16  C   UNL     1      41.200 -16.431   2.339  1.00  0.00     0.505 C 
HETATM   17  F   UNL     1      40.387 -16.253   3.411  1.00  0.00    -0.184 F 
HETATM   18  F   UNL     1      40.559 -15.882   1.277  1.00  0.00    -0.184 F 
ENDBRANCH  15  16
ENDBRANCH  11  15
ENDBRANCH   2   5
BRANCH   1  19
HETATM   19  N   UNL     1      43.042 -10.348   8.506  1.00  0.00    -0.267 N 
HETATM   20  C   UNL     1      43.699 -10.114   9.697  1.00  0.00     0.240 C 
HETATM   21  O   UNL     1      44.517 -10.907  10.162  1.00  0.00    -0.272 OA
HETATM   22  H   UNL     1      42.400  -9.691   8.066  1.00  0.00     0.190 HD
BRANCH  20  23
HETATM   23  C   UNL     1      43.320  -8.816  10.373  1.00  0.00     0.146 C 
BRANCH  23  24
HETATM   24  C   UNL     1      42.468  -8.924  11.622  1.00  0.00    -0.016 A 
HETATM   25  C   UNL     1      41.075  -9.105  11.477  1.00  0.00     0.074 A 
HETATM   26  C   UNL     1      40.258  -9.189  12.610  1.00  0.00     0.037 A 
HETATM   27  C   UNL     1      40.814  -9.101  13.886  1.00  0.00     0.003 A 
HETATM   28  C   UNL     1      42.185  -8.926  14.039  1.00  0.00     0.001 A 
HETATM   29  C   UNL     1      43.008  -8.838  12.915  1.00  0.00     0.010 A 
BRANCH  25  30
HETATM   30  O   UNL     1      40.616  -9.170  10.185  1.00  0.00    -0.355 OA
HETATM   31  C   UNL     1      39.320  -9.719   9.980  1.00  0.00     0.210 C 
ENDBRANCH  25  30
ENDBRANCH  23  24
ENDBRANCH  20  23
ENDBRANCH   1  19
TORSDOF 7
ENDMDL
MODEL 5
REMARK VINA RESULT:      -7.8      1.318      2.058
REMARK  7 active torsions:
REMARK  status: ('A' for Active; 'I' for Inactive)
REMARK    1  A    between atoms: O_2  and  C_3 
REMARK    2  A    between atoms: C_4  and  C_5 
REMARK    3  A    between atoms: C_5  and  C_6 
REMARK       I    between atoms: C_6  and  N_7 
REMARK    4  A    between atoms: N_7  and  N_8 
REMARK       I    between atoms: N_8  and  C_9 
REMARK    5  A    between atoms: C_9  and  C_10 
REMARK    6  A    between atoms: C_15  and  O_16 
REMARK    7  A    between atoms: O_16  and  C_17 
ROOT
HETATM    1  N   UNL     1      43.841 -13.085   6.994  1.00  0.00    -0.262 N 
HETATM    2  C   UNL     1      42.897 -13.358   6.028  1.00  0.00     0.286 C 
HETATM    3  O   UNL     1      41.937 -12.614   5.830  1.00  0.00    -0.264 OA
HETATM    4  H   UNL     1      44.644 -13.679   7.184  1.00  0.00     0.190 HD
ENDROOT
BRANCH   2   5
HETATM    5  C   UNL     1      43.107 -14.573   5.275  1.00  0.00     0.103 A 
HETATM    6  N   UNL     1      42.793 -14.649   3.935  1.00  0.00    -0.351 N 
HETATM    7  H   UNL     1      42.412 -13.875   3.405  1.00  0.00     0.166 HD
HETATM    8  C   UNL     1      43.036 -15.907   3.437  1.00  0.00     0.045 A 
HETATM    9  C   UNL     1      43.527 -16.676   4.491  1.00  0.00     0.026 A 
HETATM   10  C   UNL     1      42.844 -16.420   2.151  1.00  0.00     0.030 A 
HETATM   11  C   UNL     1      43.849 -18.033   4.262  1.00  0.00     0.087 A 
HETATM   12  C   UNL     1      43.582 -15.823   5.633  1.00  0.00     0.052 A 
HETATM   13  C   UNL     1      43.630 -18.567   2.982  1.00  0.00     0.038 A 
HETATM   14  C   UNL     1      43.146 -17.768   1.944  1.00  0.00     0.005 A 
BRANCH  11  15
HETATM   15  O   UNL     1      44.297 -18.775   5.323  1.00  0.00    -0.289 OA
BRANCH  15  16
HETATM   16  C   UNL     1      43.853 -20.122   5.315  1.00  0.00     0.505 C 
HETATM   17  F   UNL     1      44.952 -20.911   5.417  1.00  0.00    -0.184 F 
HETATM   18  F   UNL     1      43.114 -20.347   6.431  1.00  0.00    -0.184 F 
ENDBRANCH  15  16
ENDBRANCH  11  15
ENDBRANCH   2   5
BRANCH   1  19
HETATM   19  N   UNL     1      43.647 -12.000   7.853  1.00  0.00    -0.267 N 
HETATM   20  C   UNL     1      44.413 -10.869   7.662  1.00  0.00     0.240 C 
HETATM   21  O   UNL     1      45.203 -10.762   6.723  1.00  0.00    -0.272 OA
HETATM   22  H   UNL     1      42.947 -12.101   8.586  1.00  0.00     0.190 HD
BRANCH  20  23
HETATM   23  C   UNL     1      44.202  -9.789   8.700  1.00  0.00     0.146 C 
BRANCH  23  24
HETATM   24  C   UNL     1      42.766  -9.415   9.007  1.00  0.00    -0.016 A 
HETATM   25  C   UNL     1      42.341  -9.411  10.353  1.00  0.00     0.074 A 
HETATM   26  C   UNL     1      41.017  -9.089  10.669  1.00  0.00     0.037 A 
HETATM   27  C   UNL     1      40.112  -8.764   9.658  1.00  0.00     0.003 A 
HETATM   28  C   UNL     1      40.522  -8.762   8.329  1.00  0.00     0.001 A 
HETATM   29  C   UNL     1      41.840  -9.085   8.004  1.00  0.00     0.010 A 
BRANCH  25  30
HETATM   30  O   UNL     1      43.295  -9.753  11.278  1.00  0.00    -0.355 OA
HETATM   31  C   UNL     1      42.855 -10.420  12.454  1.00  0.00     0.210 C 
ENDBRANCH  25  30
ENDBRANCH  23  24
ENDBRANCH  20  23
ENDBRANCH   1  19
TORSDOF 7
ENDMDL
MODEL 6
REMARK VINA RESULT:      -7.8      2.651      3.555
REMARK  7 active torsions:
REMARK  status: ('A' for Active; 'I' for Inactive)
REMARK    1  A    between atoms: O_2  and  C_3 
REMARK    2  A    between atoms: C_4  and  C_5 
REMARK    3  A    between atoms: C_5  and  C_6 
REMARK       I    between atoms: C_6  and  N_7 
REMARK    4  A    between atoms: N_7  and  N_8 
REMARK       I    between atoms: N_8  and  C_9 
REMARK    5  A    between atoms: C_9  and  C_10 
REMARK    6  A    between atoms: C_15  and  O_16 
REMARK    7  A    between atoms: O_16  and  C_17 
ROOT
HETATM    1  N   UNL     1      42.270 -12.104   6.531  1.00  0.00    -0.262 N 
HETATM    2  C   UNL     1      43.355 -12.919   6.288  1.00  0.00     0.286 C 
HETATM    3  O   UNL     1      44.448 -12.721   6.819  1.00  0.00    -0.264 OA
HETATM    4  H   UNL     1      41.356 -12.239   6.108  1.00  0.00     0.190 HD
ENDROOT
BRANCH   2   5
HETATM    5  C   UNL     1      43.125 -14.008   5.367  1.00  0.00     0.103 A 
HETATM    6  N   UNL     1      43.678 -15.253   5.577  1.00  0.00    -0.351 N 
HETATM    7  H   UNL     1      44.260 -15.479   6.373  1.00  0.00     0.166 HD
HETATM    8  C   UNL     1      43.361 -16.117   4.555  1.00  0.00     0.045 A 
HETATM    9  C   UNL     1      42.571 -15.409   3.651  1.00  0.00     0.026 A 
HETATM   10  C   UNL     1      43.723 -17.453   4.360  1.00  0.00     0.030 A 
HETATM   11  C   UNL     1      42.110 -16.058   2.484  1.00  0.00     0.087 A 
HETATM   12  C   UNL     1      42.418 -14.093   4.180  1.00  0.00     0.052 A 
HETATM   13  C   UNL     1      42.494 -17.390   2.261  1.00  0.00     0.038 A 
HETATM   14  C   UNL     1      43.279 -18.075   3.191  1.00  0.00     0.005 A 
BRANCH  11  15
HETATM   15  O   UNL     1      41.365 -15.329   1.594  1.00  0.00    -0.289 OA
BRANCH  15  16
HETATM   16  C   UNL     1      39.965 -15.491   1.742  1.00  0.00     0.505 C 
HETATM   17  F   UNL     1      39.558 -16.379   0.801  1.00  0.00    -0.184 F 
HETATM   18  F   UNL     1      39.714 -16.065   2.946  1.00  0.00    -0.184 F 
ENDBRANCH  15  16
ENDBRANCH  11  15
ENDBRANCH   2   5
BRANCH   1  19
HETATM   19  N   UNL     1      42.438 -10.955   7.308  1.00  0.00    -0.267 N 
HETATM   20  C   UNL     1      41.514  -9.938   7.180  1.00  0.00     0.240 C 
HETATM   21  O   UNL     1      40.519 -10.041   6.462  1.00  0.00    -0.272 OA
HETATM   22  H   UNL     1      43.242 -10.924   7.933  1.00  0.00     0.190 HD
BRANCH  20  23
HETATM   23  C   UNL     1      41.834  -8.699   7.985  1.00  0.00     0.146 C 
BRANCH  23  24
HETATM   24  C   UNL     1      42.307  -8.918   9.409  1.00  0.00    -0.016 A 
HETATM   25  C   UNL     1      43.671  -8.710   9.709  1.00  0.00     0.074 A 
HETATM   26  C   UNL     1      44.142  -8.923  11.009  1.00  0.00     0.037 A 
HETATM   27  C   UNL     1      43.268  -9.334  12.016  1.00  0.00     0.003 A 
HETATM   28  C   UNL     1      41.922  -9.538  11.730  1.00  0.00     0.001 A 
HETATM   29  C   UNL     1      41.443  -9.331  10.436  1.00  0.00     0.010 A 
BRANCH  25  30
HETATM   30  O   UNL     1      44.458  -8.318   8.655  1.00  0.00    -0.355 OA
HETATM   31  C   UNL     1      45.725  -8.948   8.517  1.00  0.00     0.210 C 
ENDBRANCH  25  30
ENDBRANCH  23  24
ENDBRANCH  20  23
ENDBRANCH   1  19
TORSDOF 7
ENDMDL
MODEL 7
REMARK VINA RESULT:      -7.8      3.184      4.074
REMARK  7 active torsions:
REMARK  status: ('A' for Active; 'I' for Inactive)
REMARK    1  A    between atoms: O_2  and  C_3 
REMARK    2  A    between atoms: C_4  and  C_5 
REMARK    3  A    between atoms: C_5  and  C_6 
REMARK       I    between atoms: C_6  and  N_7 
REMARK    4  A    between atoms: N_7  and  N_8 
REMARK       I    between atoms: N_8  and  C_9 
REMARK    5  A    between atoms: C_9  and  C_10 
REMARK    6  A    between atoms: C_15  and  O_16 
REMARK    7  A    between atoms: O_16  and  C_17 
ROOT
HETATM    1  N   UNL     1      42.814 -11.825   6.619  1.00  0.00    -0.262 N 
HETATM    2  C   UNL     1      41.726 -12.095   5.819  1.00  0.00     0.286 C 
HETATM    3  O   UNL     1      40.765 -11.329   5.748  1.00  0.00    -0.264 OA
HETATM    4  H   UNL     1      43.622 -12.437   6.702  1.00  0.00     0.190 HD
ENDROOT
BRANCH   2   5
HETATM    5  C   UNL     1      41.786 -13.336   5.081  1.00  0.00     0.103 A 
HETATM    6  N   UNL     1      42.834 -14.217   5.245  1.00  0.00    -0.351 N 
HETATM    7  H   UNL     1      43.604 -14.057   5.881  1.00  0.00     0.166 HD
HETATM    8  C   UNL     1      42.704 -15.305   4.414  1.00  0.00     0.045 A 
HETATM    9  C   UNL     1      41.528 -15.126   3.687  1.00  0.00     0.026 A 
HETATM   10  C   UNL     1      43.538 -16.413   4.244  1.00  0.00     0.030 A 
HETATM   11  C   UNL     1      41.152 -16.100   2.735  1.00  0.00     0.087 A 
HETATM   12  C   UNL     1      40.954 -13.896   4.126  1.00  0.00     0.052 A 
HETATM   13  C   UNL     1      41.999 -17.202   2.532  1.00  0.00     0.038 A 
HETATM   14  C   UNL     1      43.166 -17.357   3.283  1.00  0.00     0.005 A 
BRANCH  11  15
HETATM   15  O   UNL     1      40.011 -15.883   2.009  1.00  0.00    -0.289 OA
BRANCH  15  16
HETATM   16  C   UNL     1      40.225 -15.213   0.778  1.00  0.00     0.505 C 
HETATM   17  F   UNL     1      39.388 -15.765  -0.136  1.00  0.00    -0.184 F 
HETATM   18  F   UNL     1      39.846 -13.917   0.912  1.00  0.00    -0.184 F 
ENDBRANCH  15  16
ENDBRANCH  11  15
ENDBRANCH   2   5
BRANCH   1  19
HETATM   19  N   UNL     1      42.783 -10.712   7.464  1.00  0.00    -0.267 N 
HETATM   20  C   UNL     1      43.815 -10.544   8.365  1.00  0.00     0.240 C 
HETATM   21  O   UNL     1      44.787 -11.300   8.398  1.00  0.00    -0.272 OA
HETATM   22  H   UNL     1      41.993 -10.076   7.373  1.00  0.00     0.190 HD
BRANCH  20  23
HETATM   23  C   UNL     1      43.642  -9.369   9.300  1.00  0.00     0.146 C 
BRANCH  23  24
HETATM   24  C   UNL     1      42.788  -9.600  10.530  1.00  0.00    -0.016 A 
HETATM   25  C   UNL     1      41.395  -9.389  10.436  1.00  0.00     0.074 A 
HETATM   26  C   UNL     1      40.581  -9.575  11.559  1.00  0.00     0.037 A 
HETATM   27  C   UNL     1      41.139  -9.974  12.774  1.00  0.00     0.003 A 
HETATM   28  C   UNL     1      42.509 -10.187  12.875  1.00  0.00     0.001 A 
HETATM   29  C   UNL     1      43.330 -10.001  11.762  1.00  0.00     0.010 A 
BRANCH  25  30
HETATM   30  O   UNL     1      40.937  -8.988   9.206  1.00  0.00    -0.355 OA
HETATM   31  C   UNL     1      39.654  -9.451   8.805  1.00  0.00     0.210 C 
ENDBRANCH  25  30
ENDBRANCH  23  24
ENDBRANCH  20  23
ENDBRANCH   1  19
TORSDOF 7
ENDMDL
MODEL 8
REMARK VINA RESULT:      -7.8      5.535      7.767
REMARK  7 active torsions:
REMARK  status: ('A' for Active; 'I' for Inactive)
REMARK    1  A    between atoms: O_2  and  C_3 
REMARK    2  A    between atoms: C_4  and  C_5 
REMARK    3  A    between atoms: C_5  and  C_6 
REMARK       I    between atoms: C_6  and  N_7 
REMARK    4  A    between atoms: N_7  and  N_8 
REMARK       I    between atoms: N_8  and  C_9 
REMARK    5  A    between atoms: C_9  and  C_10 
REMARK    6  A    between atoms: C_15  and  O_16 
REMARK    7  A    between atoms: O_16  and  C_17 
ROOT
HETATM    1  N   UNL     1      41.153 -14.762   0.183  1.00  0.00    -0.262 N 
HETATM    2  C   UNL     1      40.807 -14.749   1.517  1.00  0.00     0.286 C 
HETATM    3  O   UNL     1      39.951 -13.983   1.959  1.00  0.00    -0.264 OA
HETATM    4  H   UNL     1      41.856 -15.380  -0.213  1.00  0.00     0.190 HD
ENDROOT
BRANCH   2   5
HETATM    5  C   UNL     1      41.519 -15.685   2.356  1.00  0.00     0.103 A 
HETATM    6  N   UNL     1      41.479 -15.589   3.731  1.00  0.00    -0.351 N 
HETATM    7  H   UNL     1      40.956 -14.879   4.227  1.00  0.00     0.166 HD
HETATM    8  C   UNL     1      42.261 -16.555   4.320  1.00  0.00     0.045 A 
HETATM    9  C   UNL     1      42.827 -17.307   3.292  1.00  0.00     0.026 A 
HETATM   10  C   UNL     1      42.518 -16.806   5.671  1.00  0.00     0.030 A 
HETATM   11  C   UNL     1      43.698 -18.370   3.615  1.00  0.00     0.087 A 
HETATM   12  C   UNL     1      42.341 -16.761   2.066  1.00  0.00     0.052 A 
HETATM   13  C   UNL     1      43.989 -18.611   4.968  1.00  0.00     0.038 A 
HETATM   14  C   UNL     1      43.399 -17.846   5.975  1.00  0.00     0.005 A 
BRANCH  11  15
HETATM   15  O   UNL     1      44.269 -19.071   2.585  1.00  0.00    -0.289 OA
BRANCH  15  16
HETATM   16  C   UNL     1      43.648 -20.317   2.319  1.00  0.00     0.505 C 
HETATM   17  F   UNL     1      43.573 -20.992   3.494  1.00  0.00    -0.184 F 
HETATM   18  F   UNL     1      42.370 -20.095   1.920  1.00  0.00    -0.184 F 
ENDBRANCH  15  16
ENDBRANCH  11  15
ENDBRANCH   2   5
BRANCH   1  19
HETATM   19  N   UNL     1      40.607 -13.803  -0.675  1.00  0.00    -0.267 N 
HETATM   20  C   UNL     1      39.613 -14.197  -1.548  1.00  0.00     0.240 C 
HETATM   21  O   UNL     1      39.150 -15.337  -1.544  1.00  0.00    -0.272 OA
HETATM   22  H   UNL     1      40.975 -12.855  -0.614  1.00  0.00     0.190 HD
BRANCH  20  23
HETATM   23  C   UNL     1      39.157 -13.115  -2.501  1.00  0.00     0.146 C 
BRANCH  23  24
HETATM   24  C   UNL     1      39.617 -11.704  -2.197  1.00  0.00    -0.016 A 
HETATM   25  C   UNL     1      39.008 -11.007  -1.131  1.00  0.00     0.074 A 
HETATM   26  C   UNL     1      39.397  -9.696  -0.837  1.00  0.00     0.037 A 
HETATM   27  C   UNL     1      40.391  -9.072  -1.591  1.00  0.00     0.003 A 
HETATM   28  C   UNL     1      41.000  -9.751  -2.641  1.00  0.00     0.001 A 
HETATM   29  C   UNL     1      40.616 -11.058  -2.943  1.00  0.00     0.010 A 
BRANCH  25  30
HETATM   30  O   UNL     1      38.033 -11.695  -0.453  1.00  0.00    -0.355 OA
HETATM   31  C   UNL     1      37.755 -11.289   0.881  1.00  0.00     0.210 C 
ENDBRANCH  25  30
ENDBRANCH  23  24
ENDBRANCH  20  23
ENDBRANCH   1  19
TORSDOF 7
ENDMDL
MODEL 9
REMARK VINA RESULT:      -7.7      5.400      7.444
REMARK  7 active torsions:
REMARK  status: ('A' for Active; 'I' for Inactive)
REMARK    1  A    between atoms: O_2  and  C_3 
REMARK    2  A    between atoms: C_4  and  C_5 
REMARK    3  A    between atoms: C_5  and  C_6 
REMARK       I    between atoms: C_6  and  N_7 
REMARK    4  A    between atoms: N_7  and  N_8 
REMARK       I    between atoms: N_8  and  C_9 
REMARK    5  A    between atoms: C_9  and  C_10 
REMARK    6  A    between atoms: C_15  and  O_16 
REMARK    7  A    between atoms: O_16  and  C_17 
ROOT
HETATM    1  N   UNL     1      41.733 -13.898   0.714  1.00  0.00    -0.262 N 
HETATM    2  C   UNL     1      41.022 -15.001   1.134  1.00  0.00     0.286 C 
HETATM    3  O   UNL     1      39.892 -15.245   0.712  1.00  0.00    -0.264 OA
HETATM    4  H   UNL     1      42.667 -13.668   1.044  1.00  0.00     0.190 HD
ENDROOT
BRANCH   2   5
HETATM    5  C   UNL     1      41.687 -15.841   2.104  1.00  0.00     0.103 A 
HETATM    6  N   UNL     1      41.608 -15.577   3.455  1.00  0.00    -0.351 N 
HETATM    7  H   UNL     1      41.086 -14.801   3.843  1.00  0.00     0.166 HD
HETATM    8  C   UNL     1      42.349 -16.478   4.182  1.00  0.00     0.045 A 
HETATM    9  C   UNL     1      42.927 -17.361   3.272  1.00  0.00     0.026 A 
HETATM   10  C   UNL     1      42.559 -16.566   5.561  1.00  0.00     0.030 A 
HETATM   11  C   UNL     1      43.764 -18.393   3.752  1.00  0.00     0.087 A 
HETATM   12  C   UNL     1      42.492 -16.960   1.975  1.00  0.00     0.052 A 
HETATM   13  C   UNL     1      44.009 -18.472   5.133  1.00  0.00     0.038 A 
HETATM   14  C   UNL     1      43.406 -17.578   6.019  1.00  0.00     0.005 A 
BRANCH  11  15
HETATM   15  O   UNL     1      44.349 -19.226   2.834  1.00  0.00    -0.289 OA
BRANCH  15  16
HETATM   16  C   UNL     1      43.598 -20.395   2.551  1.00  0.00     0.505 C 
HETATM   17  F   UNL     1      43.792 -20.693   1.241  1.00  0.00    -0.184 F 
HETATM   18  F   UNL     1      44.114 -21.430   3.261  1.00  0.00    -0.184 F 
ENDBRANCH  15  16
ENDBRANCH  11  15
ENDBRANCH   2   5
BRANCH   1  19
HETATM   19  N   UNL     1      41.117 -12.965  -0.124  1.00  0.00    -0.267 N 
HETATM   20  C   UNL     1      41.105 -11.642   0.267  1.00  0.00     0.240 C 
HETATM   21  O   UNL     1      41.676 -11.253   1.286  1.00  0.00    -0.272 OA
HETATM   22  H   UNL     1      40.702 -13.312  -0.987  1.00  0.00     0.190 HD
BRANCH  20  23
HETATM   23  C   UNL     1      40.331 -10.726  -0.654  1.00  0.00     0.146 C 
BRANCH  23  24
HETATM   24  C   UNL     1      38.939 -10.330  -0.205  1.00  0.00    -0.016 A 
HETATM   25  C   UNL     1      37.830 -10.791  -0.948  1.00  0.00     0.074 A 
HETATM   26  C   UNL     1      36.534 -10.426  -0.571  1.00  0.00     0.037 A 
HETATM   27  C   UNL     1      36.328  -9.612   0.543  1.00  0.00     0.003 A 
HETATM   28  C   UNL     1      37.413  -9.156   1.284  1.00  0.00     0.001 A 
HETATM   29  C   UNL     1      38.711  -9.512   0.913  1.00  0.00     0.010 A 
BRANCH  25  30
HETATM   30  O   UNL     1      38.129 -11.576  -2.033  1.00  0.00    -0.355 OA
HETATM   31  C   UNL     1      37.782 -12.953  -1.957  1.00  0.00     0.210 C 
ENDBRANCH  25  30
ENDBRANCH  23  24
ENDBRANCH  20  23
ENDBRANCH   1  19
TORSDOF 7
ENDMDL
MODEL 10
REMARK VINA RESULT:      -7.6      3.682      9.161
REMARK  7 active torsions:
REMARK  status: ('A' for Active; 'I' for Inactive)
REMARK    1  A    between atoms: O_2  and  C_3 
REMARK    2  A    between atoms: C_4  and  C_5 
REMARK    3  A    between atoms: C_5  and  C_6 
REMARK       I    between atoms: C_6  and  N_7 
REMARK    4  A    between atoms: N_7  and  N_8 
REMARK       I    between atoms: N_8  and  C_9 
REMARK    5  A    between atoms: C_9  and  C_10 
REMARK    6  A    between atoms: C_15  and  O_16 
REMARK    7  A    between atoms: O_16  and  C_17 
ROOT
HETATM    1  N   UNL     1      40.798 -12.701   6.472  1.00  0.00    -0.262 N 
HETATM    2  C   UNL     1      41.526 -11.668   5.924  1.00  0.00     0.286 C 
HETATM    3  O   UNL     1      41.803 -11.633   4.725  1.00  0.00    -0.264 OA
HETATM    4  H   UNL     1      40.554 -12.760   7.458  1.00  0.00     0.190 HD
ENDROOT
BRANCH   2   5
HETATM    5  C   UNL     1      41.946 -10.640   6.848  1.00  0.00     0.103 A 
HETATM    6  N   UNL     1      41.055 -10.054   7.722  1.00  0.00    -0.351 N 
HETATM    7  H   UNL     1      40.076 -10.305   7.774  1.00  0.00     0.166 HD
HETATM    8  C   UNL     1      41.665  -9.077   8.473  1.00  0.00     0.045 A 
HETATM    9  C   UNL     1      43.000  -9.028   8.076  1.00  0.00     0.026 A 
HETATM   10  C   UNL     1      41.135  -8.232   9.453  1.00  0.00     0.030 A 
HETATM   11  C   UNL     1      43.865  -8.090   8.682  1.00  0.00     0.087 A 
HETATM   12  C   UNL     1      43.167 -10.024   7.068  1.00  0.00     0.052 A 
HETATM   13  C   UNL     1      43.336  -7.215   9.645  1.00  0.00     0.038 A 
HETATM   14  C   UNL     1      41.996  -7.295  10.028  1.00  0.00     0.005 A 
BRANCH  11  15
HETATM   15  O   UNL     1      45.164  -8.039   8.249  1.00  0.00    -0.289 OA
BRANCH  15  16
HETATM   16  C   UNL     1      46.025  -8.964   8.889  1.00  0.00     0.505 C 
HETATM   17  F   UNL     1      45.379  -9.425   9.990  1.00  0.00    -0.184 F 
HETATM   18  F   UNL     1      46.205 -10.034   8.074  1.00  0.00    -0.184 F 
ENDBRANCH  15  16
ENDBRANCH  11  15
ENDBRANCH   2   5
BRANCH   1  19
HETATM   19  N   UNL     1      40.461 -13.799   5.676  1.00  0.00    -0.267 N 
HETATM   20  C   UNL     1      40.996 -15.030   5.999  1.00  0.00     0.240 C 
HETATM   21  O   UNL     1      41.697 -15.200   6.996  1.00  0.00    -0.272 OA
HETATM   22  H   UNL     1      39.835 -13.635   4.890  1.00  0.00     0.190 HD
BRANCH  20  23
HETATM   23  C   UNL     1      40.654 -16.133   5.023  1.00  0.00     0.146 C 
BRANCH  23  24
HETATM   24  C   UNL     1      41.506 -16.223   3.773  1.00  0.00    -0.016 A 
HETATM   25  C   UNL     1      41.102 -15.506   2.626  1.00  0.00     0.074 A 
HETATM   26  C   UNL     1      41.855 -15.583   1.450  1.00  0.00     0.037 A 
HETATM   27  C   UNL     1      43.012 -16.362   1.405  1.00  0.00     0.003 A 
HETATM   28  C   UNL     1      43.420 -17.069   2.531  1.00  0.00     0.001 A 
HETATM   29  C   UNL     1      42.673 -17.001   3.708  1.00  0.00     0.010 A 
BRANCH  25  30
HETATM   30  O   UNL     1      39.947 -14.776   2.758  1.00  0.00    -0.355 OA
HETATM   31  C   UNL     1      39.899 -13.508   2.117  1.00  0.00     0.210 C 
ENDBRANCH  25  30
ENDBRANCH  23  24
ENDBRANCH  20  23
ENDBRANCH   1  19
TORSDOF 7
ENDMDL
