MODEL 1
REMARK VINA RESULT:      -8.0      0.000      0.000
REMARK  4 active torsions:
REMARK  status: ('A' for Active; 'I' for Inactive)
REMARK    1  A    between atoms: N_1  and  C_2 
REMARK    2  A    between atoms: C_2  and  C_3 
REMARK    3  A    between atoms: C_2  and  C_16 
REMARK       I    between atoms: C_3  and  N_5 
REMARK    4  A    between atoms: N_5  and  C_6 
ROOT
HETATM    1  C   UNL     1      40.505 -14.203   1.426  1.00  0.00     0.260 C 
HETATM    2  O   UNL     1      39.568 -14.805   1.952  1.00  0.00    -0.270 OA
HETATM    3  N   UNL     1      41.853 -14.495   1.586  1.00  0.00    -0.325 N 
HETATM    4  H   UNL     1      42.503 -13.962   1.021  1.00  0.00     0.169 HD
ENDROOT
BRANCH   1   5
HETATM    5  C   UNL     1      40.253 -13.019   0.447  1.00  0.00     0.342 C 
BRANCH   5   6
HETATM    6  N   UNL     1      41.541 -12.450   0.001  1.00  0.00     0.096 N 
HETATM    7  H   UNL     1      42.128 -13.234  -0.293  1.00  0.00     0.314 HD
HETATM    8  H   UNL     1      42.024 -12.081   0.821  1.00  0.00     0.314 HD
ENDBRANCH   5   6
BRANCH   5   9
HETATM    9  C   UNL     1      39.408 -13.436  -0.744  1.00  0.00    -0.016 A 
HETATM   10  C   UNL     1      38.349 -12.621  -1.174  1.00  0.00     0.010 A 
HETATM   11  C   UNL     1      37.573 -12.985  -2.277  1.00  0.00     0.001 A 
HETATM   12  C   UNL     1      37.850 -14.162  -2.970  1.00  0.00     0.000 A 
HETATM   13  C   UNL     1      38.906 -14.974  -2.563  1.00  0.00     0.001 A 
HETATM   14  C   UNL     1      39.683 -14.612  -1.461  1.00  0.00     0.010 A 
ENDBRANCH   5   9
ENDBRANCH   1   5
BRANCH   3  15
HETATM   15  C   UNL     1      42.423 -15.482   2.418  1.00  0.00     0.035 A 
HETATM   16  C   UNL     1      42.879 -15.237   3.713  1.00  0.00     0.030 A 
HETATM   17  C   UNL     1      43.440 -16.267   4.475  1.00  0.00     0.016 A 
HETATM   18  C   UNL     1      43.544 -17.566   3.954  1.00  0.00    -0.008 A 
HETATM   19  C   UNL     1      44.086 -18.633   4.675  1.00  0.00     0.128 A 
HETATM   20  C   UNL     1      43.085 -17.830   2.651  1.00  0.00    -0.021 A 
HETATM   21  N   UNL     1      44.192 -19.898   4.208  1.00  0.00    -0.272 NA
HETATM   22  C   UNL     1      43.736 -20.119   2.958  1.00  0.00     0.117 A 
HETATM   23  C   UNL     1      43.186 -19.134   2.152  1.00  0.00     0.031 A 
HETATM   24  C   UNL     1      42.539 -16.777   1.892  1.00  0.00     0.042 A 
ENDBRANCH   3  15
TORSDOF 4
ENDMDL
MODEL 2
REMARK VINA RESULT:      -8.0      1.764      7.405
REMARK  4 active torsions:
REMARK  status: ('A' for Active; 'I' for Inactive)
REMARK    1  A    between atoms: N_1  and  C_2 
REMARK    2  A    between atoms: C_2  and  C_3 
REMARK    3  A    between atoms: C_2  and  C_16 
REMARK       I    between atoms: C_3  and  N_5 
REMARK    4  A    between atoms: N_5  and  C_6 
ROOT
HETATM    1  C   UNL     1      42.960 -15.551   2.390  1.00  0.00     0.260 C 
HETATM    2  O   UNL     1      43.855 -15.443   1.552  1.00  0.00    -0.270 OA
HETATM    3  N   UNL     1      41.673 -15.041   2.278  1.00  0.00    -0.325 N 
HETATM    4  H   UNL     1      41.023 -15.284   3.016  1.00  0.00     0.169 HD
ENDROOT
BRANCH   1   5
HETATM    5  C   UNL     1      43.185 -16.345   3.710  1.00  0.00     0.342 C 
BRANCH   5   6
HETATM    6  N   UNL     1      42.049 -16.128   4.630  1.00  0.00     0.096 N 
HETATM    7  H   UNL     1      41.428 -16.935   4.533  1.00  0.00     0.314 HD
HETATM    8  H   UNL     1      41.494 -15.352   4.268  1.00  0.00     0.314 HD
ENDBRANCH   5   6
BRANCH   5   9
HETATM    9  C   UNL     1      43.393 -17.827   3.454  1.00  0.00    -0.016 A 
HETATM   10  C   UNL     1      43.995 -18.633   4.434  1.00  0.00     0.010 A 
HETATM   11  C   UNL     1      44.178 -20.000   4.216  1.00  0.00     0.001 A 
HETATM   12  C   UNL     1      43.755 -20.582   3.023  1.00  0.00     0.000 A 
HETATM   13  C   UNL     1      43.144 -19.799   2.047  1.00  0.00     0.001 A 
HETATM   14  C   UNL     1      42.960 -18.432   2.262  1.00  0.00     0.010 A 
ENDBRANCH   5   9
ENDBRANCH   1   5
BRANCH   3  15
HETATM   15  C   UNL     1      41.152 -14.255   1.229  1.00  0.00     0.035 A 
HETATM   16  C   UNL     1      41.352 -12.879   1.117  1.00  0.00     0.030 A 
HETATM   17  C   UNL     1      40.796 -12.165   0.050  1.00  0.00     0.016 A 
HETATM   18  C   UNL     1      40.037 -12.823  -0.931  1.00  0.00    -0.008 A 
HETATM   19  C   UNL     1      39.468 -12.160  -2.022  1.00  0.00     0.128 A 
HETATM   20  C   UNL     1      39.830 -14.210  -0.834  1.00  0.00    -0.021 A 
HETATM   21  N   UNL     1      38.740 -12.764  -2.990  1.00  0.00    -0.272 NA
HETATM   22  C   UNL     1      38.566 -14.096  -2.870  1.00  0.00     0.117 A 
HETATM   23  C   UNL     1      39.080 -14.851  -1.828  1.00  0.00     0.031 A 
HETATM   24  C   UNL     1      40.383 -14.910   0.256  1.00  0.00     0.042 A 
ENDBRANCH   3  15
TORSDOF 4
ENDMDL
MODEL 3
REMARK VINA RESULT:      -7.7      4.296      5.878
REMARK  4 active torsions:
REMARK  status: ('A' for Active; 'I' for Inactive)
REMARK    1  A    between atoms: N_1  and  C_2 
REMARK    2  A    between atoms: C_2  and  C_3 
REMARK    3  A    between atoms: C_2  and  C_16 
REMARK       I    between atoms: C_3  and  N_5 
REMARK    4  A    between atoms: N_5  and  C_6 
ROOT
HETATM    1  C   UNL     1      41.970 -14.332   4.305  1.00  0.00     0.260 C 
HETATM    2  O   UNL     1      40.863 -14.872   4.282  1.00  0.00    -0.270 OA
HETATM    3  N   UNL     1      43.195 -14.987   4.320  1.00  0.00    -0.325 N 
HETATM    4  H   UNL     1      44.021 -14.404   4.253  1.00  0.00     0.169 HD
ENDROOT
BRANCH   1   5
HETATM    5  C   UNL     1      42.111 -12.782   4.276  1.00  0.00     0.342 C 
BRANCH   5   6
HETATM    6  N   UNL     1      40.809 -12.151   4.577  1.00  0.00     0.096 N 
HETATM    7  H   UNL     1      40.583 -11.542   3.786  1.00  0.00     0.314 HD
HETATM    8  H   UNL     1      40.945 -11.500   5.351  1.00  0.00     0.314 HD
ENDBRANCH   5   6
BRANCH   5   9
HETATM    9  C   UNL     1      43.181 -12.290   5.234  1.00  0.00    -0.016 A 
HETATM   10  C   UNL     1      43.029 -12.483   6.617  1.00  0.00     0.010 A 
HETATM   11  C   UNL     1      44.013 -12.049   7.508  1.00  0.00     0.001 A 
HETATM   12  C   UNL     1      45.164 -11.425   7.031  1.00  0.00     0.000 A 
HETATM   13  C   UNL     1      45.335 -11.239   5.661  1.00  0.00     0.001 A 
HETATM   14  C   UNL     1      44.353 -11.671   4.768  1.00  0.00     0.010 A 
ENDBRANCH   5   9
ENDBRANCH   1   5
BRANCH   3  15
HETATM   15  C   UNL     1      43.422 -16.378   4.376  1.00  0.00     0.035 A 
HETATM   16  C   UNL     1      43.730 -17.067   5.549  1.00  0.00     0.030 A 
HETATM   17  C   UNL     1      43.949 -18.449   5.524  1.00  0.00     0.016 A 
HETATM   18  C   UNL     1      43.853 -19.165   4.321  1.00  0.00    -0.008 A 
HETATM   19  C   UNL     1      44.052 -20.546   4.241  1.00  0.00     0.128 A 
HETATM   20  C   UNL     1      43.539 -18.485   3.131  1.00  0.00    -0.021 A 
HETATM   21  N   UNL     1      43.956 -21.269   3.101  1.00  0.00    -0.272 NA
HETATM   22  C   UNL     1      43.648 -20.587   1.979  1.00  0.00     0.117 A 
HETATM   23  C   UNL     1      43.436 -19.218   1.942  1.00  0.00     0.031 A 
HETATM   24  C   UNL     1      43.338 -17.092   3.172  1.00  0.00     0.042 A 
ENDBRANCH   3  15
TORSDOF 4
ENDMDL
MODEL 4
REMARK VINA RESULT:      -7.6      1.529      1.956
REMARK  4 active torsions:
REMARK  status: ('A' for Active; 'I' for Inactive)
REMARK    1  A    between atoms: N_1  and  C_2 
REMARK    2  A    between atoms: C_2  and  C_3 
REMARK    3  A    between atoms: C_2  and  C_16 
REMARK       I    between atoms: C_3  and  N_5 
REMARK    4  A    between atoms: N_5  and  C_6 
ROOT
HETATM    1  C   UNL     1      41.372 -14.279   3.159  1.00  0.00     0.260 C 
HETATM    2  O   UNL     1      40.460 -14.749   3.839  1.00  0.00    -0.270 OA
HETATM    3  N   UNL     1      42.593 -14.888   2.900  1.00  0.00    -0.325 N 
HETATM    4  H   UNL     1      43.209 -14.412   2.253  1.00  0.00     0.169 HD
ENDROOT
BRANCH   1   5
HETATM    5  C   UNL     1      41.221 -12.899   2.452  1.00  0.00     0.342 C 
BRANCH   5   6
HETATM    6  N   UNL     1      42.468 -12.120   2.593  1.00  0.00     0.096 N 
HETATM    7  H   UNL     1      43.035 -12.591   3.302  1.00  0.00     0.314 HD
HETATM    8  H   UNL     1      42.234 -11.226   3.026  1.00  0.00     0.314 HD
ENDBRANCH   5   6
BRANCH   5   9
HETATM    9  C   UNL     1      40.842 -13.048   0.990  1.00  0.00    -0.016 A 
HETATM   10  C   UNL     1      41.123 -12.015   0.082  1.00  0.00     0.010 A 
HETATM   11  C   UNL     1      40.794 -12.145  -1.270  1.00  0.00     0.001 A 
HETATM   12  C   UNL     1      40.188 -13.312  -1.733  1.00  0.00     0.000 A 
HETATM   13  C   UNL     1      39.915 -14.351  -0.847  1.00  0.00     0.001 A 
HETATM   14  C   UNL     1      40.243 -14.223   0.504  1.00  0.00     0.010 A 
ENDBRANCH   5   9
ENDBRANCH   1   5
BRANCH   3  15
HETATM   15  C   UNL     1      43.059 -16.120   3.405  1.00  0.00     0.035 A 
HETATM   16  C   UNL     1      43.618 -16.278   4.673  1.00  0.00     0.030 A 
HETATM   17  C   UNL     1      44.065 -17.532   5.102  1.00  0.00     0.016 A 
HETATM   18  C   UNL     1      43.949 -18.654   4.266  1.00  0.00    -0.008 A 
HETATM   19  C   UNL     1      44.370 -19.931   4.647  1.00  0.00     0.128 A 
HETATM   20  C   UNL     1      43.385 -18.512   2.986  1.00  0.00    -0.021 A 
HETATM   21  N   UNL     1      44.264 -21.036   3.873  1.00  0.00    -0.272 NA
HETATM   22  C   UNL     1      43.712 -20.866   2.654  1.00  0.00     0.117 A 
HETATM   23  C   UNL     1      43.267 -19.645   2.172  1.00  0.00     0.031 A 
HETATM   24  C   UNL     1      42.955 -17.238   2.566  1.00  0.00     0.042 A 
ENDBRANCH   3  15
TORSDOF 4
ENDMDL
MODEL 5
REMARK VINA RESULT:      -7.6      3.933      6.666
REMARK  4 active torsions:
REMARK  status: ('A' for Active; 'I' for Inactive)
REMARK    1  A    between atoms: N_1  and  C_2 
REMARK    2  A    between atoms: C_2  and  C_3 
REMARK    3  A    between atoms: C_2  and  C_16 
REMARK       I    between atoms: C_3  and  N_5 
REMARK    4  A    between atoms: N_5  and  C_6 
ROOT
HETATM    1  C   UNL     1      42.133 -13.548   5.380  1.00  0.00     0.260 C 
HETATM    2  O   UNL     1      41.460 -14.285   6.102  1.00  0.00    -0.270 OA
HETATM    3  N   UNL     1      42.849 -13.941   4.257  1.00  0.00    -0.325 N 
HETATM    4  H   UNL     1      43.287 -13.204   3.717  1.00  0.00     0.169 HD
ENDROOT
BRANCH   1   5
HETATM    5  C   UNL     1      42.216 -12.017   5.648  1.00  0.00     0.342 C 
BRANCH   5   6
HETATM    6  N   UNL     1      41.055 -11.581   6.451  1.00  0.00     0.096 N 
HETATM    7  H   UNL     1      40.875 -12.317   7.138  1.00  0.00     0.314 HD
HETATM    8  H   UNL     1      40.229 -11.604   5.851  1.00  0.00     0.314 HD
ENDBRANCH   5   6
BRANCH   5   9
HETATM    9  C   UNL     1      43.516 -11.628   6.328  1.00  0.00    -0.016 A 
HETATM   10  C   UNL     1      44.715 -11.614   5.598  1.00  0.00     0.010 A 
HETATM   11  C   UNL     1      45.916 -11.244   6.208  1.00  0.00     0.001 A 
HETATM   12  C   UNL     1      45.934 -10.875   7.552  1.00  0.00     0.000 A 
HETATM   13  C   UNL     1      44.751 -10.871   8.286  1.00  0.00     0.001 A 
HETATM   14  C   UNL     1      43.549 -11.241   7.679  1.00  0.00     0.010 A 
ENDBRANCH   5   9
ENDBRANCH   1   5
BRANCH   3  15
HETATM   15  C   UNL     1      43.006 -15.250   3.756  1.00  0.00     0.035 A 
HETATM   16  C   UNL     1      42.779 -15.604   2.426  1.00  0.00     0.030 A 
HETATM   17  C   UNL     1      42.948 -16.927   2.004  1.00  0.00     0.016 A 
HETATM   18  C   UNL     1      43.358 -17.918   2.910  1.00  0.00    -0.008 A 
HETATM   19  C   UNL     1      43.551 -19.252   2.541  1.00  0.00     0.128 A 
HETATM   20  C   UNL     1      43.593 -17.577   4.254  1.00  0.00    -0.021 A 
HETATM   21  N   UNL     1      43.955 -20.230   3.384  1.00  0.00    -0.272 NA
HETATM   22  C   UNL     1      44.179 -19.867   4.664  1.00  0.00     0.117 A 
HETATM   23  C   UNL     1      44.013 -18.576   5.140  1.00  0.00     0.031 A 
HETATM   24  C   UNL     1      43.402 -16.243   4.664  1.00  0.00     0.042 A 
ENDBRANCH   3  15
TORSDOF 4
ENDMDL
MODEL 6
REMARK VINA RESULT:      -7.5      5.424      8.268
REMARK  4 active torsions:
REMARK  status: ('A' for Active; 'I' for Inactive)
REMARK    1  A    between atoms: N_1  and  C_2 
REMARK    2  A    between atoms: C_2  and  C_3 
REMARK    3  A    between atoms: C_2  and  C_16 
REMARK       I    between atoms: C_3  and  N_5 
REMARK    4  A    between atoms: N_5  and  C_6 
ROOT
HETATM    1  C   UNL     1      42.489 -14.742   7.154  1.00  0.00     0.260 C 
HETATM    2  O   UNL     1      43.124 -15.100   8.147  1.00  0.00    -0.270 OA
HETATM    3  N   UNL     1      42.664 -13.551   6.461  1.00  0.00    -0.325 N 
HETATM    4  H   UNL     1      42.122 -13.436   5.613  1.00  0.00     0.169 HD
ENDROOT
BRANCH   1   5
HETATM    5  C   UNL     1      41.399 -15.657   6.522  1.00  0.00     0.342 C 
BRANCH   5   6
HETATM    6  N   UNL     1      40.123 -14.920   6.413  1.00  0.00     0.096 N 
HETATM    7  H   UNL     1      39.374 -15.617   6.429  1.00  0.00     0.314 HD
HETATM    8  H   UNL     1      40.065 -14.526   5.473  1.00  0.00     0.314 HD
ENDBRANCH   5   6
BRANCH   5   9
HETATM    9  C   UNL     1      41.824 -16.198   5.169  1.00  0.00    -0.016 A 
HETATM   10  C   UNL     1      43.021 -16.922   5.046  1.00  0.00     0.010 A 
HETATM   11  C   UNL     1      43.417 -17.438   3.810  1.00  0.00     0.001 A 
HETATM   12  C   UNL     1      42.619 -17.246   2.683  1.00  0.00     0.000 A 
HETATM   13  C   UNL     1      41.422 -16.542   2.793  1.00  0.00     0.001 A 
HETATM   14  C   UNL     1      41.025 -16.025   4.027  1.00  0.00     0.010 A 
ENDBRANCH   5   9
ENDBRANCH   1   5
BRANCH   3  15
HETATM   15  C   UNL     1      43.543 -12.496   6.782  1.00  0.00     0.035 A 
HETATM   16  C   UNL     1      44.910 -12.513   6.505  1.00  0.00     0.030 A 
HETATM   17  C   UNL     1      45.721 -11.430   6.860  1.00  0.00     0.016 A 
HETATM   18  C   UNL     1      45.170 -10.303   7.491  1.00  0.00    -0.008 A 
HETATM   19  C   UNL     1      45.932  -9.191   7.859  1.00  0.00     0.128 A 
HETATM   20  C   UNL     1      43.794 -10.269   7.775  1.00  0.00    -0.021 A 
HETATM   21  N   UNL     1      45.433  -8.085   8.459  1.00  0.00    -0.272 NA
HETATM   22  C   UNL     1      44.108  -8.082   8.710  1.00  0.00     0.117 A 
HETATM   23  C   UNL     1      43.261  -9.132   8.395  1.00  0.00     0.031 A 
HETATM   24  C   UNL     1      42.996 -11.376   7.425  1.00  0.00     0.042 A 
ENDBRANCH   3  15
TORSDOF 4
ENDMDL
MODEL 7
REMARK VINA RESULT:      -7.3      1.882      7.692
REMARK  4 active torsions:
REMARK  status: ('A' for Active; 'I' for Inactive)
REMARK    1  A    between atoms: N_1  and  C_2 
REMARK    2  A    between atoms: C_2  and  C_3 
REMARK    3  A    between atoms: C_2  and  C_16 
REMARK       I    between atoms: C_3  and  N_5 
REMARK    4  A    between atoms: N_5  and  C_6 
ROOT
HETATM    1  C   UNL     1      42.363 -15.013   2.264  1.00  0.00     0.260 C 
HETATM    2  O   UNL     1      43.383 -14.638   1.685  1.00  0.00    -0.270 OA
HETATM    3  N   UNL     1      41.065 -14.889   1.788  1.00  0.00    -0.325 N 
HETATM    4  H   UNL     1      40.335 -15.322   2.343  1.00  0.00     0.169 HD
ENDROOT
BRANCH   1   5
HETATM    5  C   UNL     1      42.439 -15.737   3.641  1.00  0.00     0.342 C 
BRANCH   5   6
HETATM    6  N   UNL     1      41.107 -15.745   4.281  1.00  0.00     0.096 N 
HETATM    7  H   UNL     1      41.262 -15.790   5.291  1.00  0.00     0.314 HD
HETATM    8  H   UNL     1      40.659 -16.637   4.066  1.00  0.00     0.314 HD
ENDBRANCH   5   6
BRANCH   5   9
HETATM    9  C   UNL     1      42.982 -17.148   3.513  1.00  0.00    -0.016 A 
HETATM   10  C   UNL     1      42.678 -17.919   2.379  1.00  0.00     0.010 A 
HETATM   11  C   UNL     1      43.184 -19.213   2.242  1.00  0.00     0.001 A 
HETATM   12  C   UNL     1      44.007 -19.752   3.229  1.00  0.00     0.000 A 
HETATM   13  C   UNL     1      44.328 -18.995   4.353  1.00  0.00     0.001 A 
HETATM   14  C   UNL     1      43.824 -17.701   4.493  1.00  0.00     0.010 A 
ENDBRANCH   5   9
ENDBRANCH   1   5
BRANCH   3  15
HETATM   15  C   UNL     1      40.646 -14.264   0.596  1.00  0.00     0.035 A 
HETATM   16  C   UNL     1      39.836 -14.877  -0.360  1.00  0.00     0.030 A 
HETATM   17  C   UNL     1      39.468 -14.194  -1.524  1.00  0.00     0.016 A 
HETATM   18  C   UNL     1      39.899 -12.877  -1.744  1.00  0.00    -0.008 A 
HETATM   19  C   UNL     1      39.553 -12.145  -2.884  1.00  0.00     0.128 A 
HETATM   20  C   UNL     1      40.713 -12.243  -0.789  1.00  0.00    -0.021 A 
HETATM   21  N   UNL     1      39.941 -10.871  -3.124  1.00  0.00    -0.272 NA
HETATM   22  C   UNL     1      40.716 -10.291  -2.184  1.00  0.00     0.117 A 
HETATM   23  C   UNL     1      41.124 -10.924  -1.021  1.00  0.00     0.031 A 
HETATM   24  C   UNL     1      41.088 -12.952   0.369  1.00  0.00     0.042 A 
ENDBRANCH   3  15
TORSDOF 4
ENDMDL
MODEL 8
REMARK VINA RESULT:      -7.3      3.875      7.295
REMARK  4 active torsions:
REMARK  status: ('A' for Active; 'I' for Inactive)
REMARK    1  A    between atoms: N_1  and  C_2 
REMARK    2  A    between atoms: C_2  and  C_3 
REMARK    3  A    between atoms: C_2  and  C_16 
REMARK       I    between atoms: C_3  and  N_5 
REMARK    4  A    between atoms: N_5  and  C_6 
ROOT
HETATM    1  C   UNL     1      41.909 -15.425   3.326  1.00  0.00     0.260 C 
HETATM    2  O   UNL     1      40.929 -15.686   4.024  1.00  0.00    -0.270 OA
HETATM    3  N   UNL     1      42.705 -14.292   3.430  1.00  0.00    -0.325 N 
HETATM    4  H   UNL     1      43.527 -14.259   2.840  1.00  0.00     0.169 HD
ENDROOT
BRANCH   1   5
HETATM    5  C   UNL     1      42.401 -16.413   2.227  1.00  0.00     0.342 C 
BRANCH   5   6
HETATM    6  N   UNL     1      43.362 -15.736   1.333  1.00  0.00     0.096 N 
HETATM    7  H   UNL     1      42.918 -15.667   0.414  1.00  0.00     0.314 HD
HETATM    8  H   UNL     1      44.146 -16.370   1.174  1.00  0.00     0.314 HD
ENDBRANCH   5   6
BRANCH   5   9
HETATM    9  C   UNL     1      43.012 -17.668   2.823  1.00  0.00    -0.016 A 
HETATM   10  C   UNL     1      42.991 -18.872   2.101  1.00  0.00     0.010 A 
HETATM   11  C   UNL     1      43.564 -20.030   2.632  1.00  0.00     0.001 A 
HETATM   12  C   UNL     1      44.173 -20.000   3.884  1.00  0.00     0.000 A 
HETATM   13  C   UNL     1      44.214 -18.810   4.607  1.00  0.00     0.001 A 
HETATM   14  C   UNL     1      43.642 -17.651   4.079  1.00  0.00     0.010 A 
ENDBRANCH   5   9
ENDBRANCH   1   5
BRANCH   3  15
HETATM   15  C   UNL     1      42.523 -13.195   4.298  1.00  0.00     0.035 A 
HETATM   16  C   UNL     1      41.523 -12.236   4.137  1.00  0.00     0.030 A 
HETATM   17  C   UNL     1      41.410 -11.170   5.036  1.00  0.00     0.016 A 
HETATM   18  C   UNL     1      42.294 -11.053   6.120  1.00  0.00    -0.008 A 
HETATM   19  C   UNL     1      42.220 -10.015   7.052  1.00  0.00     0.128 A 
HETATM   20  C   UNL     1      43.306 -12.014   6.297  1.00  0.00    -0.021 A 
HETATM   21  N   UNL     1      43.048  -9.878   8.114  1.00  0.00    -0.272 NA
HETATM   22  C   UNL     1      44.003 -10.820   8.258  1.00  0.00     0.117 A 
HETATM   23  C   UNL     1      44.171 -11.887   7.391  1.00  0.00     0.031 A 
HETATM   24  C   UNL     1      43.415 -13.071   5.373  1.00  0.00     0.042 A 
ENDBRANCH   3  15
TORSDOF 4
ENDMDL
MODEL 9
REMARK VINA RESULT:      -7.2      1.685      7.843
REMARK  4 active torsions:
REMARK  status: ('A' for Active; 'I' for Inactive)
REMARK    1  A    between atoms: N_1  and  C_2 
REMARK    2  A    between atoms: C_2  and  C_3 
REMARK    3  A    between atoms: C_2  and  C_16 
REMARK       I    between atoms: C_3  and  N_5 
REMARK    4  A    between atoms: N_5  and  C_6 
ROOT
HETATM    1  C   UNL     1      41.446 -14.574   2.281  1.00  0.00     0.260 C 
HETATM    2  O   UNL     1      40.405 -14.960   2.812  1.00  0.00    -0.270 OA
HETATM    3  N   UNL     1      41.548 -13.964   1.037  1.00  0.00    -0.325 N 
HETATM    4  H   UNL     1      42.465 -13.626   0.771  1.00  0.00     0.169 HD
ENDROOT
BRANCH   1   5
HETATM    5  C   UNL     1      42.817 -14.702   3.007  1.00  0.00     0.342 C 
BRANCH   5   6
HETATM    6  N   UNL     1      42.784 -13.959   4.284  1.00  0.00     0.096 N 
HETATM    7  H   UNL     1      42.102 -14.428   4.884  1.00  0.00     0.314 HD
HETATM    8  H   UNL     1      42.362 -13.046   4.107  1.00  0.00     0.314 HD
ENDBRANCH   5   6
BRANCH   5   9
HETATM    9  C   UNL     1      43.204 -16.152   3.240  1.00  0.00    -0.016 A 
HETATM   10  C   UNL     1      43.631 -16.571   4.510  1.00  0.00     0.010 A 
HETATM   11  C   UNL     1      43.976 -17.905   4.740  1.00  0.00     0.001 A 
HETATM   12  C   UNL     1      43.888 -18.839   3.710  1.00  0.00     0.000 A 
HETATM   13  C   UNL     1      43.453 -18.441   2.448  1.00  0.00     0.001 A 
HETATM   14  C   UNL     1      43.109 -17.109   2.215  1.00  0.00     0.010 A 
ENDBRANCH   5   9
ENDBRANCH   1   5
BRANCH   3  15
HETATM   15  C   UNL     1      40.508 -13.722   0.115  1.00  0.00     0.035 A 
HETATM   16  C   UNL     1      40.008 -14.685  -0.761  1.00  0.00     0.030 A 
HETATM   17  C   UNL     1      38.979 -14.368  -1.654  1.00  0.00     0.016 A 
HETATM   18  C   UNL     1      38.427 -13.077  -1.677  1.00  0.00    -0.008 A 
HETATM   19  C   UNL     1      37.392 -12.709  -2.541  1.00  0.00     0.128 A 
HETATM   20  C   UNL     1      38.919 -12.096  -0.798  1.00  0.00    -0.021 A 
HETATM   21  N   UNL     1      36.830 -11.479  -2.582  1.00  0.00    -0.272 NA
HETATM   22  C   UNL     1      37.320 -10.563  -1.722  1.00  0.00     0.117 A 
HETATM   23  C   UNL     1      38.347 -10.817  -0.827  1.00  0.00     0.031 A 
HETATM   24  C   UNL     1      39.966 -12.429   0.082  1.00  0.00     0.042 A 
ENDBRANCH   3  15
TORSDOF 4
ENDMDL
MODEL 10
REMARK VINA RESULT:      -7.2      2.496      3.398
REMARK  4 active torsions:
REMARK  status: ('A' for Active; 'I' for Inactive)
REMARK    1  A    between atoms: N_1  and  C_2 
REMARK    2  A    between atoms: C_2  and  C_3 
REMARK    3  A    between atoms: C_2  and  C_16 
REMARK       I    between atoms: C_3  and  N_5 
REMARK    4  A    between atoms: N_5  and  C_6 
ROOT
HETATM    1  C   UNL     1      41.828 -14.160   4.051  1.00  0.00     0.260 C 
HETATM    2  O   UNL     1      40.763 -14.707   4.338  1.00  0.00    -0.270 OA
HETATM    3  N   UNL     1      43.054 -14.794   3.897  1.00  0.00    -0.325 N 
HETATM    4  H   UNL     1      43.825 -14.219   3.577  1.00  0.00     0.169 HD
ENDROOT
BRANCH   1   5
HETATM    5  C   UNL     1      41.899 -12.628   3.779  1.00  0.00     0.342 C 
BRANCH   5   6
HETATM    6  N   UNL     1      43.077 -12.317   2.943  1.00  0.00     0.096 N 
HETATM    7  H   UNL     1      43.641 -11.640   3.463  1.00  0.00     0.314 HD
HETATM    8  H   UNL     1      42.756 -11.790   2.130  1.00  0.00     0.314 HD
ENDBRANCH   5   6
BRANCH   5   9
HETATM    9  C   UNL     1      40.628 -12.106   3.132  1.00  0.00    -0.016 A 
HETATM   10  C   UNL     1      40.249 -12.561   1.859  1.00  0.00     0.010 A 
HETATM   11  C   UNL     1      39.075 -12.100   1.260  1.00  0.00     0.001 A 
HETATM   12  C   UNL     1      38.260 -11.187   1.927  1.00  0.00     0.000 A 
HETATM   13  C   UNL     1      38.615 -10.738   3.196  1.00  0.00     0.001 A 
HETATM   14  C   UNL     1      39.788 -11.197   3.797  1.00  0.00     0.010 A 
ENDBRANCH   5   9
ENDBRANCH   1   5
BRANCH   3  15
HETATM   15  C   UNL     1      43.343 -16.160   4.096  1.00  0.00     0.035 A 
HETATM   16  C   UNL     1      43.774 -16.694   5.310  1.00  0.00     0.030 A 
HETATM   17  C   UNL     1      44.048 -18.061   5.428  1.00  0.00     0.016 A 
HETATM   18  C   UNL     1      43.883 -18.919   4.329  1.00  0.00    -0.008 A 
HETATM   19  C   UNL     1      44.133 -20.293   4.395  1.00  0.00     0.128 A 
HETATM   20  C   UNL     1      43.446 -18.396   3.099  1.00  0.00    -0.021 A 
HETATM   21  N   UNL     1      43.975 -21.150   3.359  1.00  0.00    -0.272 NA
HETATM   22  C   UNL     1      43.548 -20.617   2.196  1.00  0.00     0.117 A 
HETATM   23  C   UNL     1      43.277 -19.270   2.018  1.00  0.00     0.031 A 
HETATM   24  C   UNL     1      43.192 -17.015   2.994  1.00  0.00     0.042 A 
ENDBRANCH   3  15
TORSDOF 4
ENDMDL
