MODEL 1
REMARK VINA RESULT:      -7.8      0.000      0.000
REMARK  9 active torsions:
REMARK  status: ('A' for Active; 'I' for Inactive)
REMARK    1  A    between atoms: C_2  and  N_3 
REMARK    2  A    between atoms: N_3  and  C_5 
REMARK    3  A    between atoms: N_3  and  C_29 
REMARK    4  A    between atoms: C_5  and  C_6 
REMARK    5  A    between atoms: N_7  and  C_8 
REMARK    6  A    between atoms: C_12  and  N_13 
REMARK    7  A    between atoms: C_16  and  C_17 
REMARK       I    between atoms: C_17  and  N_18 
REMARK    8  A    between atoms: N_18  and  N_19 
REMARK    9  A    between atoms: C_20  and  C_21 
ROOT
HETATM    1  C   UNL     1      43.295 -16.889   4.734  1.00  0.00     0.096 A 
HETATM    2  N   UNL     1      43.563 -18.255   4.734  1.00  0.00    -0.215 N 
HETATM    3  N   UNL     1      43.717 -18.669   6.020  1.00  0.00     0.012 NA
HETATM    4  N   UNL     1      43.467 -17.659   6.837  1.00  0.00    -0.152 NA
HETATM    5  C   UNL     1      43.199 -16.558   6.079  1.00  0.00     0.170 A 
ENDROOT
BRANCH   5   6
HETATM    6  C   UNL     1      42.861 -15.252   6.630  1.00  0.00     0.293 C 
HETATM    7  N   UNL     1      43.903 -14.345   6.616  1.00  0.00    -0.242 N 
HETATM    8  H   UNL     1      44.811 -14.605   6.243  1.00  0.00     0.192 HD
HETATM    9  O   UNL     1      41.735 -15.047   7.076  1.00  0.00    -0.264 OA
BRANCH   7  10
HETATM   10  N   UNL     1      43.684 -13.080   7.070  1.00  0.00    -0.184 NA
HETATM   11  C   UNL     1      44.711 -12.292   7.097  1.00  0.00     0.150 C 
BRANCH  11  12
HETATM   12  C   UNL     1      44.585 -10.890   7.544  1.00  0.00    -0.016 A 
HETATM   13  C   UNL     1      43.359 -10.223   7.448  1.00  0.00     0.031 A 
HETATM   14  C   UNL     1      43.267  -8.895   7.865  1.00  0.00     0.007 A 
HETATM   15  I   UNL     1      41.452  -7.891   7.715  1.00  0.00    -0.045 I 
HETATM   16  C   UNL     1      44.384  -8.235   8.377  1.00  0.00     0.018 A 
HETATM   17  C   UNL     1      45.605  -8.908   8.473  1.00  0.00     0.002 A 
HETATM   18  C   UNL     1      45.709 -10.236   8.055  1.00  0.00     0.013 A 
ENDBRANCH  11  12
ENDBRANCH   7  10
ENDBRANCH   5   6
BRANCH   1  19
HETATM   19  C   UNL     1      43.244 -16.015   3.536  1.00  0.00     0.296 C 
BRANCH  19  20
HETATM   20  N   UNL     1      41.899 -15.381   3.225  1.00  0.00    -0.066 N 
HETATM   21  H   UNL     1      41.210 -15.843   3.837  1.00  0.00     0.280 HD
BRANCH  20  22
HETATM   22  C   UNL     1      41.487 -15.658   1.785  1.00  0.00     0.231 C 
HETATM   23  C   UNL     1      39.977 -15.676   1.634  1.00  0.00     0.034 C 
ENDBRANCH  20  22
BRANCH  20  24
HETATM   24  C   UNL     1      41.878 -13.887   3.523  1.00  0.00     0.231 C 
HETATM   25  C   UNL     1      43.158 -13.219   3.048  1.00  0.00     0.034 C 
ENDBRANCH  20  24
ENDBRANCH  19  20
ENDBRANCH   1  19
BRANCH   2  26
HETATM   26  C   UNL     1      43.622 -19.143   3.635  1.00  0.00     0.225 A 
HETATM   27  N   UNL     1      43.317 -18.706   2.409  1.00  0.00    -0.081 NA
HETATM   28  O   UNL     1      43.467 -19.843   1.608  1.00  0.00    -0.103 OA
HETATM   29  N   UNL     1      43.831 -20.946   2.366  1.00  0.00    -0.083 NA
HETATM   30  C   UNL     1      43.924 -20.515   3.623  1.00  0.00     0.201 A 
BRANCH  30  31
HETATM   31  N   UNL     1      44.261 -21.284   4.669  1.00  0.00    -0.379 N 
HETATM   32  H   UNL     1      44.871 -22.087   4.540  1.00  0.00     0.158 HD
HETATM   33  H   UNL     1      43.815 -21.230   5.582  1.00  0.00     0.158 HD
ENDBRANCH  30  31
ENDBRANCH   2  26
TORSDOF 9
ENDMDL
MODEL 2
REMARK VINA RESULT:      -7.7      5.083      9.939
REMARK  9 active torsions:
REMARK  status: ('A' for Active; 'I' for Inactive)
REMARK    1  A    between atoms: C_2  and  N_3 
REMARK    2  A    between atoms: N_3  and  C_5 
REMARK    3  A    between atoms: N_3  and  C_29 
REMARK    4  A    between atoms: C_5  and  C_6 
REMARK    5  A    between atoms: N_7  and  C_8 
REMARK    6  A    between atoms: C_12  and  N_13 
REMARK    7  A    between atoms: C_16  and  C_17 
REMARK       I    between atoms: C_17  and  N_18 
REMARK    8  A    between atoms: N_18  and  N_19 
REMARK    9  A    between atoms: C_20  and  C_21 
ROOT
HETATM    1  C   UNL     1      40.970  -9.481   8.836  1.00  0.00     0.096 A 
HETATM    2  N   UNL     1      39.970  -9.219   9.768  1.00  0.00    -0.215 N 
HETATM    3  N   UNL     1      38.761  -9.405   9.173  1.00  0.00     0.012 NA
HETATM    4  N   UNL     1      38.943  -9.863   7.945  1.00  0.00    -0.152 NA
HETATM    5  C   UNL     1      40.286  -9.927   7.713  1.00  0.00     0.170 A 
ENDROOT
BRANCH   5   6
HETATM    6  C   UNL     1      40.875 -10.400   6.467  1.00  0.00     0.293 C 
HETATM    7  N   UNL     1      40.977 -11.775   6.375  1.00  0.00    -0.242 N 
HETATM    8  H   UNL     1      40.655 -12.370   7.134  1.00  0.00     0.192 HD
HETATM    9  O   UNL     1      41.251  -9.593   5.621  1.00  0.00    -0.264 OA
BRANCH   7  10
HETATM   10  N   UNL     1      41.474 -12.326   5.235  1.00  0.00    -0.184 NA
HETATM   11  C   UNL     1      41.900 -13.546   5.322  1.00  0.00     0.150 C 
BRANCH  11  12
HETATM   12  C   UNL     1      42.435 -14.253   4.141  1.00  0.00    -0.016 A 
HETATM   13  C   UNL     1      42.676 -15.630   4.188  1.00  0.00     0.031 A 
HETATM   14  C   UNL     1      43.193 -16.274   3.064  1.00  0.00     0.007 A 
HETATM   15  I   UNL     1      43.566 -18.319   3.128  1.00  0.00    -0.045 I 
HETATM   16  C   UNL     1      43.466 -15.556   1.900  1.00  0.00     0.018 A 
HETATM   17  C   UNL     1      43.220 -14.181   1.858  1.00  0.00     0.002 A 
HETATM   18  C   UNL     1      42.706 -13.525   2.979  1.00  0.00     0.013 A 
ENDBRANCH  11  12
ENDBRANCH   7  10
ENDBRANCH   5   6
BRANCH   1  19
HETATM   19  C   UNL     1      42.419  -9.220   9.022  1.00  0.00     0.296 C 
BRANCH  19  20
HETATM   20  N   UNL     1      43.296 -10.441   9.248  1.00  0.00    -0.066 N 
HETATM   21  H   UNL     1      42.706 -11.264   9.061  1.00  0.00     0.280 HD
BRANCH  20  22
HETATM   22  C   UNL     1      43.747 -10.524  10.701  1.00  0.00     0.231 C 
HETATM   23  C   UNL     1      43.913  -9.143  11.309  1.00  0.00     0.034 C 
ENDBRANCH  20  22
BRANCH  20  24
HETATM   24  C   UNL     1      44.489 -10.482   8.302  1.00  0.00     0.231 C 
HETATM   25  C   UNL     1      44.438 -11.715   7.414  1.00  0.00     0.034 C 
ENDBRANCH  20  24
ENDBRANCH  19  20
ENDBRANCH   1  19
BRANCH   2  26
HETATM   26  C   UNL     1      40.104  -8.873  11.132  1.00  0.00     0.225 A 
HETATM   27  N   UNL     1      40.645  -7.698  11.470  1.00  0.00    -0.081 NA
HETATM   28  O   UNL     1      40.628  -7.720  12.870  1.00  0.00    -0.103 OA
HETATM   29  N   UNL     1      40.105  -8.912  13.347  1.00  0.00    -0.083 NA
HETATM   30  C   UNL     1      39.783  -9.630  12.271  1.00  0.00     0.201 A 
BRANCH  30  31
HETATM   31  N   UNL     1      39.238 -10.855  12.309  1.00  0.00    -0.379 N 
HETATM   32  H   UNL     1      38.229 -10.969  12.263  1.00  0.00     0.158 HD
HETATM   33  H   UNL     1      39.752 -11.699  12.550  1.00  0.00     0.158 HD
ENDBRANCH  30  31
ENDBRANCH   2  26
TORSDOF 9
ENDMDL
MODEL 3
REMARK VINA RESULT:      -7.6      4.431      9.593
REMARK  9 active torsions:
REMARK  status: ('A' for Active; 'I' for Inactive)
REMARK    1  A    between atoms: C_2  and  N_3 
REMARK    2  A    between atoms: N_3  and  C_5 
REMARK    3  A    between atoms: N_3  and  C_29 
REMARK    4  A    between atoms: C_5  and  C_6 
REMARK    5  A    between atoms: N_7  and  C_8 
REMARK    6  A    between atoms: C_12  and  N_13 
REMARK    7  A    between atoms: C_16  and  C_17 
REMARK       I    between atoms: C_17  and  N_18 
REMARK    8  A    between atoms: N_18  and  N_19 
REMARK    9  A    between atoms: C_20  and  C_21 
ROOT
HETATM    1  C   UNL     1      41.103 -10.067   7.473  1.00  0.00     0.096 A 
HETATM    2  N   UNL     1      40.370  -9.350   8.416  1.00  0.00    -0.215 N 
HETATM    3  N   UNL     1      39.049  -9.610   8.230  1.00  0.00     0.012 NA
HETATM    4  N   UNL     1      38.911 -10.525   7.284  1.00  0.00    -0.152 NA
HETATM    5  C   UNL     1      40.153 -10.829   6.807  1.00  0.00     0.170 A 
ENDROOT
BRANCH   5   6
HETATM    6  C   UNL     1      40.405 -11.812   5.762  1.00  0.00     0.293 C 
HETATM    7  N   UNL     1      40.880 -13.023   6.226  1.00  0.00    -0.242 N 
HETATM    8  H   UNL     1      41.027 -13.175   7.220  1.00  0.00     0.192 HD
HETATM    9  O   UNL     1      40.214 -11.518   4.585  1.00  0.00    -0.264 OA
BRANCH   7  10
HETATM   10  N   UNL     1      41.110 -14.028   5.337  1.00  0.00    -0.184 NA
HETATM   11  C   UNL     1      42.348 -14.344   5.131  1.00  0.00     0.150 C 
BRANCH  11  12
HETATM   12  C   UNL     1      42.712 -15.438   4.208  1.00  0.00    -0.016 A 
HETATM   13  C   UNL     1      43.152 -16.669   4.706  1.00  0.00     0.031 A 
HETATM   14  C   UNL     1      43.503 -17.683   3.815  1.00  0.00     0.007 A 
HETATM   15  I   UNL     1      44.170 -19.512   4.545  1.00  0.00    -0.045 I 
HETATM   16  C   UNL     1      43.414 -17.477   2.438  1.00  0.00     0.018 A 
HETATM   17  C   UNL     1      42.971 -16.246   1.947  1.00  0.00     0.002 A 
HETATM   18  C   UNL     1      42.621 -15.222   2.830  1.00  0.00     0.013 A 
ENDBRANCH  11  12
ENDBRANCH   7  10
ENDBRANCH   5   6
BRANCH   1  19
HETATM   19  C   UNL     1      42.557  -9.923   7.213  1.00  0.00     0.296 C 
BRANCH  19  20
HETATM   20  N   UNL     1      43.483 -10.686   8.146  1.00  0.00    -0.066 N 
HETATM   21  H   UNL     1      42.888 -11.085   8.886  1.00  0.00     0.280 HD
BRANCH  20  22
HETATM   22  C   UNL     1      44.474  -9.743   8.817  1.00  0.00     0.231 C 
HETATM   23  C   UNL     1      44.792 -10.191  10.232  1.00  0.00     0.034 C 
ENDBRANCH  20  22
BRANCH  20  24
HETATM   24  C   UNL     1      44.204 -11.828   7.443  1.00  0.00     0.231 C 
HETATM   25  C   UNL     1      45.458 -11.332   6.741  1.00  0.00     0.034 C 
ENDBRANCH  20  24
ENDBRANCH  19  20
ENDBRANCH   1  19
BRANCH   2  26
HETATM   26  C   UNL     1      40.845  -8.521   9.458  1.00  0.00     0.225 A 
HETATM   27  N   UNL     1      40.977  -7.206   9.254  1.00  0.00    -0.081 NA
HETATM   28  O   UNL     1      41.478  -6.734  10.473  1.00  0.00    -0.103 OA
HETATM   29  N   UNL     1      41.665  -7.771  11.374  1.00  0.00    -0.083 NA
HETATM   30  C   UNL     1      41.277  -8.880  10.746  1.00  0.00     0.201 A 
BRANCH  30  31
HETATM   31  N   UNL     1      41.298 -10.108  11.285  1.00  0.00    -0.379 N 
HETATM   32  H   UNL     1      40.431 -10.612  11.449  1.00  0.00     0.158 HD
HETATM   33  H   UNL     1      42.122 -10.529  11.710  1.00  0.00     0.158 HD
ENDBRANCH  30  31
ENDBRANCH   2  26
TORSDOF 9
ENDMDL
MODEL 4
REMARK VINA RESULT:      -7.5      4.504      9.587
REMARK  9 active torsions:
REMARK  status: ('A' for Active; 'I' for Inactive)
REMARK    1  A    between atoms: C_2  and  N_3 
REMARK    2  A    between atoms: N_3  and  C_5 
REMARK    3  A    between atoms: N_3  and  C_29 
REMARK    4  A    between atoms: C_5  and  C_6 
REMARK    5  A    between atoms: N_7  and  C_8 
REMARK    6  A    between atoms: C_12  and  N_13 
REMARK    7  A    between atoms: C_16  and  C_17 
REMARK       I    between atoms: C_17  and  N_18 
REMARK    8  A    between atoms: N_18  and  N_19 
REMARK    9  A    between atoms: C_20  and  C_21 
ROOT
HETATM    1  C   UNL     1      43.151  -9.952   8.067  1.00  0.00     0.096 A 
HETATM    2  N   UNL     1      43.617  -9.348   9.232  1.00  0.00    -0.215 N 
HETATM    3  N   UNL     1      44.607 -10.118   9.755  1.00  0.00     0.012 NA
HETATM    4  N   UNL     1      44.859 -11.125   8.935  1.00  0.00    -0.152 NA
HETATM    5  C   UNL     1      43.988 -11.045   7.889  1.00  0.00     0.170 A 
ENDROOT
BRANCH   5   6
HETATM    6  C   UNL     1      43.971 -11.980   6.770  1.00  0.00     0.293 C 
HETATM    7  N   UNL     1      43.126 -13.058   6.947  1.00  0.00    -0.242 N 
HETATM    8  H   UNL     1      42.579 -13.154   7.798  1.00  0.00     0.192 HD
HETATM    9  O   UNL     1      44.689 -11.780   5.794  1.00  0.00    -0.264 OA
BRANCH   7  10
HETATM   10  N   UNL     1      43.001 -13.971   5.944  1.00  0.00    -0.184 NA
HETATM   11  C   UNL     1      43.659 -15.077   6.087  1.00  0.00     0.150 C 
BRANCH  11  12
HETATM   12  C   UNL     1      43.576 -16.149   5.075  1.00  0.00    -0.016 A 
HETATM   13  C   UNL     1      43.829 -17.479   5.428  1.00  0.00     0.031 A 
HETATM   14  C   UNL     1      43.757 -18.473   4.452  1.00  0.00     0.007 A 
HETATM   15  I   UNL     1      44.144 -20.450   4.965  1.00  0.00    -0.045 I 
HETATM   16  C   UNL     1      43.432 -18.149   3.135  1.00  0.00     0.018 A 
HETATM   17  C   UNL     1      43.177 -16.819   2.789  1.00  0.00     0.002 A 
HETATM   18  C   UNL     1      43.251 -15.815   3.757  1.00  0.00     0.013 A 
ENDBRANCH  11  12
ENDBRANCH   7  10
ENDBRANCH   5   6
BRANCH   1  19
HETATM   19  C   UNL     1      41.955  -9.536   7.293  1.00  0.00     0.296 C 
BRANCH  19  20
HETATM   20  N   UNL     1      40.666 -10.279   7.601  1.00  0.00    -0.066 N 
HETATM   21  H   UNL     1      40.904 -11.000   8.297  1.00  0.00     0.280 HD
BRANCH  20  22
HETATM   22  C   UNL     1      40.144 -10.997   6.362  1.00  0.00     0.231 C 
HETATM   23  C   UNL     1      38.641 -10.837   6.222  1.00  0.00     0.034 C 
ENDBRANCH  20  22
BRANCH  20  24
HETATM   24  C   UNL     1      39.599  -9.370   8.196  1.00  0.00     0.231 C 
HETATM   25  C   UNL     1      39.528  -9.529   9.706  1.00  0.00     0.034 C 
ENDBRANCH  20  24
ENDBRANCH  19  20
ENDBRANCH   1  19
BRANCH   2  26
HETATM   26  C   UNL     1      43.223  -8.118   9.806  1.00  0.00     0.225 A 
HETATM   27  N   UNL     1      43.443  -6.975   9.149  1.00  0.00    -0.081 NA
HETATM   28  O   UNL     1      42.948  -5.995  10.017  1.00  0.00    -0.103 OA
HETATM   29  N   UNL     1      42.468  -6.560  11.189  1.00  0.00    -0.083 NA
HETATM   30  C   UNL     1      42.640  -7.875  11.062  1.00  0.00     0.201 A 
BRANCH  30  31
HETATM   31  N   UNL     1      42.294  -8.782  11.988  1.00  0.00    -0.379 N 
HETATM   32  H   UNL     1      41.580  -9.477  11.785  1.00  0.00     0.158 HD
HETATM   33  H   UNL     1      42.575  -8.733  12.965  1.00  0.00     0.158 HD
ENDBRANCH  30  31
ENDBRANCH   2  26
TORSDOF 9
ENDMDL
MODEL 5
REMARK VINA RESULT:      -7.4      4.685      8.574
REMARK  9 active torsions:
REMARK  status: ('A' for Active; 'I' for Inactive)
REMARK    1  A    between atoms: C_2  and  N_3 
REMARK    2  A    between atoms: N_3  and  C_5 
REMARK    3  A    between atoms: N_3  and  C_29 
REMARK    4  A    between atoms: C_5  and  C_6 
REMARK    5  A    between atoms: N_7  and  C_8 
REMARK    6  A    between atoms: C_12  and  N_13 
REMARK    7  A    between atoms: C_16  and  C_17 
REMARK       I    between atoms: C_17  and  N_18 
REMARK    8  A    between atoms: N_18  and  N_19 
REMARK    9  A    between atoms: C_20  and  C_21 
ROOT
HETATM    1  C   UNL     1      43.393 -12.753   5.237  1.00  0.00     0.096 A 
HETATM    2  N   UNL     1      44.295 -11.825   5.751  1.00  0.00    -0.215 N 
HETATM    3  N   UNL     1      44.873 -11.160   4.717  1.00  0.00     0.012 NA
HETATM    4  N   UNL     1      44.317 -11.549   3.581  1.00  0.00    -0.152 NA
HETATM    5  C   UNL     1      43.403 -12.519   3.869  1.00  0.00     0.170 A 
ENDROOT
BRANCH   5   6
HETATM    6  C   UNL     1      42.576 -13.181   2.868  1.00  0.00     0.293 C 
HETATM    7  N   UNL     1      41.654 -12.354   2.257  1.00  0.00    -0.242 N 
HETATM    8  H   UNL     1      41.591 -11.372   2.511  1.00  0.00     0.192 HD
HETATM    9  O   UNL     1      42.720 -14.382   2.652  1.00  0.00    -0.264 OA
BRANCH   7  10
HETATM   10  N   UNL     1      40.859 -12.861   1.275  1.00  0.00    -0.184 NA
HETATM   11  C   UNL     1      40.205 -12.001   0.561  1.00  0.00     0.150 C 
BRANCH  11  12
HETATM   12  C   UNL     1      39.334 -12.437  -0.549  1.00  0.00    -0.016 A 
HETATM   13  C   UNL     1      38.404 -11.556  -1.109  1.00  0.00     0.031 A 
HETATM   14  C   UNL     1      37.583 -11.994  -2.147  1.00  0.00     0.007 A 
HETATM   15  I   UNL     1      36.188 -10.694  -2.978  1.00  0.00    -0.045 I 
HETATM   16  C   UNL     1      37.688 -13.299  -2.630  1.00  0.00     0.018 A 
HETATM   17  C   UNL     1      38.621 -14.174  -2.068  1.00  0.00     0.002 A 
HETATM   18  C   UNL     1      39.445 -13.747  -1.025  1.00  0.00     0.013 A 
ENDBRANCH  11  12
ENDBRANCH   7  10
ENDBRANCH   5   6
BRANCH   1  19
HETATM   19  C   UNL     1      42.692 -13.804   6.015  1.00  0.00     0.296 C 
BRANCH  19  20
HETATM   20  N   UNL     1      41.313 -13.441   6.542  1.00  0.00    -0.066 N 
HETATM   21  H   UNL     1      41.416 -13.302   7.557  1.00  0.00     0.280 HD
BRANCH  20  22
HETATM   22  C   UNL     1      40.333 -14.589   6.335  1.00  0.00     0.231 C 
HETATM   23  C   UNL     1      41.049 -15.927   6.292  1.00  0.00     0.034 C 
ENDBRANCH  20  22
BRANCH  20  24
HETATM   24  C   UNL     1      40.781 -12.150   5.933  1.00  0.00     0.231 C 
HETATM   25  C   UNL     1      39.466 -12.390   5.209  1.00  0.00     0.034 C 
ENDBRANCH  20  24
ENDBRANCH  19  20
ENDBRANCH   1  19
BRANCH   2  26
HETATM   26  C   UNL     1      44.575 -11.523   7.104  1.00  0.00     0.225 A 
HETATM   27  N   UNL     1      43.634 -11.707   8.035  1.00  0.00    -0.081 NA
HETATM   28  O   UNL     1      44.257 -11.292   9.218  1.00  0.00    -0.103 OA
HETATM   29  N   UNL     1      45.545 -10.840   8.975  1.00  0.00    -0.083 NA
HETATM   30  C   UNL     1      45.743 -10.980   7.665  1.00  0.00     0.201 A 
BRANCH  30  31
HETATM   31  N   UNL     1      46.878 -10.657   7.027  1.00  0.00    -0.379 N 
HETATM   32  H   UNL     1      47.633 -10.192   7.525  1.00  0.00     0.158 HD
HETATM   33  H   UNL     1      46.993 -10.690   6.016  1.00  0.00     0.158 HD
ENDBRANCH  30  31
ENDBRANCH   2  26
TORSDOF 9
ENDMDL
MODEL 6
REMARK VINA RESULT:      -7.4      5.799      9.443
REMARK  9 active torsions:
REMARK  status: ('A' for Active; 'I' for Inactive)
REMARK    1  A    between atoms: C_2  and  N_3 
REMARK    2  A    between atoms: N_3  and  C_5 
REMARK    3  A    between atoms: N_3  and  C_29 
REMARK    4  A    between atoms: C_5  and  C_6 
REMARK    5  A    between atoms: N_7  and  C_8 
REMARK    6  A    between atoms: C_12  and  N_13 
REMARK    7  A    between atoms: C_16  and  C_17 
REMARK       I    between atoms: C_17  and  N_18 
REMARK    8  A    between atoms: N_18  and  N_19 
REMARK    9  A    between atoms: C_20  and  C_21 
ROOT
HETATM    1  C   UNL     1      39.660 -12.448  -1.149  1.00  0.00     0.096 A 
HETATM    2  N   UNL     1      39.504 -12.077  -2.481  1.00  0.00    -0.215 N 
HETATM    3  N   UNL     1      39.960 -13.085  -3.271  1.00  0.00     0.012 NA
HETATM    4  N   UNL     1      40.309 -14.112  -2.513  1.00  0.00    -0.152 NA
HETATM    5  C   UNL     1      40.129 -13.754  -1.209  1.00  0.00     0.170 A 
ENDROOT
BRANCH   5   6
HETATM    6  C   UNL     1      40.394 -14.635  -0.079  1.00  0.00     0.293 C 
HETATM    7  N   UNL     1      41.598 -14.398   0.554  1.00  0.00    -0.242 N 
HETATM    8  H   UNL     1      42.218 -13.661   0.229  1.00  0.00     0.192 HD
HETATM    9  O   UNL     1      39.585 -15.511   0.217  1.00  0.00    -0.264 OA
BRANCH   7  10
HETATM   10  N   UNL     1      41.927 -15.137   1.649  1.00  0.00    -0.184 NA
HETATM   11  C   UNL     1      42.780 -16.093   1.465  1.00  0.00     0.150 C 
BRANCH  11  12
HETATM   12  C   UNL     1      43.229 -16.941   2.587  1.00  0.00    -0.016 A 
HETATM   13  C   UNL     1      43.364 -16.404   3.872  1.00  0.00     0.031 A 
HETATM   14  C   UNL     1      43.803 -17.221   4.913  1.00  0.00     0.007 A 
HETATM   15  I   UNL     1      44.017 -16.429   6.824  1.00  0.00    -0.045 I 
HETATM   16  C   UNL     1      44.102 -18.563   4.682  1.00  0.00     0.018 A 
HETATM   17  C   UNL     1      43.963 -19.095   3.397  1.00  0.00     0.002 A 
HETATM   18  C   UNL     1      43.528 -18.284   2.345  1.00  0.00     0.013 A 
ENDBRANCH  11  12
ENDBRANCH   7  10
ENDBRANCH   5   6
BRANCH   1  19
HETATM   19  C   UNL     1      39.459 -11.566   0.027  1.00  0.00     0.296 C 
BRANCH  19  20
HETATM   20  N   UNL     1      40.685 -10.816   0.520  1.00  0.00    -0.066 N 
HETATM   21  H   UNL     1      41.501 -11.275   0.089  1.00  0.00     0.280 HD
BRANCH  20  22
HETATM   22  C   UNL     1      40.833 -10.949   2.031  1.00  0.00     0.231 C 
HETATM   23  C   UNL     1      42.266 -11.263   2.421  1.00  0.00     0.034 C 
ENDBRANCH  20  22
BRANCH  20  24
HETATM   24  C   UNL     1      40.680  -9.353   0.098  1.00  0.00     0.231 C 
HETATM   25  C   UNL     1      41.928  -9.010  -0.699  1.00  0.00     0.034 C 
ENDBRANCH  20  24
ENDBRANCH  19  20
ENDBRANCH   1  19
BRANCH   2  26
HETATM   26  C   UNL     1      38.924 -10.899  -3.007  1.00  0.00     0.225 A 
HETATM   27  N   UNL     1      37.607 -10.700  -2.897  1.00  0.00    -0.081 NA
HETATM   28  O   UNL     1      37.407  -9.469  -3.534  1.00  0.00    -0.103 OA
HETATM   29  N   UNL     1      38.597  -8.966  -4.038  1.00  0.00    -0.083 NA
HETATM   30  C   UNL     1      39.538  -9.853  -3.716  1.00  0.00     0.201 A 
BRANCH  30  31
HETATM   31  N   UNL     1      40.838  -9.728  -4.021  1.00  0.00    -0.379 N 
HETATM   32  H   UNL     1      41.551 -10.035  -3.365  1.00  0.00     0.158 HD
HETATM   33  H   UNL     1      41.188  -9.187  -4.809  1.00  0.00     0.158 HD
ENDBRANCH  30  31
ENDBRANCH   2  26
TORSDOF 9
ENDMDL
MODEL 7
REMARK VINA RESULT:      -7.2      1.495      1.708
REMARK  9 active torsions:
REMARK  status: ('A' for Active; 'I' for Inactive)
REMARK    1  A    between atoms: C_2  and  N_3 
REMARK    2  A    between atoms: N_3  and  C_5 
REMARK    3  A    between atoms: N_3  and  C_29 
REMARK    4  A    between atoms: C_5  and  C_6 
REMARK    5  A    between atoms: N_7  and  C_8 
REMARK    6  A    between atoms: C_12  and  N_13 
REMARK    7  A    between atoms: C_16  and  C_17 
REMARK       I    between atoms: C_17  and  N_18 
REMARK    8  A    between atoms: N_18  and  N_19 
REMARK    9  A    between atoms: C_20  and  C_21 
ROOT
HETATM    1  C   UNL     1      43.071 -16.490   4.670  1.00  0.00     0.096 A 
HETATM    2  N   UNL     1      43.939 -17.577   4.622  1.00  0.00    -0.215 N 
HETATM    3  N   UNL     1      44.911 -17.401   5.555  1.00  0.00     0.012 NA
HETATM    4  N   UNL     1      44.652 -16.308   6.256  1.00  0.00    -0.152 NA
HETATM    5  C   UNL     1      43.527 -15.734   5.742  1.00  0.00     0.170 A 
ENDROOT
BRANCH   5   6
HETATM    6  C   UNL     1      42.923 -14.516   6.265  1.00  0.00     0.293 C 
HETATM    7  N   UNL     1      43.811 -13.471   6.436  1.00  0.00    -0.242 N 
HETATM    8  H   UNL     1      44.794 -13.583   6.203  1.00  0.00     0.192 HD
HETATM    9  O   UNL     1      41.725 -14.493   6.536  1.00  0.00    -0.264 OA
BRANCH   7  10
HETATM   10  N   UNL     1      43.344 -12.272   6.881  1.00  0.00    -0.184 NA
HETATM   11  C   UNL     1      44.048 -11.681   7.792  1.00  0.00     0.150 C 
BRANCH  11  12
HETATM   12  C   UNL     1      43.651 -10.364   8.328  1.00  0.00    -0.016 A 
HETATM   13  C   UNL     1      43.608 -10.142   9.708  1.00  0.00     0.031 A 
HETATM   14  C   UNL     1      43.218  -8.894  10.191  1.00  0.00     0.007 A 
HETATM   15  I   UNL     1      43.140  -8.560  12.242  1.00  0.00    -0.045 I 
HETATM   16  C   UNL     1      42.875  -7.870   9.308  1.00  0.00     0.018 A 
HETATM   17  C   UNL     1      42.922  -8.096   7.930  1.00  0.00     0.002 A 
HETATM   18  C   UNL     1      43.308  -9.344   7.436  1.00  0.00     0.013 A 
ENDBRANCH  11  12
ENDBRANCH   7  10
ENDBRANCH   5   6
BRANCH   1  19
HETATM   19  C   UNL     1      41.986 -16.202   3.700  1.00  0.00     0.296 C 
BRANCH  19  20
HETATM   20  N   UNL     1      41.891 -14.768   3.207  1.00  0.00    -0.066 N 
HETATM   21  H   UNL     1      41.753 -14.181   4.042  1.00  0.00     0.280 HD
BRANCH  20  22
HETATM   22  C   UNL     1      40.672 -14.580   2.312  1.00  0.00     0.231 C 
HETATM   23  C   UNL     1      39.820 -15.836   2.268  1.00  0.00     0.034 C 
ENDBRANCH  20  22
BRANCH  20  24
HETATM   24  C   UNL     1      43.162 -14.310   2.503  1.00  0.00     0.231 C 
HETATM   25  C   UNL     1      43.569 -15.293   1.418  1.00  0.00     0.034 C 
ENDBRANCH  20  24
ENDBRANCH  19  20
ENDBRANCH   1  19
BRANCH   2  26
HETATM   26  C   UNL     1      43.860 -18.734   3.813  1.00  0.00     0.225 A 
HETATM   27  N   UNL     1      43.660 -18.614   2.497  1.00  0.00    -0.081 NA
HETATM   28  O   UNL     1      43.620 -19.939   2.048  1.00  0.00    -0.103 OA
HETATM   29  N   UNL     1      43.767 -20.830   3.100  1.00  0.00    -0.083 NA
HETATM   30  C   UNL     1      43.912 -20.086   4.196  1.00  0.00     0.201 A 
BRANCH  30  31
HETATM   31  N   UNL     1      44.087 -20.576   5.432  1.00  0.00    -0.379 N 
HETATM   32  H   UNL     1      43.311 -20.605   6.088  1.00  0.00     0.158 HD
HETATM   33  H   UNL     1      44.997 -20.777   5.841  1.00  0.00     0.158 HD
ENDBRANCH  30  31
ENDBRANCH   2  26
TORSDOF 9
ENDMDL
MODEL 8
REMARK VINA RESULT:      -7.2      3.800      5.960
REMARK  9 active torsions:
REMARK  status: ('A' for Active; 'I' for Inactive)
REMARK    1  A    between atoms: C_2  and  N_3 
REMARK    2  A    between atoms: N_3  and  C_5 
REMARK    3  A    between atoms: N_3  and  C_29 
REMARK    4  A    between atoms: C_5  and  C_6 
REMARK    5  A    between atoms: N_7  and  C_8 
REMARK    6  A    between atoms: C_12  and  N_13 
REMARK    7  A    between atoms: C_16  and  C_17 
REMARK       I    between atoms: C_17  and  N_18 
REMARK    8  A    between atoms: N_18  and  N_19 
REMARK    9  A    between atoms: C_20  and  C_21 
ROOT
HETATM    1  C   UNL     1      41.367 -12.308   2.205  1.00  0.00     0.096 A 
HETATM    2  N   UNL     1      40.843 -11.968   0.961  1.00  0.00    -0.215 N 
HETATM    3  N   UNL     1      41.330 -10.751   0.601  1.00  0.00     0.012 NA
HETATM    4  N   UNL     1      42.207 -10.345   1.505  1.00  0.00    -0.152 NA
HETATM    5  C   UNL     1      42.257 -11.282   2.495  1.00  0.00     0.170 A 
ENDROOT
BRANCH   5   6
HETATM    6  C   UNL     1      43.126 -11.189   3.661  1.00  0.00     0.293 C 
HETATM    7  N   UNL     1      42.493 -10.744   4.806  1.00  0.00    -0.242 N 
HETATM    8  H   UNL     1      41.503 -10.514   4.794  1.00  0.00     0.192 HD
HETATM    9  O   UNL     1      44.317 -11.472   3.561  1.00  0.00    -0.264 OA
BRANCH   7  10
HETATM   10  N   UNL     1      43.203 -10.661   5.964  1.00  0.00    -0.184 NA
HETATM   11  C   UNL     1      42.665  -9.976   6.922  1.00  0.00     0.150 C 
BRANCH  11  12
HETATM   12  C   UNL     1      43.333  -9.842   8.232  1.00  0.00    -0.016 A 
HETATM   13  C   UNL     1      42.699  -9.179   9.288  1.00  0.00     0.031 A 
HETATM   14  C   UNL     1      43.355  -9.053  10.511  1.00  0.00     0.007 A 
HETATM   15  I   UNL     1      42.424  -8.059  12.083  1.00  0.00    -0.045 I 
HETATM   16  C   UNL     1      44.632  -9.586  10.687  1.00  0.00     0.018 A 
HETATM   17  C   UNL     1      45.260 -10.249   9.630  1.00  0.00     0.002 A 
HETATM   18  C   UNL     1      44.613 -10.377   8.399  1.00  0.00     0.013 A 
ENDBRANCH  11  12
ENDBRANCH   7  10
ENDBRANCH   5   6
BRANCH   1  19
HETATM   19  C   UNL     1      40.950 -13.464   3.036  1.00  0.00     0.296 C 
BRANCH  19  20
HETATM   20  N   UNL     1      41.369 -14.836   2.534  1.00  0.00    -0.066 N 
HETATM   21  H   UNL     1      41.118 -14.871   1.536  1.00  0.00     0.280 HD
BRANCH  20  22
HETATM   22  C   UNL     1      40.585 -15.936   3.240  1.00  0.00     0.231 C 
HETATM   23  C   UNL     1      40.995 -16.059   4.697  1.00  0.00     0.034 C 
ENDBRANCH  20  22
BRANCH  20  24
HETATM   24  C   UNL     1      42.869 -15.067   2.660  1.00  0.00     0.231 C 
HETATM   25  C   UNL     1      43.366 -16.021   1.586  1.00  0.00     0.034 C 
ENDBRANCH  20  24
ENDBRANCH  19  20
ENDBRANCH   1  19
BRANCH   2  26
HETATM   26  C   UNL     1      39.993 -12.727   0.125  1.00  0.00     0.225 A 
HETATM   27  N   UNL     1      40.287 -14.003  -0.141  1.00  0.00    -0.081 NA
HETATM   28  O   UNL     1      39.254 -14.408  -0.995  1.00  0.00    -0.103 OA
HETATM   29  N   UNL     1      38.376 -13.365  -1.249  1.00  0.00    -0.083 NA
HETATM   30  C   UNL     1      38.834 -12.321  -0.559  1.00  0.00     0.201 A 
BRANCH  30  31
HETATM   31  N   UNL     1      38.256 -11.111  -0.536  1.00  0.00    -0.379 N 
HETATM   32  H   UNL     1      37.256 -11.016  -0.694  1.00  0.00     0.158 HD
HETATM   33  H   UNL     1      38.772 -10.233  -0.535  1.00  0.00     0.158 HD
ENDBRANCH  30  31
ENDBRANCH   2  26
TORSDOF 9
ENDMDL
MODEL 9
REMARK VINA RESULT:      -7.2      3.132      5.109
REMARK  9 active torsions:
REMARK  status: ('A' for Active; 'I' for Inactive)
REMARK    1  A    between atoms: C_2  and  N_3 
REMARK    2  A    between atoms: N_3  and  C_5 
REMARK    3  A    between atoms: N_3  and  C_29 
REMARK    4  A    between atoms: C_5  and  C_6 
REMARK    5  A    between atoms: N_7  and  C_8 
REMARK    6  A    between atoms: C_12  and  N_13 
REMARK    7  A    between atoms: C_16  and  C_17 
REMARK       I    between atoms: C_17  and  N_18 
REMARK    8  A    between atoms: N_18  and  N_19 
REMARK    9  A    between atoms: C_20  and  C_21 
ROOT
HETATM    1  C   UNL     1      42.893 -12.999   4.915  1.00  0.00     0.096 A 
HETATM    2  N   UNL     1      43.100 -13.000   3.538  1.00  0.00    -0.215 N 
HETATM    3  N   UNL     1      43.857 -11.920   3.210  1.00  0.00     0.012 NA
HETATM    4  N   UNL     1      44.220 -11.288   4.315  1.00  0.00    -0.152 NA
HETATM    5  C   UNL     1      43.651 -11.931   5.375  1.00  0.00     0.170 A 
ENDROOT
BRANCH   5   6
HETATM    6  C   UNL     1      43.836 -11.532   6.764  1.00  0.00     0.293 C 
HETATM    7  N   UNL     1      43.433 -10.239   7.041  1.00  0.00    -0.242 N 
HETATM    8  H   UNL     1      43.044  -9.650   6.310  1.00  0.00     0.192 HD
HETATM    9  O   UNL     1      44.337 -12.316   7.565  1.00  0.00    -0.264 OA
BRANCH   7  10
HETATM   10  N   UNL     1      43.523  -9.778   8.318  1.00  0.00    -0.184 NA
HETATM   11  C   UNL     1      42.417  -9.399   8.874  1.00  0.00     0.150 C 
BRANCH  11  12
HETATM   12  C   UNL     1      42.392  -8.907  10.266  1.00  0.00    -0.016 A 
HETATM   13  C   UNL     1      41.199  -8.452  10.837  1.00  0.00     0.031 A 
HETATM   14  C   UNL     1      41.202  -7.981  12.149  1.00  0.00     0.007 A 
HETATM   15  I   UNL     1      39.435  -7.292  13.001  1.00  0.00    -0.045 I 
HETATM   16  C   UNL     1      42.383  -7.964  12.891  1.00  0.00     0.018 A 
HETATM   17  C   UNL     1      43.572  -8.422  12.317  1.00  0.00     0.002 A 
HETATM   18  C   UNL     1      43.580  -8.893  11.002  1.00  0.00     0.013 A 
ENDBRANCH  11  12
ENDBRANCH   7  10
ENDBRANCH   5   6
BRANCH   1  19
HETATM   19  C   UNL     1      41.971 -13.896   5.654  1.00  0.00     0.296 C 
BRANCH  19  20
HETATM   20  N   UNL     1      42.622 -14.903   6.588  1.00  0.00    -0.066 N 
HETATM   21  H   UNL     1      42.893 -14.382   7.435  1.00  0.00     0.280 HD
BRANCH  20  22
HETATM   22  C   UNL     1      43.896 -15.470   5.974  1.00  0.00     0.231 C 
HETATM   23  C   UNL     1      43.705 -16.912   5.539  1.00  0.00     0.034 C 
ENDBRANCH  20  22
BRANCH  20  24
HETATM   24  C   UNL     1      41.668 -16.017   6.997  1.00  0.00     0.231 C 
HETATM   25  C   UNL     1      40.260 -15.742   6.494  1.00  0.00     0.034 C 
ENDBRANCH  20  24
ENDBRANCH  19  20
ENDBRANCH   1  19
BRANCH   2  26
HETATM   26  C   UNL     1      42.680 -13.954   2.583  1.00  0.00     0.225 A 
HETATM   27  N   UNL     1      43.477 -14.982   2.275  1.00  0.00    -0.081 NA
HETATM   28  O   UNL     1      42.749 -15.683   1.306  1.00  0.00    -0.103 OA
HETATM   29  N   UNL     1      41.546 -15.052   1.029  1.00  0.00    -0.083 NA
HETATM   30  C   UNL     1      41.503 -13.979   1.816  1.00  0.00     0.201 A 
BRANCH  30  31
HETATM   31  N   UNL     1      40.489 -13.101   1.853  1.00  0.00    -0.379 N 
HETATM   32  H   UNL     1      39.610 -13.350   2.299  1.00  0.00     0.158 HD
HETATM   33  H   UNL     1      40.463 -12.239   1.313  1.00  0.00     0.158 HD
ENDBRANCH  30  31
ENDBRANCH   2  26
TORSDOF 9
ENDMDL
MODEL 10
REMARK VINA RESULT:      -7.1      4.687      7.255
REMARK  9 active torsions:
REMARK  status: ('A' for Active; 'I' for Inactive)
REMARK    1  A    between atoms: C_2  and  N_3 
REMARK    2  A    between atoms: N_3  and  C_5 
REMARK    3  A    between atoms: N_3  and  C_29 
REMARK    4  A    between atoms: C_5  and  C_6 
REMARK    5  A    between atoms: N_7  and  C_8 
REMARK    6  A    between atoms: C_12  and  N_13 
REMARK    7  A    between atoms: C_16  and  C_17 
REMARK       I    between atoms: C_17  and  N_18 
REMARK    8  A    between atoms: N_18  and  N_19 
REMARK    9  A    between atoms: C_20  and  C_21 
ROOT
HETATM    1  C   UNL     1      40.730 -10.723   6.601  1.00  0.00     0.096 A 
HETATM    2  N   UNL     1      39.949 -11.614   5.869  1.00  0.00    -0.215 N 
HETATM    3  N   UNL     1      38.729 -11.712   6.460  1.00  0.00     0.012 NA
HETATM    4  N   UNL     1      38.663 -10.860   7.470  1.00  0.00    -0.152 NA
HETATM    5  C   UNL     1      39.870 -10.236   7.576  1.00  0.00     0.170 A 
ENDROOT
BRANCH   5   6
HETATM    6  C   UNL     1      40.174  -9.214   8.570  1.00  0.00     0.293 C 
HETATM    7  N   UNL     1      40.938  -9.664   9.630  1.00  0.00    -0.242 N 
HETATM    8  H   UNL     1      41.242 -10.633   9.674  1.00  0.00     0.192 HD
HETATM    9  O   UNL     1      39.737  -8.075   8.431  1.00  0.00    -0.264 OA
BRANCH   7  10
HETATM   10  N   UNL     1      41.315  -8.781  10.595  1.00  0.00    -0.184 NA
HETATM   11  C   UNL     1      41.091  -9.135  11.820  1.00  0.00     0.150 C 
BRANCH  11  12
HETATM   12  C   UNL     1      41.484  -8.268  12.948  1.00  0.00    -0.016 A 
HETATM   13  C   UNL     1      40.511  -7.677  13.761  1.00  0.00     0.031 A 
HETATM   14  C   UNL     1      40.907  -6.851  14.813  1.00  0.00     0.007 A 
HETATM   15  I   UNL     1      39.467  -5.958  16.020  1.00  0.00    -0.045 I 
HETATM   16  C   UNL     1      42.260  -6.617  15.059  1.00  0.00     0.018 A 
HETATM   17  C   UNL     1      43.227  -7.213  14.245  1.00  0.00     0.002 A 
HETATM   18  C   UNL     1      42.842  -8.038  13.186  1.00  0.00     0.013 A 
ENDBRANCH  11  12
ENDBRANCH   7  10
ENDBRANCH   5   6
BRANCH   1  19
HETATM   19  C   UNL     1      42.179 -10.475   6.403  1.00  0.00     0.296 C 
BRANCH  19  20
HETATM   20  N   UNL     1      43.123 -11.283   7.278  1.00  0.00    -0.066 N 
HETATM   21  H   UNL     1      42.540 -11.736   7.996  1.00  0.00     0.280 HD
BRANCH  20  22
HETATM   22  C   UNL     1      44.107 -10.371   8.001  1.00  0.00     0.231 C 
HETATM   23  C   UNL     1      45.536 -10.859   7.839  1.00  0.00     0.034 C 
ENDBRANCH  20  22
BRANCH  20  24
HETATM   24  C   UNL     1      43.854 -12.368   6.498  1.00  0.00     0.231 C 
HETATM   25  C   UNL     1      43.301 -13.744   6.831  1.00  0.00     0.034 C 
ENDBRANCH  20  24
ENDBRANCH  19  20
ENDBRANCH   1  19
BRANCH   2  26
HETATM   26  C   UNL     1      40.274 -12.294   4.673  1.00  0.00     0.225 A 
HETATM   27  N   UNL     1      40.501 -11.601   3.553  1.00  0.00    -0.081 NA
HETATM   28  O   UNL     1      40.765 -12.592   2.600  1.00  0.00    -0.103 OA
HETATM   29  N   UNL     1      40.665 -13.859   3.154  1.00  0.00    -0.083 NA
HETATM   30  C   UNL     1      40.357 -13.677   4.437  1.00  0.00     0.201 A 
BRANCH  30  31
HETATM   31  N   UNL     1      40.177 -14.667   5.325  1.00  0.00    -0.379 N 
HETATM   32  H   UNL     1      40.391 -14.520   6.308  1.00  0.00     0.158 HD
HETATM   33  H   UNL     1      39.994 -15.635   5.069  1.00  0.00     0.158 HD
ENDBRANCH  30  31
ENDBRANCH   2  26
TORSDOF 9
ENDMDL
