MODEL 1
REMARK VINA RESULT:      -7.3      0.000      0.000
REMARK  3 active torsions:
REMARK  status: ('A' for Active; 'I' for Inactive)
REMARK       I    between atoms: C_2  and  N_3 
REMARK    1  A    between atoms: N_3  and  C_4 
REMARK    2  A    between atoms: C_7  and  C_8 
REMARK       I    between atoms: C_8  and  N_9 
REMARK    3  A    between atoms: N_9  and  C_10 
ROOT
HETATM    1  C   UNL     1      40.175 -12.768  -0.617  1.00  0.00     0.034 A 
HETATM    2  C   UNL     1      39.645 -14.054  -0.745  1.00  0.00     0.030 A 
HETATM    3  C   UNL     1      40.003 -15.072   0.151  1.00  0.00     0.019 A 
HETATM    4  C   UNL     1      40.888 -14.811   1.203  1.00  0.00     0.032 A 
HETATM    5  C   UNL     1      41.438 -13.528   1.316  1.00  0.00     0.019 A 
HETATM    6  C   UNL     1      41.086 -12.518   0.415  1.00  0.00     0.030 A 
ENDROOT
BRANCH   4   7
HETATM    7  C   UNL     1      41.293 -15.837   2.217  1.00  0.00     0.257 C 
HETATM    8  N   UNL     1      42.524 -16.431   2.014  1.00  0.00    -0.307 N 
HETATM    9  H   UNL     1      43.072 -16.154   1.218  1.00  0.00     0.170 HD
HETATM   10  O   UNL     1      40.501 -16.081   3.121  1.00  0.00    -0.267 OA
BRANCH   8  11
HETATM   11  C   UNL     1      43.062 -17.466   2.795  1.00  0.00     0.130 A 
HETATM   12  N   UNL     1      43.460 -17.246   4.061  1.00  0.00    -0.242 NA
HETATM   13  C   UNL     1      43.942 -18.293   4.771  1.00  0.00     0.142 A 
HETATM   14  C   UNL     1      44.056 -19.576   4.265  1.00  0.00     0.051 A 
HETATM   15 CL   UNL     1      44.674 -20.857   5.222  1.00  0.00    -0.083 Cl
HETATM   16  C   UNL     1      43.653 -19.796   2.957  1.00  0.00     0.029 A 
HETATM   17  C   UNL     1      43.144 -18.730   2.212  1.00  0.00     0.052 A 
ENDBRANCH   8  11
ENDBRANCH   4   7
BRANCH   1  18
HETATM   18  N   UNL     1      39.857 -11.692  -1.469  1.00  0.00    -0.328 N 
HETATM   19  C   UNL     1      40.340 -11.458  -2.744  1.00  0.00     0.218 C 
HETATM   20  C   UNL     1      39.773 -10.205  -3.366  1.00  0.00     0.117 C 
HETATM   21  O   UNL     1      41.121 -12.162  -3.374  1.00  0.00    -0.274 OA
HETATM   22  H   UNL     1      39.181 -11.031  -1.109  1.00  0.00     0.169 HD
ENDBRANCH   1  18
TORSDOF 3
ENDMDL
MODEL 2
REMARK VINA RESULT:      -7.2      6.158      8.670
REMARK  3 active torsions:
REMARK  status: ('A' for Active; 'I' for Inactive)
REMARK       I    between atoms: C_2  and  N_3 
REMARK    1  A    between atoms: N_3  and  C_4 
REMARK    2  A    between atoms: C_7  and  C_8 
REMARK       I    between atoms: C_8  and  N_9 
REMARK    3  A    between atoms: N_9  and  C_10 
ROOT
HETATM    1  C   UNL     1      43.665 -17.433   3.858  1.00  0.00     0.034 A 
HETATM    2  C   UNL     1      44.373 -17.554   5.056  1.00  0.00     0.030 A 
HETATM    3  C   UNL     1      44.361 -16.522   6.005  1.00  0.00     0.019 A 
HETATM    4  C   UNL     1      43.623 -15.355   5.774  1.00  0.00     0.032 A 
HETATM    5  C   UNL     1      42.934 -15.225   4.562  1.00  0.00     0.019 A 
HETATM    6  C   UNL     1      42.956 -16.253   3.614  1.00  0.00     0.030 A 
ENDROOT
BRANCH   4   7
HETATM    7  C   UNL     1      43.537 -14.223   6.752  1.00  0.00     0.257 C 
HETATM    8  N   UNL     1      43.843 -12.972   6.253  1.00  0.00    -0.307 N 
HETATM    9  H   UNL     1      44.102 -12.884   5.286  1.00  0.00     0.170 HD
HETATM   10  O   UNL     1      43.228 -14.497   7.907  1.00  0.00    -0.267 OA
BRANCH   8  11
HETATM   11  C   UNL     1      43.900 -11.791   7.010  1.00  0.00     0.130 A 
HETATM   12  N   UNL     1      44.911 -11.562   7.867  1.00  0.00    -0.242 NA
HETATM   13  C   UNL     1      44.924 -10.390   8.545  1.00  0.00     0.142 A 
HETATM   14  C   UNL     1      43.951  -9.416   8.411  1.00  0.00     0.051 A 
HETATM   15 CL   UNL     1      44.030  -7.952   9.299  1.00  0.00    -0.083 Cl
HETATM   16  C   UNL     1      42.905  -9.659   7.533  1.00  0.00     0.029 A 
HETATM   17  C   UNL     1      42.881 -10.859   6.818  1.00  0.00     0.052 A 
ENDBRANCH   8  11
ENDBRANCH   4   7
BRANCH   1  18
HETATM   18  N   UNL     1      43.620 -18.429   2.862  1.00  0.00    -0.328 N 
HETATM   19  C   UNL     1      43.761 -19.794   3.030  1.00  0.00     0.218 C 
HETATM   20  C   UNL     1      43.649 -20.561   1.734  1.00  0.00     0.117 C 
HETATM   21  O   UNL     1      43.932 -20.390   4.088  1.00  0.00    -0.274 OA
HETATM   22  H   UNL     1      43.440 -18.102   1.922  1.00  0.00     0.169 HD
ENDBRANCH   1  18
TORSDOF 3
ENDMDL
MODEL 3
REMARK VINA RESULT:      -7.1      5.639      8.056
REMARK  3 active torsions:
REMARK  status: ('A' for Active; 'I' for Inactive)
REMARK       I    between atoms: C_2  and  N_3 
REMARK    1  A    between atoms: N_3  and  C_4 
REMARK    2  A    between atoms: C_7  and  C_8 
REMARK       I    between atoms: C_8  and  N_9 
REMARK    3  A    between atoms: N_9  and  C_10 
ROOT
HETATM    1  C   UNL     1      42.889 -16.671   2.720  1.00  0.00     0.034 A 
HETATM    2  C   UNL     1      43.132 -15.578   1.885  1.00  0.00     0.030 A 
HETATM    3  C   UNL     1      43.222 -14.280   2.407  1.00  0.00     0.019 A 
HETATM    4  C   UNL     1      43.086 -14.058   3.782  1.00  0.00     0.032 A 
HETATM    5  C   UNL     1      42.817 -15.152   4.616  1.00  0.00     0.019 A 
HETATM    6  C   UNL     1      42.719 -16.444   4.089  1.00  0.00     0.030 A 
ENDROOT
BRANCH   4   7
HETATM    7  C   UNL     1      43.199 -12.706   4.418  1.00  0.00     0.257 C 
HETATM    8  N   UNL     1      43.652 -12.690   5.723  1.00  0.00    -0.307 N 
HETATM    9  H   UNL     1      43.875 -13.562   6.171  1.00  0.00     0.170 HD
HETATM   10  O   UNL     1      42.864 -11.737   3.746  1.00  0.00    -0.267 OA
BRANCH   8  11
HETATM   11  C   UNL     1      43.759 -11.545   6.528  1.00  0.00     0.130 A 
HETATM   12  N   UNL     1      42.686 -10.781   6.796  1.00  0.00    -0.242 NA
HETATM   13  C   UNL     1      42.850  -9.706   7.604  1.00  0.00     0.142 A 
HETATM   14  C   UNL     1      44.063  -9.347   8.165  1.00  0.00     0.051 A 
HETATM   15 CL   UNL     1      44.200  -7.974   9.182  1.00  0.00    -0.083 Cl
HETATM   16  C   UNL     1      45.170 -10.133   7.879  1.00  0.00     0.029 A 
HETATM   17  C   UNL     1      45.016 -11.250   7.055  1.00  0.00     0.052 A 
ENDBRANCH   8  11
ENDBRANCH   4   7
BRANCH   1  18
HETATM   18  N   UNL     1      42.796 -18.004   2.272  1.00  0.00    -0.328 N 
HETATM   19  C   UNL     1      43.596 -19.071   2.636  1.00  0.00     0.218 C 
HETATM   20  C   UNL     1      43.199 -20.361   1.959  1.00  0.00     0.117 C 
HETATM   21  O   UNL     1      44.525 -19.053   3.436  1.00  0.00    -0.274 OA
HETATM   22  H   UNL     1      42.040 -18.199   1.629  1.00  0.00     0.169 HD
ENDBRANCH   1  18
TORSDOF 3
ENDMDL
MODEL 4
REMARK VINA RESULT:      -6.9     15.850     17.222
REMARK  3 active torsions:
REMARK  status: ('A' for Active; 'I' for Inactive)
REMARK       I    between atoms: C_2  and  N_3 
REMARK    1  A    between atoms: N_3  and  C_4 
REMARK    2  A    between atoms: C_7  and  C_8 
REMARK       I    between atoms: C_8  and  N_9 
REMARK    3  A    between atoms: N_9  and  C_10 
ROOT
HETATM    1  C   UNL     1      42.938  -8.658  12.658  1.00  0.00     0.034 A 
HETATM    2  C   UNL     1      41.830  -9.365  13.131  1.00  0.00     0.030 A 
HETATM    3  C   UNL     1      41.199  -8.995  14.327  1.00  0.00     0.019 A 
HETATM    4  C   UNL     1      41.659  -7.896  15.062  1.00  0.00     0.032 A 
HETATM    5  C   UNL     1      42.785  -7.203  14.600  1.00  0.00     0.019 A 
HETATM    6  C   UNL     1      43.418  -7.580  13.411  1.00  0.00     0.030 A 
ENDROOT
BRANCH   4   7
HETATM    7  C   UNL     1      41.019  -7.422  16.331  1.00  0.00     0.257 C 
HETATM    8  N   UNL     1      41.416  -8.071  17.484  1.00  0.00    -0.307 N 
HETATM    9  H   UNL     1      42.095  -8.809  17.418  1.00  0.00     0.170 HD
HETATM   10  O   UNL     1      40.188  -6.525  16.243  1.00  0.00    -0.267 OA
BRANCH   8  11
HETATM   11  C   UNL     1      40.890  -7.839  18.765  1.00  0.00     0.130 A 
HETATM   12  N   UNL     1      41.398  -6.883  19.563  1.00  0.00    -0.242 NA
HETATM   13  C   UNL     1      40.826  -6.689  20.775  1.00  0.00     0.142 A 
HETATM   14  C   UNL     1      39.752  -7.425  21.243  1.00  0.00     0.051 A 
HETATM   15 CL   UNL     1      39.075  -7.126  22.788  1.00  0.00    -0.083 Cl
HETATM   16  C   UNL     1      39.237  -8.417  20.421  1.00  0.00     0.029 A 
HETATM   17  C   UNL     1      39.808  -8.624  19.163  1.00  0.00     0.052 A 
ENDBRANCH   8  11
ENDBRANCH   4   7
BRANCH   1  18
HETATM   18  N   UNL     1      43.620  -8.961  11.463  1.00  0.00    -0.328 N 
HETATM   19  C   UNL     1      44.129 -10.186  11.072  1.00  0.00     0.218 C 
HETATM   20  C   UNL     1      44.794 -10.141   9.718  1.00  0.00     0.117 C 
HETATM   21  O   UNL     1      44.060 -11.241  11.694  1.00  0.00    -0.274 OA
HETATM   22  H   UNL     1      43.724  -8.195  10.810  1.00  0.00     0.169 HD
ENDBRANCH   1  18
TORSDOF 3
ENDMDL
MODEL 5
REMARK VINA RESULT:      -6.9      3.918      8.450
REMARK  3 active torsions:
REMARK  status: ('A' for Active; 'I' for Inactive)
REMARK       I    between atoms: C_2  and  N_3 
REMARK    1  A    between atoms: N_3  and  C_4 
REMARK    2  A    between atoms: C_7  and  C_8 
REMARK       I    between atoms: C_8  and  N_9 
REMARK    3  A    between atoms: N_9  and  C_10 
ROOT
HETATM    1  C   UNL     1      42.842 -17.139   3.191  1.00  0.00     0.034 A 
HETATM    2  C   UNL     1      43.393 -16.598   2.027  1.00  0.00     0.030 A 
HETATM    3  C   UNL     1      42.697 -15.634   1.282  1.00  0.00     0.019 A 
HETATM    4  C   UNL     1      41.442 -15.183   1.705  1.00  0.00     0.032 A 
HETATM    5  C   UNL     1      40.879 -15.744   2.858  1.00  0.00     0.019 A 
HETATM    6  C   UNL     1      41.572 -16.712   3.592  1.00  0.00     0.030 A 
ENDROOT
BRANCH   4   7
HETATM    7  C   UNL     1      40.652 -14.136   0.980  1.00  0.00     0.257 C 
HETATM    8  N   UNL     1      40.875 -14.047  -0.380  1.00  0.00    -0.307 N 
HETATM    9  H   UNL     1      41.539 -14.671  -0.806  1.00  0.00     0.170 HD
HETATM   10  O   UNL     1      39.898 -13.436   1.647  1.00  0.00    -0.267 OA
BRANCH   8  11
HETATM   11  C   UNL     1      40.302 -13.091  -1.233  1.00  0.00     0.130 A 
HETATM   12  N   UNL     1      39.061 -13.254  -1.726  1.00  0.00    -0.242 NA
HETATM   13  C   UNL     1      38.554 -12.281  -2.520  1.00  0.00     0.142 A 
HETATM   14  C   UNL     1      39.243 -11.131  -2.859  1.00  0.00     0.051 A 
HETATM   15 CL   UNL     1      38.539  -9.937  -3.867  1.00  0.00    -0.083 Cl
HETATM   16  C   UNL     1      40.526 -10.970  -2.356  1.00  0.00     0.029 A 
HETATM   17  C   UNL     1      41.061 -11.959  -1.528  1.00  0.00     0.052 A 
ENDBRANCH   8  11
ENDBRANCH   4   7
BRANCH   1  18
HETATM   18  N   UNL     1      43.483 -18.101   3.996  1.00  0.00    -0.328 N 
HETATM   19  C   UNL     1      43.757 -19.418   3.676  1.00  0.00     0.218 C 
HETATM   20  C   UNL     1      44.465 -20.158   4.785  1.00  0.00     0.117 C 
HETATM   21  O   UNL     1      43.509 -19.983   2.616  1.00  0.00    -0.274 OA
HETATM   22  H   UNL     1      43.795 -17.778   4.903  1.00  0.00     0.169 HD
ENDBRANCH   1  18
TORSDOF 3
ENDMDL
MODEL 6
REMARK VINA RESULT:      -6.8     13.063     14.780
REMARK  3 active torsions:
REMARK  status: ('A' for Active; 'I' for Inactive)
REMARK       I    between atoms: C_2  and  N_3 
REMARK    1  A    between atoms: N_3  and  C_4 
REMARK    2  A    between atoms: C_7  and  C_8 
REMARK       I    between atoms: C_8  and  N_9 
REMARK    3  A    between atoms: N_9  and  C_10 
ROOT
HETATM    1  C   UNL     1      42.273  -6.995  15.473  1.00  0.00     0.034 A 
HETATM    2  C   UNL     1      41.520  -8.157  15.290  1.00  0.00     0.030 A 
HETATM    3  C   UNL     1      41.755  -9.001  14.195  1.00  0.00     0.019 A 
HETATM    4  C   UNL     1      42.764  -8.702  13.273  1.00  0.00     0.032 A 
HETATM    5  C   UNL     1      43.503  -7.524  13.444  1.00  0.00     0.019 A 
HETATM    6  C   UNL     1      43.259  -6.680  14.531  1.00  0.00     0.030 A 
ENDROOT
BRANCH   4   7
HETATM    7  C   UNL     1      43.095  -9.570  12.097  1.00  0.00     0.257 C 
HETATM    8  N   UNL     1      43.700  -8.935  11.030  1.00  0.00    -0.307 N 
HETATM    9  H   UNL     1      43.883  -7.948  11.093  1.00  0.00     0.170 HD
HETATM   10  O   UNL     1      42.785 -10.755  12.166  1.00  0.00    -0.267 OA
BRANCH   8  11
HETATM   11  C   UNL     1      44.023  -9.539   9.806  1.00  0.00     0.130 A 
HETATM   12  N   UNL     1      43.086  -9.744   8.863  1.00  0.00    -0.242 NA
HETATM   13  C   UNL     1      43.468 -10.305   7.691  1.00  0.00     0.142 A 
HETATM   14  C   UNL     1      44.768 -10.686   7.411  1.00  0.00     0.051 A 
HETATM   15 CL   UNL     1      45.184 -11.389   5.904  1.00  0.00    -0.083 Cl
HETATM   16  C   UNL     1      45.730 -10.482   8.389  1.00  0.00     0.029 A 
HETATM   17  C   UNL     1      45.356  -9.896   9.601  1.00  0.00     0.052 A 
ENDBRANCH   8  11
ENDBRANCH   4   7
BRANCH   1  18
HETATM   18  N   UNL     1      42.104  -6.103  16.550  1.00  0.00    -0.328 N 
HETATM   19  C   UNL     1      41.996  -6.417  17.893  1.00  0.00     0.218 C 
HETATM   20  C   UNL     1      41.830  -5.199  18.770  1.00  0.00     0.117 C 
HETATM   21  O   UNL     1      42.049  -7.536  18.391  1.00  0.00    -0.274 OA
HETATM   22  H   UNL     1      42.083  -5.121  16.309  1.00  0.00     0.169 HD
ENDBRANCH   1  18
TORSDOF 3
ENDMDL
MODEL 7
REMARK VINA RESULT:      -6.7     14.847     17.150
REMARK  3 active torsions:
REMARK  status: ('A' for Active; 'I' for Inactive)
REMARK       I    between atoms: C_2  and  N_3 
REMARK    1  A    between atoms: N_3  and  C_4 
REMARK    2  A    between atoms: C_7  and  C_8 
REMARK       I    between atoms: C_8  and  N_9 
REMARK    3  A    between atoms: N_9  and  C_10 
ROOT
HETATM    1  C   UNL     1      47.267 -28.367   0.337  1.00  0.00     0.034 A 
HETATM    2  C   UNL     1      45.884 -28.441   0.160  1.00  0.00     0.030 A 
HETATM    3  C   UNL     1      45.333 -28.669  -1.110  1.00  0.00     0.019 A 
HETATM    4  C   UNL     1      46.164 -28.844  -2.222  1.00  0.00     0.032 A 
HETATM    5  C   UNL     1      47.550 -28.745  -2.047  1.00  0.00     0.019 A 
HETATM    6  C   UNL     1      48.095 -28.508  -0.781  1.00  0.00     0.030 A 
ENDROOT
BRANCH   4   7
HETATM    7  C   UNL     1      45.652 -29.121  -3.603  1.00  0.00     0.257 C 
HETATM    8  N   UNL     1      45.795 -30.421  -4.048  1.00  0.00    -0.307 N 
HETATM    9  H   UNL     1      46.224 -31.098  -3.442  1.00  0.00     0.170 HD
HETATM   10  O   UNL     1      45.174 -28.180  -4.226  1.00  0.00    -0.267 OA
BRANCH   8  11
HETATM   11  C   UNL     1      45.454 -30.879  -5.331  1.00  0.00     0.130 A 
HETATM   12  N   UNL     1      46.349 -31.529  -6.097  1.00  0.00    -0.242 NA
HETATM   13  C   UNL     1      45.949 -31.972  -7.313  1.00  0.00     0.142 A 
HETATM   14  C   UNL     1      44.674 -31.785  -7.816  1.00  0.00     0.051 A 
HETATM   15 CL   UNL     1      44.234 -32.374  -9.364  1.00  0.00    -0.083 Cl
HETATM   16  C   UNL     1      43.757 -31.106  -7.027  1.00  0.00     0.029 A 
HETATM   17  C   UNL     1      44.149 -30.651  -5.766  1.00  0.00     0.052 A 
ENDBRANCH   8  11
ENDBRANCH   4   7
BRANCH   1  18
HETATM   18  N   UNL     1      47.895 -28.151   1.580  1.00  0.00    -0.328 N 
HETATM   19  C   UNL     1      48.281 -29.105   2.504  1.00  0.00     0.218 C 
HETATM   20  C   UNL     1      48.935 -28.508   3.727  1.00  0.00     0.117 C 
HETATM   21  O   UNL     1      48.163 -30.321   2.397  1.00  0.00    -0.274 OA
HETATM   22  H   UNL     1      48.105 -27.187   1.804  1.00  0.00     0.169 HD
ENDBRANCH   1  18
TORSDOF 3
ENDMDL
MODEL 8
REMARK VINA RESULT:      -6.7      6.399      9.390
REMARK  3 active torsions:
REMARK  status: ('A' for Active; 'I' for Inactive)
REMARK       I    between atoms: C_2  and  N_3 
REMARK    1  A    between atoms: N_3  and  C_4 
REMARK    2  A    between atoms: C_7  and  C_8 
REMARK       I    between atoms: C_8  and  N_9 
REMARK    3  A    between atoms: N_9  and  C_10 
ROOT
HETATM    1  C   UNL     1      43.499 -17.289   5.719  1.00  0.00     0.034 A 
HETATM    2  C   UNL     1      42.668 -16.518   4.905  1.00  0.00     0.030 A 
HETATM    3  C   UNL     1      42.658 -15.119   5.007  1.00  0.00     0.019 A 
HETATM    4  C   UNL     1      43.498 -14.469   5.919  1.00  0.00     0.032 A 
HETATM    5  C   UNL     1      44.313 -15.245   6.752  1.00  0.00     0.019 A 
HETATM    6  C   UNL     1      44.313 -16.640   6.654  1.00  0.00     0.030 A 
ENDROOT
BRANCH   4   7
HETATM    7  C   UNL     1      43.566 -12.979   6.064  1.00  0.00     0.257 C 
HETATM    8  N   UNL     1      43.778 -12.509   7.346  1.00  0.00    -0.307 N 
HETATM    9  H   UNL     1      43.872 -13.170   8.097  1.00  0.00     0.170 HD
HETATM   10  O   UNL     1      43.408 -12.306   5.052  1.00  0.00    -0.267 OA
BRANCH   8  11
HETATM   11  C   UNL     1      43.799 -11.155   7.717  1.00  0.00     0.130 A 
HETATM   12  N   UNL     1      42.719 -10.371   7.549  1.00  0.00    -0.242 NA
HETATM   13  C   UNL     1      42.794  -9.081   7.956  1.00  0.00     0.142 A 
HETATM   14  C   UNL     1      43.923  -8.522   8.528  1.00  0.00     0.051 A 
HETATM   15 CL   UNL     1      43.949  -6.881   9.023  1.00  0.00    -0.083 Cl
HETATM   16  C   UNL     1      45.038  -9.332   8.691  1.00  0.00     0.029 A 
HETATM   17  C   UNL     1      44.975 -10.667   8.286  1.00  0.00     0.052 A 
ENDBRANCH   8  11
ENDBRANCH   4   7
BRANCH   1  18
HETATM   18  N   UNL     1      43.573 -18.696   5.669  1.00  0.00    -0.328 N 
HETATM   19  C   UNL     1      44.061 -19.476   4.637  1.00  0.00     0.218 C 
HETATM   20  C   UNL     1      43.991 -20.954   4.934  1.00  0.00     0.117 C 
HETATM   21  O   UNL     1      44.541 -19.079   3.580  1.00  0.00    -0.274 OA
HETATM   22  H   UNL     1      43.251 -19.182   6.496  1.00  0.00     0.169 HD
ENDBRANCH   1  18
TORSDOF 3
ENDMDL
MODEL 9
REMARK VINA RESULT:      -6.6      5.586      7.069
REMARK  3 active torsions:
REMARK  status: ('A' for Active; 'I' for Inactive)
REMARK       I    between atoms: C_2  and  N_3 
REMARK    1  A    between atoms: N_3  and  C_4 
REMARK    2  A    between atoms: C_7  and  C_8 
REMARK       I    between atoms: C_8  and  N_9 
REMARK    3  A    between atoms: N_9  and  C_10 
ROOT
HETATM    1  C   UNL     1      43.203 -10.627   7.309  1.00  0.00     0.034 A 
HETATM    2  C   UNL     1      44.183 -11.619   7.395  1.00  0.00     0.030 A 
HETATM    3  C   UNL     1      44.182 -12.708   6.511  1.00  0.00     0.019 A 
HETATM    4  C   UNL     1      43.206 -12.811   5.513  1.00  0.00     0.032 A 
HETATM    5  C   UNL     1      42.211 -11.828   5.443  1.00  0.00     0.019 A 
HETATM    6  C   UNL     1      42.209 -10.749   6.332  1.00  0.00     0.030 A 
ENDROOT
BRANCH   4   7
HETATM    7  C   UNL     1      43.158 -13.927   4.515  1.00  0.00     0.257 C 
HETATM    8  N   UNL     1      43.183 -15.205   5.039  1.00  0.00    -0.307 N 
HETATM    9  H   UNL     1      43.232 -15.321   6.036  1.00  0.00     0.170 HD
HETATM   10  O   UNL     1      43.124 -13.622   3.328  1.00  0.00    -0.267 OA
BRANCH   8  11
HETATM   11  C   UNL     1      43.223 -16.389   4.285  1.00  0.00     0.130 A 
HETATM   12  N   UNL     1      42.442 -16.549   3.201  1.00  0.00    -0.242 NA
HETATM   13  C   UNL     1      42.549 -17.702   2.499  1.00  0.00     0.142 A 
HETATM   14  C   UNL     1      43.413 -18.728   2.838  1.00  0.00     0.051 A 
HETATM   15 CL   UNL     1      43.500 -20.162   1.902  1.00  0.00    -0.083 Cl
HETATM   16  C   UNL     1      44.210 -18.563   3.961  1.00  0.00     0.029 A 
HETATM   17  C   UNL     1      44.119 -17.376   4.691  1.00  0.00     0.052 A 
ENDBRANCH   8  11
ENDBRANCH   4   7
BRANCH   1  18
HETATM   18  N   UNL     1      43.143  -9.499   8.151  1.00  0.00    -0.328 N 
HETATM   19  C   UNL     1      44.164  -8.615   8.449  1.00  0.00     0.218 C 
HETATM   20  C   UNL     1      43.734  -7.515   9.388  1.00  0.00     0.117 C 
HETATM   21  O   UNL     1      45.310  -8.644   8.011  1.00  0.00    -0.274 OA
HETATM   22  H   UNL     1      42.240  -9.308   8.565  1.00  0.00     0.169 HD
ENDBRANCH   1  18
TORSDOF 3
ENDMDL
MODEL 10
REMARK VINA RESULT:      -6.4      5.149      8.158
REMARK  3 active torsions:
REMARK  status: ('A' for Active; 'I' for Inactive)
REMARK       I    between atoms: C_2  and  N_3 
REMARK    1  A    between atoms: N_3  and  C_4 
REMARK    2  A    between atoms: C_7  and  C_8 
REMARK       I    between atoms: C_8  and  N_9 
REMARK    3  A    between atoms: N_9  and  C_10 
ROOT
HETATM    1  C   UNL     1      42.719 -16.856   2.411  1.00  0.00     0.034 A 
HETATM    2  C   UNL     1      43.376 -15.791   1.792  1.00  0.00     0.030 A 
HETATM    3  C   UNL     1      43.124 -14.467   2.181  1.00  0.00     0.019 A 
HETATM    4  C   UNL     1      42.218 -14.192   3.213  1.00  0.00     0.032 A 
HETATM    5  C   UNL     1      41.542 -15.260   3.816  1.00  0.00     0.019 A 
HETATM    6  C   UNL     1      41.789 -16.577   3.419  1.00  0.00     0.030 A 
ENDROOT
BRANCH   4   7
HETATM    7  C   UNL     1      41.920 -12.808   3.704  1.00  0.00     0.257 C 
HETATM    8  N   UNL     1      40.964 -12.715   4.697  1.00  0.00    -0.307 N 
HETATM    9  H   UNL     1      40.527 -13.556   5.032  1.00  0.00     0.170 HD
HETATM   10  O   UNL     1      42.523 -11.880   3.177  1.00  0.00    -0.267 OA
BRANCH   8  11
HETATM   11  C   UNL     1      40.480 -11.516   5.245  1.00  0.00     0.130 A 
HETATM   12  N   UNL     1      41.175 -10.851   6.184  1.00  0.00    -0.242 NA
HETATM   13  C   UNL     1      40.668  -9.684   6.650  1.00  0.00     0.142 A 
HETATM   14  C   UNL     1      39.470  -9.143   6.219  1.00  0.00     0.051 A 
HETATM   15 CL   UNL     1      38.888  -7.659   6.850  1.00  0.00    -0.083 Cl
HETATM   16  C   UNL     1      38.752  -9.837   5.257  1.00  0.00     0.029 A 
HETATM   17  C   UNL     1      39.264 -11.036   4.758  1.00  0.00     0.052 A 
ENDBRANCH   8  11
ENDBRANCH   4   7
BRANCH   1  18
HETATM   18  N   UNL     1      42.926 -18.211   2.084  1.00  0.00    -0.328 N 
HETATM   19  C   UNL     1      43.758 -19.113   2.721  1.00  0.00     0.218 C 
HETATM   20  C   UNL     1      43.723 -20.488   2.098  1.00  0.00     0.117 C 
HETATM   21  O   UNL     1      44.456 -18.898   3.706  1.00  0.00    -0.274 OA
HETATM   22  H   UNL     1      42.382 -18.563   1.307  1.00  0.00     0.169 HD
ENDBRANCH   1  18
TORSDOF 3
ENDMDL
