MODEL 1
REMARK VINA RESULT:      -8.4      0.000      0.000
REMARK  3 active torsions:
REMARK  status: ('A' for Active; 'I' for Inactive)
REMARK    1  A    between atoms: C_2  and  C_3 
REMARK    2  A    between atoms: C_10  and  C_12 
REMARK    3  A    between atoms: C_10  and  O_11 
ROOT
HETATM    1  C   UNL     1      43.651 -18.206   3.422  1.00  0.00    -0.058 A 
HETATM    2  C   UNL     1      42.556 -17.344   3.250  1.00  0.00     0.020 A 
HETATM    3  C   UNL     1      42.168 -16.544   4.314  1.00  0.00     0.018 A 
HETATM    4  C   UNL     1      42.843 -16.617   5.535  1.00  0.00     0.045 A 
HETATM    5  N   UNL     1      42.298 -15.723   6.444  1.00  0.00    -0.323 N 
HETATM    6  C   UNL     1      41.246 -14.997   5.881  1.00  0.00     0.266 A 
HETATM    7  O   UNL     1      40.598 -14.152   6.481  1.00  0.00    -0.269 OA
HETATM    8  C   UNL     1      41.048 -15.532   4.418  1.00  0.00     0.198 A 
HETATM    9  C   UNL     1      43.913 -17.460   5.741  1.00  0.00     0.031 A 
HETATM   10  C   UNL     1      44.320 -18.256   4.666  1.00  0.00     0.009 A 
HETATM   11  H   UNL     1      42.616 -15.569   7.389  1.00  0.00     0.169 HD
ENDROOT
BRANCH   8  12
HETATM   12  C   UNL     1      41.280 -14.481   3.362  1.00  0.00     0.018 A 
HETATM   13  C   UNL     1      40.835 -14.454   1.988  1.00  0.00     0.002 A 
HETATM   14  C   UNL     1      41.287 -13.261   1.421  1.00  0.00     0.043 A 
HETATM   15  C   UNL     1      40.079 -15.323   1.171  1.00  0.00     0.014 A 
HETATM   16  C   UNL     1      41.019 -12.893   0.096  1.00  0.00     0.030 A 
HETATM   17  N   UNL     1      41.999 -12.594   2.388  1.00  0.00    -0.365 N 
HETATM   18  C   UNL     1      40.262 -13.771  -0.683  1.00  0.00     0.002 A 
HETATM   19  C   UNL     1      39.799 -14.971  -0.155  1.00  0.00     0.001 A 
HETATM   20  H   UNL     1      42.455 -11.703   2.251  1.00  0.00     0.165 HD
HETATM   21  C   UNL     1      41.998 -13.308   3.550  1.00  0.00     0.100 A 
ENDBRANCH   8  12
BRANCH   8  22
HETATM   22  O   UNL     1      39.800 -16.205   4.261  1.00  0.00    -0.371 OA
HETATM   23  H   UNL     1      39.921 -16.844   3.539  1.00  0.00     0.212 HD
ENDBRANCH   8  22
BRANCH   1  24
HETATM   24  C   UNL     1      44.140 -19.040   2.263  1.00  0.00     0.034 C 
HETATM   25  C   UNL     1      43.257 -20.258   2.037  1.00  0.00     0.010 C 
ENDBRANCH   1  24
TORSDOF 3
ENDMDL
MODEL 2
REMARK VINA RESULT:      -8.4      2.592      5.402
REMARK  3 active torsions:
REMARK  status: ('A' for Active; 'I' for Inactive)
REMARK    1  A    between atoms: C_2  and  C_3 
REMARK    2  A    between atoms: C_10  and  C_12 
REMARK    3  A    between atoms: C_10  and  O_11 
ROOT
HETATM    1  C   UNL     1      44.123 -12.165   6.180  1.00  0.00    -0.058 A 
HETATM    2  C   UNL     1      43.993 -13.512   6.551  1.00  0.00     0.020 A 
HETATM    3  C   UNL     1      42.723 -14.067   6.603  1.00  0.00     0.018 A 
HETATM    4  C   UNL     1      41.601 -13.289   6.312  1.00  0.00     0.045 A 
HETATM    5  N   UNL     1      40.445 -14.048   6.410  1.00  0.00    -0.323 N 
HETATM    6  C   UNL     1      40.729 -15.371   6.754  1.00  0.00     0.266 A 
HETATM    7  O   UNL     1      39.880 -16.237   6.909  1.00  0.00    -0.269 OA
HETATM    8  C   UNL     1      42.283 -15.471   6.958  1.00  0.00     0.198 A 
HETATM    9  C   UNL     1      41.692 -11.961   5.956  1.00  0.00     0.031 A 
HETATM   10  C   UNL     1      42.971 -11.401   5.885  1.00  0.00     0.009 A 
HETATM   11  H   UNL     1      39.505 -13.726   6.232  1.00  0.00     0.169 HD
ENDROOT
BRANCH   8  12
HETATM   12  C   UNL     1      42.952 -16.419   5.995  1.00  0.00     0.018 A 
HETATM   13  C   UNL     1      42.709 -16.605   4.583  1.00  0.00     0.002 A 
HETATM   14  C   UNL     1      43.594 -17.585   4.129  1.00  0.00     0.043 A 
HETATM   15  C   UNL     1      41.830 -16.027   3.640  1.00  0.00     0.014 A 
HETATM   16  C   UNL     1      43.650 -18.006   2.794  1.00  0.00     0.030 A 
HETATM   17  N   UNL     1      44.330 -18.003   5.210  1.00  0.00    -0.365 N 
HETATM   18  C   UNL     1      42.773 -17.409   1.885  1.00  0.00     0.002 A 
HETATM   19  C   UNL     1      41.874 -16.434   2.301  1.00  0.00     0.001 A 
HETATM   20  H   UNL     1      45.042 -18.719   5.177  1.00  0.00     0.165 HD
HETATM   21  C   UNL     1      43.961 -17.312   6.327  1.00  0.00     0.100 A 
ENDBRANCH   8  12
BRANCH   8  22
HETATM   22  O   UNL     1      42.627 -15.733   8.318  1.00  0.00    -0.371 OA
HETATM   23  H   UNL     1      41.954 -16.345   8.658  1.00  0.00     0.212 HD
ENDBRANCH   8  22
BRANCH   1  24
HETATM   24  C   UNL     1      45.496 -11.551   6.049  1.00  0.00     0.034 C 
HETATM   25  C   UNL     1      45.921 -10.852   7.333  1.00  0.00     0.010 C 
ENDBRANCH   1  24
TORSDOF 3
ENDMDL
MODEL 3
REMARK VINA RESULT:      -8.1      1.450      1.960
REMARK  3 active torsions:
REMARK  status: ('A' for Active; 'I' for Inactive)
REMARK    1  A    between atoms: C_2  and  C_3 
REMARK    2  A    between atoms: C_10  and  C_12 
REMARK    3  A    between atoms: C_10  and  O_11 
ROOT
HETATM    1  C   UNL     1      42.950 -17.471   2.744  1.00  0.00    -0.058 A 
HETATM    2  C   UNL     1      41.884 -16.713   2.234  1.00  0.00     0.020 A 
HETATM    3  C   UNL     1      41.377 -15.678   3.004  1.00  0.00     0.018 A 
HETATM    4  C   UNL     1      41.905 -15.415   4.269  1.00  0.00     0.045 A 
HETATM    5  N   UNL     1      41.260 -14.333   4.849  1.00  0.00    -0.323 N 
HETATM    6  C   UNL     1      40.283 -13.806   4.003  1.00  0.00     0.266 A 
HETATM    7  O   UNL     1      39.571 -12.854   4.287  1.00  0.00    -0.269 OA
HETATM    8  C   UNL     1      40.254 -14.705   2.715  1.00  0.00     0.198 A 
HETATM    9  C   UNL     1      42.942 -16.147   4.805  1.00  0.00     0.031 A 
HETATM   10  C   UNL     1      43.470 -17.181   4.026  1.00  0.00     0.009 A 
HETATM   11  H   UNL     1      41.467 -13.933   5.752  1.00  0.00     0.169 HD
ENDROOT
BRANCH   8  12
HETATM   12  C   UNL     1      40.610 -13.954   1.456  1.00  0.00     0.018 A 
HETATM   13  C   UNL     1      40.196 -14.208   0.096  1.00  0.00     0.002 A 
HETATM   14  C   UNL     1      40.775 -13.226  -0.711  1.00  0.00     0.043 A 
HETATM   15  C   UNL     1      39.376 -15.171  -0.531  1.00  0.00     0.014 A 
HETATM   16  C   UNL     1      40.571 -13.154  -2.095  1.00  0.00     0.030 A 
HETATM   17  N   UNL     1      41.530 -12.420   0.105  1.00  0.00    -0.365 N 
HETATM   18  C   UNL     1      39.747 -14.117  -2.682  1.00  0.00     0.002 A 
HETATM   19  C   UNL     1      39.158 -15.113  -1.913  1.00  0.00     0.001 A 
HETATM   20  H   UNL     1      42.074 -11.630  -0.213  1.00  0.00     0.165 HD
HETATM   21  C   UNL     1      41.435 -12.840   1.400  1.00  0.00     0.100 A 
ENDBRANCH   8  12
BRANCH   8  22
HETATM   22  O   UNL     1      39.032 -15.430   2.598  1.00  0.00    -0.371 OA
HETATM   23  H   UNL     1      39.013 -16.059   3.338  1.00  0.00     0.212 HD
ENDBRANCH   8  22
BRANCH   1  24
HETATM   24  C   UNL     1      43.569 -18.561   1.903  1.00  0.00     0.034 C 
HETATM   25  C   UNL     1      43.229 -19.944   2.440  1.00  0.00     0.010 C 
ENDBRANCH   1  24
TORSDOF 3
ENDMDL
MODEL 4
REMARK VINA RESULT:      -8.0      2.028      5.793
REMARK  3 active torsions:
REMARK  status: ('A' for Active; 'I' for Inactive)
REMARK    1  A    between atoms: C_2  and  C_3 
REMARK    2  A    between atoms: C_10  and  C_12 
REMARK    3  A    between atoms: C_10  and  O_11 
ROOT
HETATM    1  C   UNL     1      43.949 -12.003   5.350  1.00  0.00    -0.058 A 
HETATM    2  C   UNL     1      43.078 -13.026   5.756  1.00  0.00     0.020 A 
HETATM    3  C   UNL     1      42.264 -13.622   4.804  1.00  0.00     0.018 A 
HETATM    4  C   UNL     1      42.301 -13.193   3.476  1.00  0.00     0.045 A 
HETATM    5  N   UNL     1      41.423 -13.935   2.702  1.00  0.00    -0.323 N 
HETATM    6  C   UNL     1      40.766 -14.906   3.460  1.00  0.00     0.266 A 
HETATM    7  O   UNL     1      39.936 -15.683   3.011  1.00  0.00    -0.269 OA
HETATM    8  C   UNL     1      41.249 -14.735   4.945  1.00  0.00     0.198 A 
HETATM    9  C   UNL     1      43.135 -12.183   3.046  1.00  0.00     0.031 A 
HETATM   10  C   UNL     1      43.970 -11.590   3.998  1.00  0.00     0.009 A 
HETATM   11  H   UNL     1      41.275 -13.834   1.708  1.00  0.00     0.169 HD
ENDROOT
BRANCH   8  12
HETATM   12  C   UNL     1      41.967 -15.947   5.482  1.00  0.00     0.018 A 
HETATM   13  C   UNL     1      42.720 -16.952   4.767  1.00  0.00     0.002 A 
HETATM   14  C   UNL     1      43.210 -17.861   5.707  1.00  0.00     0.043 A 
HETATM   15  C   UNL     1      43.044 -17.173   3.410  1.00  0.00     0.014 A 
HETATM   16  C   UNL     1      44.004 -18.962   5.365  1.00  0.00     0.030 A 
HETATM   17  N   UNL     1      42.761 -17.454   6.940  1.00  0.00    -0.365 N 
HETATM   18  C   UNL     1      44.314 -19.148   4.016  1.00  0.00     0.002 A 
HETATM   19  C   UNL     1      43.841 -18.267   3.050  1.00  0.00     0.001 A 
HETATM   20  H   UNL     1      42.953 -17.935   7.807  1.00  0.00     0.165 HD
HETATM   21  C   UNL     1      42.025 -16.312   6.820  1.00  0.00     0.100 A 
ENDBRANCH   8  12
BRANCH   8  22
HETATM   22  O   UNL     1      40.196 -14.294   5.801  1.00  0.00    -0.371 OA
HETATM   23  H   UNL     1      39.367 -14.448   5.319  1.00  0.00     0.212 HD
ENDBRANCH   8  22
BRANCH   1  24
HETATM   24  C   UNL     1      44.894 -11.380   6.348  1.00  0.00     0.034 C 
HETATM   25  C   UNL     1      44.238 -11.210   7.711  1.00  0.00     0.010 C 
ENDBRANCH   1  24
TORSDOF 3
ENDMDL
MODEL 5
REMARK VINA RESULT:      -7.8      2.311      5.745
REMARK  3 active torsions:
REMARK  status: ('A' for Active; 'I' for Inactive)
REMARK    1  A    between atoms: C_2  and  C_3 
REMARK    2  A    between atoms: C_10  and  C_12 
REMARK    3  A    between atoms: C_10  and  O_11 
ROOT
HETATM    1  C   UNL     1      43.674 -12.356   5.687  1.00  0.00    -0.058 A 
HETATM    2  C   UNL     1      42.987 -13.545   5.393  1.00  0.00     0.020 A 
HETATM    3  C   UNL     1      42.088 -13.549   4.337  1.00  0.00     0.018 A 
HETATM    4  C   UNL     1      41.859 -12.384   3.602  1.00  0.00     0.045 A 
HETATM    5  N   UNL     1      40.940 -12.622   2.591  1.00  0.00    -0.323 N 
HETATM    6  C   UNL     1      40.518 -13.953   2.585  1.00  0.00     0.266 A 
HETATM    7  O   UNL     1      39.705 -14.411   1.796  1.00  0.00    -0.269 OA
HETATM    8  C   UNL     1      41.225 -14.666   3.794  1.00  0.00     0.198 A 
HETATM    9  C   UNL     1      42.506 -11.198   3.872  1.00  0.00     0.031 A 
HETATM   10  C   UNL     1      43.427 -11.192   4.923  1.00  0.00     0.009 A 
HETATM   11  H   UNL     1      40.618 -11.950   1.911  1.00  0.00     0.169 HD
ENDROOT
BRANCH   8  12
HETATM   12  C   UNL     1      42.138 -15.789   3.372  1.00  0.00     0.018 A 
HETATM   13  C   UNL     1      42.735 -16.830   4.178  1.00  0.00     0.002 A 
HETATM   14  C   UNL     1      43.486 -17.643   3.326  1.00  0.00     0.043 A 
HETATM   15  C   UNL     1      42.701 -17.170   5.548  1.00  0.00     0.014 A 
HETATM   16  C   UNL     1      44.191 -18.770   3.769  1.00  0.00     0.030 A 
HETATM   17  N   UNL     1      43.381 -17.117   2.062  1.00  0.00    -0.365 N 
HETATM   18  C   UNL     1      44.130 -19.083   5.129  1.00  0.00     0.002 A 
HETATM   19  C   UNL     1      43.397 -18.295   6.008  1.00  0.00     0.001 A 
HETATM   20  H   UNL     1      43.836 -17.496   1.244  1.00  0.00     0.165 HD
HETATM   21  C   UNL     1      42.577 -16.016   2.075  1.00  0.00     0.100 A 
ENDBRANCH   8  12
BRANCH   8  22
HETATM   22  O   UNL     1      40.292 -15.061   4.799  1.00  0.00    -0.371 OA
HETATM   23  H   UNL     1      40.185 -16.022   4.712  1.00  0.00     0.212 HD
ENDBRANCH   8  22
BRANCH   1  24
HETATM   24  C   UNL     1      44.708 -12.337   6.787  1.00  0.00     0.034 C 
HETATM   25  C   UNL     1      45.776 -11.282   6.533  1.00  0.00     0.010 C 
ENDBRANCH   1  24
TORSDOF 3
ENDMDL
MODEL 6
REMARK VINA RESULT:      -7.6      2.361      4.636
REMARK  3 active torsions:
REMARK  status: ('A' for Active; 'I' for Inactive)
REMARK    1  A    between atoms: C_2  and  C_3 
REMARK    2  A    between atoms: C_10  and  C_12 
REMARK    3  A    between atoms: C_10  and  O_11 
ROOT
HETATM    1  C   UNL     1      40.915 -15.841   2.066  1.00  0.00    -0.058 A 
HETATM    2  C   UNL     1      40.516 -15.392   3.335  1.00  0.00     0.020 A 
HETATM    3  C   UNL     1      41.246 -15.796   4.442  1.00  0.00     0.018 A 
HETATM    4  C   UNL     1      42.341 -16.650   4.292  1.00  0.00     0.045 A 
HETATM    5  N   UNL     1      42.928 -16.907   5.522  1.00  0.00    -0.323 N 
HETATM    6  C   UNL     1      42.272 -16.232   6.553  1.00  0.00     0.266 A 
HETATM    7  O   UNL     1      42.592 -16.301   7.731  1.00  0.00    -0.269 OA
HETATM    8  C   UNL     1      41.058 -15.471   5.908  1.00  0.00     0.198 A 
HETATM    9  C   UNL     1      42.752 -17.118   3.063  1.00  0.00     0.031 A 
HETATM   10  C   UNL     1      42.030 -16.700   1.941  1.00  0.00     0.009 A 
HETATM   11  H   UNL     1      43.743 -17.479   5.683  1.00  0.00     0.169 HD
ENDROOT
BRANCH   8  12
HETATM   12  C   UNL     1      41.144 -13.973   6.061  1.00  0.00     0.018 A 
HETATM   13  C   UNL     1      42.314 -13.138   6.207  1.00  0.00     0.002 A 
HETATM   14  C   UNL     1      41.877 -11.814   6.295  1.00  0.00     0.043 A 
HETATM   15  C   UNL     1      43.705 -13.374   6.262  1.00  0.00     0.014 A 
HETATM   16  C   UNL     1      42.751 -10.727   6.425  1.00  0.00     0.030 A 
HETATM   17  N   UNL     1      40.506 -11.831   6.232  1.00  0.00    -0.365 N 
HETATM   18  C   UNL     1      44.121 -10.994   6.468  1.00  0.00     0.002 A 
HETATM   19  C   UNL     1      44.594 -12.299   6.389  1.00  0.00     0.001 A 
HETATM   20  H   UNL     1      39.919 -11.011   6.285  1.00  0.00     0.165 HD
HETATM   21  C   UNL     1      40.057 -13.111   6.087  1.00  0.00     0.100 A 
ENDBRANCH   8  12
BRANCH   8  22
HETATM   22  O   UNL     1      39.806 -15.999   6.342  1.00  0.00    -0.371 OA
HETATM   23  H   UNL     1      39.324 -16.256   5.540  1.00  0.00     0.212 HD
ENDBRANCH   8  22
BRANCH   1  24
HETATM   24  C   UNL     1      40.182 -15.366   0.835  1.00  0.00     0.034 C 
HETATM   25  C   UNL     1      40.652 -13.985   0.400  1.00  0.00     0.010 C 
ENDBRANCH   1  24
TORSDOF 3
ENDMDL
MODEL 7
REMARK VINA RESULT:      -7.6      3.548      5.812
REMARK  3 active torsions:
REMARK  status: ('A' for Active; 'I' for Inactive)
REMARK    1  A    between atoms: C_2  and  C_3 
REMARK    2  A    between atoms: C_10  and  C_12 
REMARK    3  A    between atoms: C_10  and  O_11 
ROOT
HETATM    1  C   UNL     1      44.673 -10.861   7.226  1.00  0.00    -0.058 A 
HETATM    2  C   UNL     1      44.121 -12.043   6.707  1.00  0.00     0.020 A 
HETATM    3  C   UNL     1      42.749 -12.107   6.515  1.00  0.00     0.018 A 
HETATM    4  C   UNL     1      41.938 -11.022   6.855  1.00  0.00     0.045 A 
HETATM    5  N   UNL     1      40.611 -11.300   6.565  1.00  0.00    -0.323 N 
HETATM    6  C   UNL     1      40.463 -12.570   6.004  1.00  0.00     0.266 A 
HETATM    7  O   UNL     1      39.391 -13.052   5.669  1.00  0.00    -0.269 OA
HETATM    8  C   UNL     1      41.889 -13.229   5.974  1.00  0.00     0.198 A 
HETATM    9  C   UNL     1      42.445  -9.853   7.378  1.00  0.00     0.031 A 
HETATM   10  C   UNL     1      43.830  -9.776   7.557  1.00  0.00     0.009 A 
HETATM   11  H   UNL     1      39.830 -10.675   6.700  1.00  0.00     0.169 HD
ENDROOT
BRANCH   8  12
HETATM   12  C   UNL     1      42.370 -13.545   4.581  1.00  0.00     0.018 A 
HETATM   13  C   UNL     1      42.652 -14.830   3.983  1.00  0.00     0.002 A 
HETATM   14  C   UNL     1      43.052 -14.604   2.665  1.00  0.00     0.043 A 
HETATM   15  C   UNL     1      42.594 -16.169   4.430  1.00  0.00     0.014 A 
HETATM   16  C   UNL     1      43.386 -15.635   1.778  1.00  0.00     0.030 A 
HETATM   17  N   UNL     1      43.044 -13.245   2.464  1.00  0.00    -0.365 N 
HETATM   18  C   UNL     1      43.311 -16.948   2.249  1.00  0.00     0.002 A 
HETATM   19  C   UNL     1      42.922 -17.214   3.557  1.00  0.00     0.001 A 
HETATM   20  H   UNL     1      43.304 -12.792   1.599  1.00  0.00     0.165 HD
HETATM   21  C   UNL     1      42.634 -12.604   3.596  1.00  0.00     0.100 A 
ENDBRANCH   8  12
BRANCH   8  22
HETATM   22  O   UNL     1      41.979 -14.347   6.856  1.00  0.00    -0.371 OA
HETATM   23  H   UNL     1      41.744 -15.130   6.333  1.00  0.00     0.212 HD
ENDBRANCH   8  22
BRANCH   1  24
HETATM   24  C   UNL     1      46.169 -10.736   7.384  1.00  0.00     0.034 C 
HETATM   25  C   UNL     1      46.560  -9.383   7.961  1.00  0.00     0.010 C 
ENDBRANCH   1  24
TORSDOF 3
ENDMDL
MODEL 8
REMARK VINA RESULT:      -7.5      2.349      4.235
REMARK  3 active torsions:
REMARK  status: ('A' for Active; 'I' for Inactive)
REMARK    1  A    between atoms: C_2  and  C_3 
REMARK    2  A    between atoms: C_10  and  C_12 
REMARK    3  A    between atoms: C_10  and  O_11 
ROOT
HETATM    1  C   UNL     1      41.589 -16.592   2.659  1.00  0.00    -0.058 A 
HETATM    2  C   UNL     1      41.431 -16.003   3.924  1.00  0.00     0.020 A 
HETATM    3  C   UNL     1      42.291 -16.380   4.944  1.00  0.00     0.018 A 
HETATM    4  C   UNL     1      43.276 -17.344   4.717  1.00  0.00     0.045 A 
HETATM    5  N   UNL     1      44.025 -17.552   5.865  1.00  0.00    -0.323 N 
HETATM    6  C   UNL     1      43.596 -16.734   6.912  1.00  0.00     0.266 A 
HETATM    7  O   UNL     1      44.090 -16.735   8.030  1.00  0.00    -0.269 OA
HETATM    8  C   UNL     1      42.362 -15.917   6.383  1.00  0.00     0.198 A 
HETATM    9  C   UNL     1      43.450 -17.951   3.492  1.00  0.00     0.031 A 
HETATM   10  C   UNL     1      42.597 -17.561   2.455  1.00  0.00     0.009 A 
HETATM   11  H   UNL     1      44.806 -18.184   5.958  1.00  0.00     0.169 HD
ENDROOT
BRANCH   8  12
HETATM   12  C   UNL     1      42.592 -14.427   6.375  1.00  0.00     0.018 A 
HETATM   13  C   UNL     1      41.638 -13.358   6.195  1.00  0.00     0.002 A 
HETATM   14  C   UNL     1      42.334 -12.151   6.288  1.00  0.00     0.043 A 
HETATM   15  C   UNL     1      40.244 -13.296   5.973  1.00  0.00     0.014 A 
HETATM   16  C   UNL     1      41.714 -10.900   6.179  1.00  0.00     0.030 A 
HETATM   17  N   UNL     1      43.657 -12.458   6.491  1.00  0.00    -0.365 N 
HETATM   18  C   UNL     1      40.333 -10.873   5.968  1.00  0.00     0.002 A 
HETATM   19  C   UNL     1      39.607 -12.054   5.864  1.00  0.00     0.001 A 
HETATM   20  H   UNL     1      44.396 -11.775   6.582  1.00  0.00     0.165 HD
HETATM   21  C   UNL     1      43.823 -13.810   6.550  1.00  0.00     0.100 A 
ENDBRANCH   8  12
BRANCH   8  22
HETATM   22  O   UNL     1      41.154 -16.286   7.048  1.00  0.00    -0.371 OA
HETATM   23  H   UNL     1      40.480 -15.647   6.765  1.00  0.00     0.212 HD
ENDBRANCH   8  22
BRANCH   1  24
HETATM   24  C   UNL     1      40.713 -16.154   1.511  1.00  0.00     0.034 C 
HETATM   25  C   UNL     1      39.864 -14.947   1.883  1.00  0.00     0.010 C 
ENDBRANCH   1  24
TORSDOF 3
ENDMDL
MODEL 9
REMARK VINA RESULT:      -7.4     10.665     13.142
REMARK  3 active torsions:
REMARK  status: ('A' for Active; 'I' for Inactive)
REMARK    1  A    between atoms: C_2  and  C_3 
REMARK    2  A    between atoms: C_10  and  C_12 
REMARK    3  A    between atoms: C_10  and  O_11 
ROOT
HETATM    1  C   UNL     1      42.831  -7.465  10.301  1.00  0.00    -0.058 A 
HETATM    2  C   UNL     1      41.518  -7.556  10.792  1.00  0.00     0.020 A 
HETATM    3  C   UNL     1      41.164  -8.671  11.536  1.00  0.00     0.018 A 
HETATM    4  C   UNL     1      42.092  -9.689  11.768  1.00  0.00     0.045 A 
HETATM    5  N   UNL     1      41.529 -10.691  12.542  1.00  0.00    -0.323 N 
HETATM    6  C   UNL     1      40.207 -10.395  12.883  1.00  0.00     0.266 A 
HETATM    7  O   UNL     1      39.491 -11.124  13.553  1.00  0.00    -0.269 OA
HETATM    8  C   UNL     1      39.847  -9.033  12.187  1.00  0.00     0.198 A 
HETATM    9  C   UNL     1      43.383  -9.637  11.290  1.00  0.00     0.031 A 
HETATM   10  C   UNL     1      43.752  -8.506  10.555  1.00  0.00     0.009 A 
HETATM   11  H   UNL     1      41.995 -11.527  12.864  1.00  0.00     0.169 HD
ENDROOT
BRANCH   8  12
HETATM   12  C   UNL     1      39.502  -7.938  13.164  1.00  0.00     0.018 A 
HETATM   13  C   UNL     1      40.278  -7.424  14.269  1.00  0.00     0.002 A 
HETATM   14  C   UNL     1      39.539  -6.399  14.863  1.00  0.00     0.043 A 
HETATM   15  C   UNL     1      41.545  -7.721  14.817  1.00  0.00     0.014 A 
HETATM   16  C   UNL     1      40.000  -5.660  15.960  1.00  0.00     0.030 A 
HETATM   17  N   UNL     1      38.353  -6.301  14.177  1.00  0.00    -0.365 N 
HETATM   18  C   UNL     1      41.260  -5.973  16.473  1.00  0.00     0.002 A 
HETATM   19  C   UNL     1      42.024  -6.990  15.912  1.00  0.00     0.001 A 
HETATM   20  H   UNL     1      37.615  -5.648  14.399  1.00  0.00     0.165 HD
HETATM   21  C   UNL     1      38.321  -7.208  13.159  1.00  0.00     0.100 A 
ENDBRANCH   8  12
BRANCH   8  22
HETATM   22  O   UNL     1      38.858  -9.198  11.171  1.00  0.00    -0.371 OA
HETATM   23  H   UNL     1      38.001  -9.235  11.626  1.00  0.00     0.212 HD
ENDBRANCH   8  22
BRANCH   1  24
HETATM   24  C   UNL     1      43.267  -6.233   9.545  1.00  0.00     0.034 C 
HETATM   25  C   UNL     1      42.754  -4.961  10.203  1.00  0.00     0.010 C 
ENDBRANCH   1  24
TORSDOF 3
ENDMDL
MODEL 10
REMARK VINA RESULT:      -7.2      3.460      5.665
REMARK  3 active torsions:
REMARK  status: ('A' for Active; 'I' for Inactive)
REMARK    1  A    between atoms: C_2  and  C_3 
REMARK    2  A    between atoms: C_10  and  C_12 
REMARK    3  A    between atoms: C_10  and  O_11 
ROOT
HETATM    1  C   UNL     1      42.882 -16.050   4.613  1.00  0.00    -0.058 A 
HETATM    2  C   UNL     1      43.187 -14.680   4.608  1.00  0.00     0.020 A 
HETATM    3  C   UNL     1      42.271 -13.798   4.054  1.00  0.00     0.018 A 
HETATM    4  C   UNL     1      41.083 -14.273   3.496  1.00  0.00     0.045 A 
HETATM    5  N   UNL     1      40.316 -13.221   3.019  1.00  0.00    -0.323 N 
HETATM    6  C   UNL     1      40.937 -11.990   3.246  1.00  0.00     0.266 A 
HETATM    7  O   UNL     1      40.467 -10.913   2.912  1.00  0.00    -0.269 OA
HETATM    8  C   UNL     1      42.325 -12.291   3.917  1.00  0.00     0.198 A 
HETATM    9  C   UNL     1      40.759 -15.612   3.473  1.00  0.00     0.031 A 
HETATM   10  C   UNL     1      41.670 -16.504   4.045  1.00  0.00     0.009 A 
HETATM   11  H   UNL     1      39.407 -13.296   2.587  1.00  0.00     0.169 HD
ENDROOT
BRANCH   8  12
HETATM   12  C   UNL     1      42.457 -11.708   5.301  1.00  0.00     0.018 A 
HETATM   13  C   UNL     1      43.653 -11.418   6.058  1.00  0.00     0.002 A 
HETATM   14  C   UNL     1      43.256 -10.869   7.279  1.00  0.00     0.043 A 
HETATM   15  C   UNL     1      45.038 -11.557   5.821  1.00  0.00     0.014 A 
HETATM   16  C   UNL     1      44.164 -10.450   8.261  1.00  0.00     0.030 A 
HETATM   17  N   UNL     1      41.884 -10.845   7.288  1.00  0.00    -0.365 N 
HETATM   18  C   UNL     1      45.527 -10.594   7.991  1.00  0.00     0.002 A 
HETATM   19  C   UNL     1      45.961 -11.141   6.789  1.00  0.00     0.001 A 
HETATM   20  H   UNL     1      41.321 -10.509   8.058  1.00  0.00     0.165 HD
HETATM   21  C   UNL     1      41.395 -11.337   6.114  1.00  0.00     0.100 A 
ENDBRANCH   8  12
BRANCH   8  22
HETATM   22  O   UNL     1      43.416 -11.944   3.065  1.00  0.00    -0.371 OA
HETATM   23  H   UNL     1      43.095 -12.042   2.154  1.00  0.00     0.212 HD
ENDBRANCH   8  22
BRANCH   1  24
HETATM   24  C   UNL     1      43.828 -17.028   5.267  1.00  0.00     0.034 C 
HETATM   25  C   UNL     1      44.617 -16.376   6.393  1.00  0.00     0.010 C 
ENDBRANCH   1  24
TORSDOF 3
ENDMDL
