MODEL 1
REMARK VINA RESULT:      -9.1      0.000      0.000
REMARK  10 active torsions:
REMARK  status: ('A' for Active; 'I' for Inactive)
REMARK    1  A    between atoms: C_2  and  C_3 
REMARK    2  A    between atoms: C_3  and  O_4 
REMARK    3  A    between atoms: O_4  and  C_5 
REMARK    4  A    between atoms: C_7  and  C_8 
REMARK       I    between atoms: C_8  and  N_9 
REMARK    5  A    between atoms: N_9  and  C_10 
REMARK    6  A    between atoms: C_10  and  N_11 
REMARK    7  A    between atoms: N_11  and  C_12 
REMARK    8  A    between atoms: C_15  and  N_16 
REMARK    9  A    between atoms: N_19  and  C_21 
REMARK   10  A    between atoms: C_21  and  C_22 
ROOT
HETATM    1  C   UNL     1      39.147 -11.107   5.219  1.00  0.00     0.034 A 
HETATM    2  C   UNL     1      39.263 -10.944   3.840  1.00  0.00     0.032 A 
HETATM    3  C   UNL     1      39.726 -11.988   3.024  1.00  0.00     0.031 A 
HETATM    4  C   UNL     1      40.064 -13.248   3.537  1.00  0.00     0.030 A 
HETATM    5  C   UNL     1      39.927 -13.389   4.930  1.00  0.00     0.031 A 
HETATM    6  C   UNL     1      39.483 -12.338   5.761  1.00  0.00     0.032 A 
ENDROOT
BRANCH   1   7
HETATM    7  N   UNL     1      38.817  -9.953   5.961  1.00  0.00    -0.333 N 
HETATM    8  H   UNL     1      38.184  -9.328   5.472  1.00  0.00     0.168 HD
BRANCH   7   9
HETATM    9  C   UNL     1      39.485  -9.316   6.940  1.00  0.00     0.179 C 
HETATM   10  S   UNL     1      39.880  -7.703   6.699  1.00  0.00    -0.040 SA
BRANCH   9  11
HETATM   11  N   UNL     1      39.809  -9.856   8.140  1.00  0.00    -0.299 N 
HETATM   12  C   UNL     1      39.492  -9.344   9.397  1.00  0.00     0.257 C 
HETATM   13  O   UNL     1      38.429  -8.817   9.709  1.00  0.00    -0.267 OA
HETATM   14  H   UNL     1      40.748 -10.220   8.064  1.00  0.00     0.171 HD
BRANCH  12  15
HETATM   15  C   UNL     1      40.555  -9.502  10.444  1.00  0.00     0.035 A 
HETATM   16  C   UNL     1      41.915  -9.264  10.200  1.00  0.00     0.053 A 
HETATM   17  C   UNL     1      42.858  -9.353  11.231  1.00  0.00     0.069 A 
HETATM   18  C   UNL     1      42.444  -9.705  12.514  1.00  0.00     0.037 A 
HETATM   19  C   UNL     1      41.096  -9.974  12.763  1.00  0.00     0.004 A 
HETATM   20  C   UNL     1      40.155  -9.873  11.735  1.00  0.00     0.017 A 
BRANCH  17  21
HETATM   21  O   UNL     1      44.137  -9.055  10.849  1.00  0.00    -0.351 OA
BRANCH  21  22
HETATM   22  C   UNL     1      45.004 -10.147  10.525  1.00  0.00     0.179 C 
BRANCH  22  23
HETATM   23  C   UNL     1      45.425 -10.012   9.053  1.00  0.00     0.002 C 
HETATM   24  C   UNL     1      45.307  -8.562   8.588  1.00  0.00     0.011 C 
HETATM   25  C   UNL     1      44.591 -10.925   8.151  1.00  0.00     0.011 C 
ENDBRANCH  22  23
ENDBRANCH  21  22
ENDBRANCH  17  21
ENDBRANCH  12  15
ENDBRANCH   9  11
ENDBRANCH   7   9
ENDBRANCH   1   7
BRANCH   4  26
HETATM   26  N   UNL     1      40.574 -14.250   2.709  1.00  0.00    -0.378 N 
HETATM   27  C   UNL     1      40.229 -15.662   2.986  1.00  0.00     0.150 C 
HETATM   28  C   UNL     1      41.302 -16.308   3.888  1.00  0.00     0.255 C 
HETATM   29  N   UNL     1      42.689 -16.171   3.250  1.00  0.00    -0.064 N 
HETATM   30  H   UNL     1      42.655 -16.682   2.360  1.00  0.00     0.280 HD
HETATM   31  C   UNL     1      43.001 -14.707   2.925  1.00  0.00     0.255 C 
HETATM   32  C   UNL     1      41.884 -14.101   2.049  1.00  0.00     0.150 C 
BRANCH  29  33
HETATM   33  C   UNL     1      43.776 -16.808   4.079  1.00  0.00     0.273 C 
BRANCH  33  34
HETATM   34  C   UNL     1      43.832 -18.302   3.908  1.00  0.00    -0.033 A 
HETATM   35  C   UNL     1      43.609 -18.883   2.649  1.00  0.00     0.009 A 
HETATM   36  C   UNL     1      43.627 -20.270   2.497  1.00  0.00     0.001 A 
HETATM   37  C   UNL     1      43.865 -21.090   3.598  1.00  0.00     0.000 A 
HETATM   38  C   UNL     1      44.089 -20.526   4.851  1.00  0.00     0.001 A 
HETATM   39  C   UNL     1      44.076 -19.139   5.008  1.00  0.00     0.009 A 
ENDBRANCH  33  34
ENDBRANCH  29  33
ENDBRANCH   4  26
TORSDOF 10
ENDMDL
MODEL 2
REMARK VINA RESULT:      -8.9      2.349      3.386
REMARK  10 active torsions:
REMARK  status: ('A' for Active; 'I' for Inactive)
REMARK    1  A    between atoms: C_2  and  C_3 
REMARK    2  A    between atoms: C_3  and  O_4 
REMARK    3  A    between atoms: O_4  and  C_5 
REMARK    4  A    between atoms: C_7  and  C_8 
REMARK       I    between atoms: C_8  and  N_9 
REMARK    5  A    between atoms: N_9  and  C_10 
REMARK    6  A    between atoms: C_10  and  N_11 
REMARK    7  A    between atoms: N_11  and  C_12 
REMARK    8  A    between atoms: C_15  and  N_16 
REMARK    9  A    between atoms: N_19  and  C_21 
REMARK   10  A    between atoms: C_21  and  C_22 
ROOT
HETATM    1  C   UNL     1      38.864 -10.887   4.381  1.00  0.00     0.034 A 
HETATM    2  C   UNL     1      39.494 -11.981   4.973  1.00  0.00     0.032 A 
HETATM    3  C   UNL     1      39.927 -13.070   4.203  1.00  0.00     0.031 A 
HETATM    4  C   UNL     1      39.782 -13.110   2.809  1.00  0.00     0.030 A 
HETATM    5  C   UNL     1      39.153 -11.989   2.236  1.00  0.00     0.031 A 
HETATM    6  C   UNL     1      38.695 -10.898   3.005  1.00  0.00     0.032 A 
ENDROOT
BRANCH   1   7
HETATM    7  N   UNL     1      38.336  -9.916   5.259  1.00  0.00    -0.333 N 
HETATM    8  H   UNL     1      37.330  -9.806   5.177  1.00  0.00     0.168 HD
BRANCH   7   9
HETATM    9  C   UNL     1      38.908  -8.839   5.826  1.00  0.00     0.179 C 
HETATM   10  S   UNL     1      38.093  -7.376   5.732  1.00  0.00    -0.040 SA
BRANCH   9  11
HETATM   11  N   UNL     1      40.066  -8.854   6.531  1.00  0.00    -0.299 N 
HETATM   12  C   UNL     1      41.359  -8.875   6.009  1.00  0.00     0.257 C 
HETATM   13  O   UNL     1      41.745  -8.251   5.027  1.00  0.00    -0.267 OA
HETATM   14  H   UNL     1      39.928  -9.463   7.325  1.00  0.00     0.171 HD
BRANCH  12  15
HETATM   15  C   UNL     1      42.344  -9.718   6.763  1.00  0.00     0.035 A 
HETATM   16  C   UNL     1      42.841 -10.937   6.281  1.00  0.00     0.053 A 
HETATM   17  C   UNL     1      43.817 -11.648   6.990  1.00  0.00     0.069 A 
HETATM   18  C   UNL     1      44.285 -11.150   8.204  1.00  0.00     0.037 A 
HETATM   19  C   UNL     1      43.775  -9.952   8.711  1.00  0.00     0.004 A 
HETATM   20  C   UNL     1      42.810  -9.239   7.995  1.00  0.00     0.017 A 
BRANCH  17  21
HETATM   21  O   UNL     1      44.231 -12.798   6.375  1.00  0.00    -0.351 OA
BRANCH  21  22
HETATM   22  C   UNL     1      43.228 -13.740   5.985  1.00  0.00     0.179 C 
BRANCH  22  23
HETATM   23  C   UNL     1      43.226 -14.895   6.999  1.00  0.00     0.002 C 
HETATM   24  C   UNL     1      44.375 -15.861   6.720  1.00  0.00     0.011 C 
HETATM   25  C   UNL     1      41.891 -15.644   6.985  1.00  0.00     0.011 C 
ENDBRANCH  22  23
ENDBRANCH  21  22
ENDBRANCH  17  21
ENDBRANCH  12  15
ENDBRANCH   9  11
ENDBRANCH   7   9
ENDBRANCH   1   7
BRANCH   4  26
HETATM   26  N   UNL     1      40.173 -14.231   2.074  1.00  0.00    -0.378 N 
HETATM   27  C   UNL     1      39.887 -15.580   2.609  1.00  0.00     0.150 C 
HETATM   28  C   UNL     1      41.089 -16.098   3.428  1.00  0.00     0.255 C 
HETATM   29  N   UNL     1      42.364 -16.075   2.576  1.00  0.00    -0.064 N 
HETATM   30  H   UNL     1      42.203 -16.713   1.789  1.00  0.00     0.280 HD
HETATM   31  C   UNL     1      42.609 -14.680   1.992  1.00  0.00     0.255 C 
HETATM   32  C   UNL     1      41.368 -14.200   1.212  1.00  0.00     0.150 C 
BRANCH  29  33
HETATM   33  C   UNL     1      43.569 -16.594   3.320  1.00  0.00     0.273 C 
BRANCH  33  34
HETATM   34  C   UNL     1      43.649 -18.096   3.314  1.00  0.00    -0.033 A 
HETATM   35  C   UNL     1      43.245 -18.825   2.184  1.00  0.00     0.009 A 
HETATM   36  C   UNL     1      43.288 -20.220   2.189  1.00  0.00     0.001 A 
HETATM   37  C   UNL     1      43.731 -20.900   3.321  1.00  0.00     0.000 A 
HETATM   38  C   UNL     1      44.135 -20.189   4.448  1.00  0.00     0.001 A 
HETATM   39  C   UNL     1      44.098 -18.794   4.446  1.00  0.00     0.009 A 
ENDBRANCH  33  34
ENDBRANCH  29  33
ENDBRANCH   4  26
TORSDOF 10
ENDMDL
MODEL 3
REMARK VINA RESULT:      -8.9      2.788      4.483
REMARK  10 active torsions:
REMARK  status: ('A' for Active; 'I' for Inactive)
REMARK    1  A    between atoms: C_2  and  C_3 
REMARK    2  A    between atoms: C_3  and  O_4 
REMARK    3  A    between atoms: O_4  and  C_5 
REMARK    4  A    between atoms: C_7  and  C_8 
REMARK       I    between atoms: C_8  and  N_9 
REMARK    5  A    between atoms: N_9  and  C_10 
REMARK    6  A    between atoms: C_10  and  N_11 
REMARK    7  A    between atoms: N_11  and  C_12 
REMARK    8  A    between atoms: C_15  and  N_16 
REMARK    9  A    between atoms: N_19  and  C_21 
REMARK   10  A    between atoms: C_21  and  C_22 
ROOT
HETATM    1  C   UNL     1      43.025 -10.341   7.093  1.00  0.00     0.034 A 
HETATM    2  C   UNL     1      43.755 -11.521   7.230  1.00  0.00     0.032 A 
HETATM    3  C   UNL     1      43.271 -12.735   6.719  1.00  0.00     0.031 A 
HETATM    4  C   UNL     1      42.056 -12.827   6.025  1.00  0.00     0.030 A 
HETATM    5  C   UNL     1      41.346 -11.620   5.891  1.00  0.00     0.031 A 
HETATM    6  C   UNL     1      41.814 -10.399   6.420  1.00  0.00     0.032 A 
ENDROOT
BRANCH   1   7
HETATM    7  N   UNL     1      43.528  -9.210   7.770  1.00  0.00    -0.333 N 
HETATM    8  H   UNL     1      43.575  -8.381   7.186  1.00  0.00     0.168 HD
BRANCH   7   9
HETATM    9  C   UNL     1      44.345  -9.114   8.835  1.00  0.00     0.179 C 
HETATM   10  S   UNL     1      45.997  -9.035   8.553  1.00  0.00    -0.040 SA
BRANCH   9  11
HETATM   11  N   UNL     1      43.935  -9.007  10.122  1.00  0.00    -0.299 N 
HETATM   12  C   UNL     1      43.521 -10.047  10.954  1.00  0.00     0.257 C 
HETATM   13  O   UNL     1      44.025 -11.163  11.009  1.00  0.00    -0.267 OA
HETATM   14  H   UNL     1      43.373  -8.170  10.192  1.00  0.00     0.171 HD
BRANCH  12  15
HETATM   15  C   UNL     1      42.380  -9.721  11.873  1.00  0.00     0.035 A 
HETATM   16  C   UNL     1      42.555  -9.324  13.205  1.00  0.00     0.053 A 
HETATM   17  C   UNL     1      41.460  -8.958  13.998  1.00  0.00     0.069 A 
HETATM   18  C   UNL     1      40.175  -9.013  13.463  1.00  0.00     0.037 A 
HETATM   19  C   UNL     1      39.984  -9.437  12.146  1.00  0.00     0.004 A 
HETATM   20  C   UNL     1      41.080  -9.789  11.353  1.00  0.00     0.017 A 
BRANCH  17  21
HETATM   21  O   UNL     1      41.792  -8.556  15.262  1.00  0.00    -0.351 OA
BRANCH  21  22
HETATM   22  C   UNL     1      42.029  -7.161  15.474  1.00  0.00     0.179 C 
BRANCH  22  23
HETATM   23  C   UNL     1      41.023  -6.651  16.518  1.00  0.00     0.002 C 
HETATM   24  C   UNL     1      40.696  -7.744  17.533  1.00  0.00     0.011 C 
HETATM   25  C   UNL     1      39.740  -6.148  15.852  1.00  0.00     0.011 C 
ENDBRANCH  22  23
ENDBRANCH  21  22
ENDBRANCH  17  21
ENDBRANCH  12  15
ENDBRANCH   9  11
ENDBRANCH   7   9
ENDBRANCH   1   7
BRANCH   4  26
HETATM   26  N   UNL     1      41.573 -14.058   5.576  1.00  0.00    -0.378 N 
HETATM   27  C   UNL     1      41.430 -15.172   6.538  1.00  0.00     0.150 C 
HETATM   28  C   UNL     1      42.707 -16.040   6.546  1.00  0.00     0.255 C 
HETATM   29  N   UNL     1      43.021 -16.540   5.131  1.00  0.00    -0.064 N 
HETATM   30  H   UNL     1      42.227 -17.123   4.842  1.00  0.00     0.280 HD
HETATM   31  C   UNL     1      43.113 -15.372   4.144  1.00  0.00     0.255 C 
HETATM   32  C   UNL     1      41.826 -14.520   4.199  1.00  0.00     0.150 C 
BRANCH  29  33
HETATM   33  C   UNL     1      44.248 -17.415   5.083  1.00  0.00     0.273 C 
BRANCH  33  34
HETATM   34  C   UNL     1      44.057 -18.631   4.217  1.00  0.00    -0.033 A 
HETATM   35  C   UNL     1      43.731 -18.492   2.859  1.00  0.00     0.009 A 
HETATM   36  C   UNL     1      43.521 -19.619   2.063  1.00  0.00     0.001 A 
HETATM   37  C   UNL     1      43.631 -20.894   2.615  1.00  0.00     0.000 A 
HETATM   38  C   UNL     1      43.955 -21.045   3.961  1.00  0.00     0.001 A 
HETATM   39  C   UNL     1      44.170 -19.920   4.760  1.00  0.00     0.009 A 
ENDBRANCH  33  34
ENDBRANCH  29  33
ENDBRANCH   4  26
TORSDOF 10
ENDMDL
MODEL 4
REMARK VINA RESULT:      -8.8      1.835      3.088
REMARK  10 active torsions:
REMARK  status: ('A' for Active; 'I' for Inactive)
REMARK    1  A    between atoms: C_2  and  C_3 
REMARK    2  A    between atoms: C_3  and  O_4 
REMARK    3  A    between atoms: O_4  and  C_5 
REMARK    4  A    between atoms: C_7  and  C_8 
REMARK       I    between atoms: C_8  and  N_9 
REMARK    5  A    between atoms: N_9  and  C_10 
REMARK    6  A    between atoms: C_10  and  N_11 
REMARK    7  A    between atoms: N_11  and  C_12 
REMARK    8  A    between atoms: C_15  and  N_16 
REMARK    9  A    between atoms: N_19  and  C_21 
REMARK   10  A    between atoms: C_21  and  C_22 
ROOT
HETATM    1  C   UNL     1      38.937 -11.017   4.049  1.00  0.00     0.034 A 
HETATM    2  C   UNL     1      39.248 -10.919   2.694  1.00  0.00     0.032 A 
HETATM    3  C   UNL     1      39.839 -11.991   2.008  1.00  0.00     0.031 A 
HETATM    4  C   UNL     1      40.118 -13.217   2.628  1.00  0.00     0.030 A 
HETATM    5  C   UNL     1      39.784 -13.292   3.992  1.00  0.00     0.031 A 
HETATM    6  C   UNL     1      39.210 -12.213   4.696  1.00  0.00     0.032 A 
ENDROOT
BRANCH   1   7
HETATM    7  N   UNL     1      38.486  -9.836   4.676  1.00  0.00    -0.333 N 
HETATM    8  H   UNL     1      37.747  -9.365   4.163  1.00  0.00     0.168 HD
BRANCH   7   9
HETATM    9  C   UNL     1      39.108  -9.000   5.528  1.00  0.00     0.179 C 
HETATM   10  S   UNL     1      38.389  -7.516   5.837  1.00  0.00    -0.040 SA
BRANCH   9  11
HETATM   11  N   UNL     1      40.242  -9.289   6.212  1.00  0.00    -0.299 N 
HETATM   12  C   UNL     1      41.551  -9.088   5.778  1.00  0.00     0.257 C 
HETATM   13  O   UNL     1      41.956  -8.119   5.146  1.00  0.00    -0.267 OA
HETATM   14  H   UNL     1      40.091 -10.167   6.689  1.00  0.00     0.171 HD
BRANCH  12  15
HETATM   15  C   UNL     1      42.530 -10.157   6.169  1.00  0.00     0.035 A 
HETATM   16  C   UNL     1      43.156 -10.205   7.422  1.00  0.00     0.053 A 
HETATM   17  C   UNL     1      44.004 -11.265   7.764  1.00  0.00     0.069 A 
HETATM   18  C   UNL     1      44.248 -12.277   6.837  1.00  0.00     0.037 A 
HETATM   19  C   UNL     1      43.654 -12.225   5.573  1.00  0.00     0.004 A 
HETATM   20  C   UNL     1      42.799 -11.171   5.239  1.00  0.00     0.017 A 
BRANCH  17  21
HETATM   21  O   UNL     1      44.508 -11.194   9.033  1.00  0.00    -0.351 OA
BRANCH  21  22
HETATM   22  C   UNL     1      45.079  -9.950   9.451  1.00  0.00     0.179 C 
BRANCH  22  23
HETATM   23  C   UNL     1      44.421  -9.536  10.777  1.00  0.00     0.002 C 
HETATM   24  C   UNL     1      43.643 -10.702  11.382  1.00  0.00     0.011 C 
HETATM   25  C   UNL     1      43.500  -8.329  10.586  1.00  0.00     0.011 C 
ENDBRANCH  22  23
ENDBRANCH  21  22
ENDBRANCH  17  21
ENDBRANCH  12  15
ENDBRANCH   9  11
ENDBRANCH   7   9
ENDBRANCH   1   7
BRANCH   4  26
HETATM   26  N   UNL     1      40.757 -14.247   1.934  1.00  0.00    -0.378 N 
HETATM   27  C   UNL     1      40.367 -15.649   2.203  1.00  0.00     0.150 C 
HETATM   28  C   UNL     1      41.274 -16.257   3.294  1.00  0.00     0.255 C 
HETATM   29  N   UNL     1      42.749 -16.138   2.890  1.00  0.00    -0.064 N 
HETATM   30  H   UNL     1      42.862 -16.681   2.027  1.00  0.00     0.280 HD
HETATM   31  C   UNL     1      43.113 -14.685   2.568  1.00  0.00     0.255 C 
HETATM   32  C   UNL     1      42.158 -14.117   1.496  1.00  0.00     0.150 C 
BRANCH  29  33
HETATM   33  C   UNL     1      43.681 -16.739   3.912  1.00  0.00     0.273 C 
BRANCH  33  34
HETATM   34  C   UNL     1      43.733 -18.240   3.834  1.00  0.00    -0.033 A 
HETATM   35  C   UNL     1      44.008 -19.003   4.981  1.00  0.00     0.009 A 
HETATM   36  C   UNL     1      44.089 -20.394   4.902  1.00  0.00     0.001 A 
HETATM   37  C   UNL     1      43.899 -21.036   3.681  1.00  0.00     0.000 A 
HETATM   38  C   UNL     1      43.624 -20.292   2.537  1.00  0.00     0.001 A 
HETATM   39  C   UNL     1      43.538 -18.901   2.611  1.00  0.00     0.009 A 
ENDBRANCH  33  34
ENDBRANCH  29  33
ENDBRANCH   4  26
TORSDOF 10
ENDMDL
MODEL 5
REMARK VINA RESULT:      -8.8      4.608      7.396
REMARK  10 active torsions:
REMARK  status: ('A' for Active; 'I' for Inactive)
REMARK    1  A    between atoms: C_2  and  C_3 
REMARK    2  A    between atoms: C_3  and  O_4 
REMARK    3  A    between atoms: O_4  and  C_5 
REMARK    4  A    between atoms: C_7  and  C_8 
REMARK       I    between atoms: C_8  and  N_9 
REMARK    5  A    between atoms: N_9  and  C_10 
REMARK    6  A    between atoms: C_10  and  N_11 
REMARK    7  A    between atoms: N_11  and  C_12 
REMARK    8  A    between atoms: C_15  and  N_16 
REMARK    9  A    between atoms: N_19  and  C_21 
REMARK   10  A    between atoms: C_21  and  C_22 
ROOT
HETATM    1  C   UNL     1      40.029 -11.053   4.014  1.00  0.00     0.034 A 
HETATM    2  C   UNL     1      41.098 -11.054   4.909  1.00  0.00     0.032 A 
HETATM    3  C   UNL     1      41.455 -12.218   5.607  1.00  0.00     0.031 A 
HETATM    4  C   UNL     1      40.789 -13.438   5.425  1.00  0.00     0.030 A 
HETATM    5  C   UNL     1      39.722 -13.411   4.508  1.00  0.00     0.031 A 
HETATM    6  C   UNL     1      39.341 -12.241   3.818  1.00  0.00     0.032 A 
ENDROOT
BRANCH   1   7
HETATM    7  N   UNL     1      39.660  -9.800   3.480  1.00  0.00    -0.333 N 
HETATM    8  H   UNL     1      38.960  -9.317   4.034  1.00  0.00     0.168 HD
BRANCH   7   9
HETATM    9  C   UNL     1      39.699  -9.336   2.217  1.00  0.00     0.179 C 
HETATM   10  S   UNL     1      39.566  -7.681   1.984  1.00  0.00    -0.040 SA
BRANCH   9  11
HETATM   11  N   UNL     1      39.906 -10.098   1.115  1.00  0.00    -0.299 N 
HETATM   12  C   UNL     1      38.957 -10.455   0.158  1.00  0.00     0.257 C 
HETATM   13  O   UNL     1      38.073  -9.726  -0.280  1.00  0.00    -0.267 OA
HETATM   14  H   UNL     1      40.533 -10.846   1.378  1.00  0.00     0.171 HD
BRANCH  12  15
HETATM   15  C   UNL     1      39.081 -11.848  -0.385  1.00  0.00     0.035 A 
HETATM   16  C   UNL     1      39.921 -12.820   0.177  1.00  0.00     0.053 A 
HETATM   17  C   UNL     1      39.944 -14.128  -0.322  1.00  0.00     0.069 A 
HETATM   18  C   UNL     1      39.138 -14.464  -1.408  1.00  0.00     0.037 A 
HETATM   19  C   UNL     1      38.320 -13.497  -1.996  1.00  0.00     0.004 A 
HETATM   20  C   UNL     1      38.290 -12.196  -1.488  1.00  0.00     0.017 A 
BRANCH  17  21
HETATM   21  O   UNL     1      40.783 -14.971   0.353  1.00  0.00    -0.351 OA
BRANCH  21  22
HETATM   22  C   UNL     1      41.251 -14.553   1.639  1.00  0.00     0.179 C 
BRANCH  22  23
HETATM   23  C   UNL     1      42.783 -14.446   1.588  1.00  0.00     0.002 C 
HETATM   24  C   UNL     1      43.420 -15.834   1.536  1.00  0.00     0.011 C 
HETATM   25  C   UNL     1      43.325 -13.661   2.784  1.00  0.00     0.011 C 
ENDBRANCH  22  23
ENDBRANCH  21  22
ENDBRANCH  17  21
ENDBRANCH  12  15
ENDBRANCH   9  11
ENDBRANCH   7   9
ENDBRANCH   1   7
BRANCH   4  26
HETATM   26  N   UNL     1      41.131 -14.565   6.174  1.00  0.00    -0.378 N 
HETATM   27  C   UNL     1      42.350 -14.534   7.011  1.00  0.00     0.150 C 
HETATM   28  C   UNL     1      43.555 -15.090   6.223  1.00  0.00     0.255 C 
HETATM   29  N   UNL     1      43.250 -16.500   5.704  1.00  0.00    -0.064 N 
HETATM   30  H   UNL     1      43.097 -17.089   6.530  1.00  0.00     0.280 HD
HETATM   31  C   UNL     1      41.956 -16.515   4.885  1.00  0.00     0.255 C 
HETATM   32  C   UNL     1      40.793 -15.922   5.707  1.00  0.00     0.150 C 
BRANCH  29  33
HETATM   33  C   UNL     1      44.405 -17.103   4.945  1.00  0.00     0.273 C 
BRANCH  33  34
HETATM   34  C   UNL     1      44.152 -18.531   4.546  1.00  0.00    -0.033 A 
HETATM   35  C   UNL     1      44.015 -19.529   5.524  1.00  0.00     0.009 A 
HETATM   36  C   UNL     1      43.814 -20.859   5.154  1.00  0.00     0.001 A 
HETATM   37  C   UNL     1      43.750 -21.207   3.807  1.00  0.00     0.000 A 
HETATM   38  C   UNL     1      43.883 -20.227   2.827  1.00  0.00     0.001 A 
HETATM   39  C   UNL     1      44.080 -18.894   3.192  1.00  0.00     0.009 A 
ENDBRANCH  33  34
ENDBRANCH  29  33
ENDBRANCH   4  26
TORSDOF 10
ENDMDL
MODEL 6
REMARK VINA RESULT:      -8.8      3.502     10.235
REMARK  10 active torsions:
REMARK  status: ('A' for Active; 'I' for Inactive)
REMARK    1  A    between atoms: C_2  and  C_3 
REMARK    2  A    between atoms: C_3  and  O_4 
REMARK    3  A    between atoms: O_4  and  C_5 
REMARK    4  A    between atoms: C_7  and  C_8 
REMARK       I    between atoms: C_8  and  N_9 
REMARK    5  A    between atoms: N_9  and  C_10 
REMARK    6  A    between atoms: C_10  and  N_11 
REMARK    7  A    between atoms: N_11  and  C_12 
REMARK    8  A    between atoms: C_15  and  N_16 
REMARK    9  A    between atoms: N_19  and  C_21 
REMARK   10  A    between atoms: C_21  and  C_22 
ROOT
HETATM    1  C   UNL     1      42.121 -11.921   5.024  1.00  0.00     0.034 A 
HETATM    2  C   UNL     1      41.750 -10.599   5.265  1.00  0.00     0.032 A 
HETATM    3  C   UNL     1      42.351  -9.855   6.292  1.00  0.00     0.031 A 
HETATM    4  C   UNL     1      43.367 -10.379   7.104  1.00  0.00     0.030 A 
HETATM    5  C   UNL     1      43.729 -11.711   6.832  1.00  0.00     0.031 A 
HETATM    6  C   UNL     1      43.116 -12.474   5.816  1.00  0.00     0.032 A 
ENDROOT
BRANCH   1   7
HETATM    7  N   UNL     1      41.354 -12.624   4.071  1.00  0.00    -0.333 N 
HETATM    8  H   UNL     1      40.667 -13.245   4.487  1.00  0.00     0.168 HD
BRANCH   7   9
HETATM    9  C   UNL     1      41.632 -12.972   2.801  1.00  0.00     0.179 C 
HETATM   10  S   UNL     1      41.248 -11.881   1.586  1.00  0.00    -0.040 SA
BRANCH   9  11
HETATM   11  N   UNL     1      42.263 -14.112   2.428  1.00  0.00    -0.299 N 
HETATM   12  C   UNL     1      41.696 -15.380   2.316  1.00  0.00     0.257 C 
HETATM   13  O   UNL     1      40.581 -15.629   1.871  1.00  0.00    -0.267 OA
HETATM   14  H   UNL     1      43.180 -14.102   2.853  1.00  0.00     0.171 HD
BRANCH  12  15
HETATM   15  C   UNL     1      42.570 -16.518   2.754  1.00  0.00     0.035 A 
HETATM   16  C   UNL     1      43.429 -16.446   3.860  1.00  0.00     0.053 A 
HETATM   17  C   UNL     1      44.168 -17.561   4.272  1.00  0.00     0.069 A 
HETATM   18  C   UNL     1      44.067 -18.755   3.560  1.00  0.00     0.037 A 
HETATM   19  C   UNL     1      43.238 -18.831   2.438  1.00  0.00     0.004 A 
HETATM   20  C   UNL     1      42.492 -17.720   2.036  1.00  0.00     0.017 A 
BRANCH  17  21
HETATM   21  O   UNL     1      44.930 -17.349   5.388  1.00  0.00    -0.351 OA
BRANCH  21  22
HETATM   22  C   UNL     1      44.616 -16.212   6.199  1.00  0.00     0.179 C 
BRANCH  22  23
HETATM   23  C   UNL     1      43.751 -16.683   7.379  1.00  0.00     0.002 C 
HETATM   24  C   UNL     1      43.369 -18.153   7.218  1.00  0.00     0.011 C 
HETATM   25  C   UNL     1      42.493 -15.823   7.523  1.00  0.00     0.011 C 
ENDBRANCH  22  23
ENDBRANCH  21  22
ENDBRANCH  17  21
ENDBRANCH  12  15
ENDBRANCH   9  11
ENDBRANCH   7   9
ENDBRANCH   1   7
BRANCH   4  26
HETATM   26  N   UNL     1      43.908  -9.634   8.153  1.00  0.00    -0.378 N 
HETATM   27  C   UNL     1      44.750 -10.313   9.163  1.00  0.00     0.150 C 
HETATM   28  C   UNL     1      43.889 -10.770  10.359  1.00  0.00     0.255 C 
HETATM   29  N   UNL     1      43.126  -9.580  10.954  1.00  0.00    -0.064 N 
HETATM   30  H   UNL     1      43.833  -8.917  11.291  1.00  0.00     0.280 HD
HETATM   31  C   UNL     1      42.303  -8.864   9.879  1.00  0.00     0.255 C 
HETATM   32  C   UNL     1      43.205  -8.456   8.694  1.00  0.00     0.150 C 
BRANCH  29  33
HETATM   33  C   UNL     1      42.284  -9.966  12.144  1.00  0.00     0.273 C 
BRANCH  33  34
HETATM   34  C   UNL     1      42.320  -8.932  13.236  1.00  0.00    -0.033 A 
HETATM   35  C   UNL     1      43.266  -7.895  13.203  1.00  0.00     0.009 A 
HETATM   36  C   UNL     1      43.322  -6.955  14.233  1.00  0.00     0.001 A 
HETATM   37  C   UNL     1      42.437  -7.042  15.306  1.00  0.00     0.000 A 
HETATM   38  C   UNL     1      41.493  -8.064  15.349  1.00  0.00     0.001 A 
HETATM   39  C   UNL     1      41.431  -9.004  14.320  1.00  0.00     0.009 A 
ENDBRANCH  33  34
ENDBRANCH  29  33
ENDBRANCH   4  26
TORSDOF 10
ENDMDL
MODEL 7
REMARK VINA RESULT:      -8.8      3.410     10.178
REMARK  10 active torsions:
REMARK  status: ('A' for Active; 'I' for Inactive)
REMARK    1  A    between atoms: C_2  and  C_3 
REMARK    2  A    between atoms: C_3  and  O_4 
REMARK    3  A    between atoms: O_4  and  C_5 
REMARK    4  A    between atoms: C_7  and  C_8 
REMARK       I    between atoms: C_8  and  N_9 
REMARK    5  A    between atoms: N_9  and  C_10 
REMARK    6  A    between atoms: C_10  and  N_11 
REMARK    7  A    between atoms: N_11  and  C_12 
REMARK    8  A    between atoms: C_15  and  N_16 
REMARK    9  A    between atoms: N_19  and  C_21 
REMARK   10  A    between atoms: C_21  and  C_22 
ROOT
HETATM    1  C   UNL     1      42.067 -10.667   5.411  1.00  0.00     0.034 A 
HETATM    2  C   UNL     1      41.638  -9.450   5.937  1.00  0.00     0.032 A 
HETATM    3  C   UNL     1      42.294  -8.863   7.030  1.00  0.00     0.031 A 
HETATM    4  C   UNL     1      43.421  -9.441   7.629  1.00  0.00     0.030 A 
HETATM    5  C   UNL     1      43.840 -10.663   7.071  1.00  0.00     0.031 A 
HETATM    6  C   UNL     1      43.174 -11.272   5.986  1.00  0.00     0.032 A 
ENDROOT
BRANCH   1   7
HETATM    7  N   UNL     1      41.251 -11.242   4.413  1.00  0.00    -0.333 N 
HETATM    8  H   UNL     1      40.258 -11.121   4.587  1.00  0.00     0.168 HD
BRANCH   7   9
HETATM    9  C   UNL     1      41.485 -12.259   3.563  1.00  0.00     0.179 C 
HETATM   10  S   UNL     1      41.613 -11.902   1.929  1.00  0.00    -0.040 SA
BRANCH   9  11
HETATM   11  N   UNL     1      41.695 -13.546   3.931  1.00  0.00    -0.299 N 
HETATM   12  C   UNL     1      41.242 -14.165   5.095  1.00  0.00     0.257 C 
HETATM   13  O   UNL     1      40.144 -13.998   5.614  1.00  0.00    -0.267 OA
HETATM   14  H   UNL     1      42.643 -13.783   3.676  1.00  0.00     0.171 HD
BRANCH  12  15
HETATM   15  C   UNL     1      42.196 -15.141   5.719  1.00  0.00     0.035 A 
HETATM   16  C   UNL     1      42.961 -16.050   4.976  1.00  0.00     0.053 A 
HETATM   17  C   UNL     1      43.893 -16.887   5.601  1.00  0.00     0.069 A 
HETATM   18  C   UNL     1      44.045 -16.835   6.985  1.00  0.00     0.037 A 
HETATM   19  C   UNL     1      43.266 -15.955   7.741  1.00  0.00     0.004 A 
HETATM   20  C   UNL     1      42.346 -15.112   7.113  1.00  0.00     0.017 A 
BRANCH  17  21
HETATM   21  O   UNL     1      44.592 -17.690   4.742  1.00  0.00    -0.351 OA
BRANCH  21  22
HETATM   22  C   UNL     1      43.980 -18.919   4.336  1.00  0.00     0.179 C 
BRANCH  22  23
HETATM   23  C   UNL     1      43.944 -18.959   2.800  1.00  0.00     0.002 C 
HETATM   24  C   UNL     1      42.828 -18.065   2.262  1.00  0.00     0.011 C 
HETATM   25  C   UNL     1      43.768 -20.390   2.287  1.00  0.00     0.011 C 
ENDBRANCH  22  23
ENDBRANCH  21  22
ENDBRANCH  17  21
ENDBRANCH  12  15
ENDBRANCH   9  11
ENDBRANCH   7   9
ENDBRANCH   1   7
BRANCH   4  26
HETATM   26  N   UNL     1      44.020  -8.862   8.750  1.00  0.00    -0.378 N 
HETATM   27  C   UNL     1      44.881  -9.693   9.619  1.00  0.00     0.150 C 
HETATM   28  C   UNL     1      44.052 -10.296  10.774  1.00  0.00     0.255 C 
HETATM   29  N   UNL     1      43.343  -9.187  11.559  1.00  0.00    -0.064 N 
HETATM   30  H   UNL     1      44.079  -8.592  11.957  1.00  0.00     0.280 HD
HETATM   31  C   UNL     1      42.500  -8.309  10.628  1.00  0.00     0.255 C 
HETATM   32  C   UNL     1      43.368  -7.758   9.477  1.00  0.00     0.150 C 
BRANCH  29  33
HETATM   33  C   UNL     1      42.536  -9.718  12.716  1.00  0.00     0.273 C 
BRANCH  33  34
HETATM   34  C   UNL     1      42.340  -8.696  13.803  1.00  0.00    -0.033 A 
HETATM   35  C   UNL     1      43.211  -7.600  13.912  1.00  0.00     0.009 A 
HETATM   36  C   UNL     1      43.051  -6.669  14.940  1.00  0.00     0.001 A 
HETATM   37  C   UNL     1      42.023  -6.824  15.868  1.00  0.00     0.000 A 
HETATM   38  C   UNL     1      41.152  -7.906  15.769  1.00  0.00     0.001 A 
HETATM   39  C   UNL     1      41.306  -8.837  14.741  1.00  0.00     0.009 A 
ENDBRANCH  33  34
ENDBRANCH  29  33
ENDBRANCH   4  26
TORSDOF 10
ENDMDL
MODEL 8
REMARK VINA RESULT:      -8.8      2.084      2.956
REMARK  10 active torsions:
REMARK  status: ('A' for Active; 'I' for Inactive)
REMARK    1  A    between atoms: C_2  and  C_3 
REMARK    2  A    between atoms: C_3  and  O_4 
REMARK    3  A    between atoms: O_4  and  C_5 
REMARK    4  A    between atoms: C_7  and  C_8 
REMARK       I    between atoms: C_8  and  N_9 
REMARK    5  A    between atoms: N_9  and  C_10 
REMARK    6  A    between atoms: C_10  and  N_11 
REMARK    7  A    between atoms: N_11  and  C_12 
REMARK    8  A    between atoms: C_15  and  N_16 
REMARK    9  A    between atoms: N_19  and  C_21 
REMARK   10  A    between atoms: C_21  and  C_22 
ROOT
HETATM    1  C   UNL     1      39.942  -9.127   6.054  1.00  0.00     0.034 A 
HETATM    2  C   UNL     1      39.587 -10.139   6.945  1.00  0.00     0.032 A 
HETATM    3  C   UNL     1      39.548 -11.481   6.538  1.00  0.00     0.031 A 
HETATM    4  C   UNL     1      39.889 -11.882   5.238  1.00  0.00     0.030 A 
HETATM    5  C   UNL     1      40.254 -10.843   4.363  1.00  0.00     0.031 A 
HETATM    6  C   UNL     1      40.276  -9.489   4.757  1.00  0.00     0.032 A 
ENDROOT
BRANCH   1   7
HETATM    7  N   UNL     1      39.805  -7.803   6.521  1.00  0.00    -0.333 N 
HETATM    8  H   UNL     1      40.044  -7.104   5.824  1.00  0.00     0.168 HD
BRANCH   7   9
HETATM    9  C   UNL     1      39.862  -7.300   7.768  1.00  0.00     0.179 C 
HETATM   10  S   UNL     1      38.510  -6.500   8.354  1.00  0.00    -0.040 SA
BRANCH   9  11
HETATM   11  N   UNL     1      40.908  -7.447   8.618  1.00  0.00    -0.299 N 
HETATM   12  C   UNL     1      42.262  -7.383   8.293  1.00  0.00     0.257 C 
HETATM   13  O   UNL     1      42.772  -6.597   7.503  1.00  0.00    -0.267 OA
HETATM   14  H   UNL     1      40.669  -8.186   9.264  1.00  0.00     0.171 HD
BRANCH  12  15
HETATM   15  C   UNL     1      43.145  -8.353   9.021  1.00  0.00     0.035 A 
HETATM   16  C   UNL     1      43.810  -9.413   8.388  1.00  0.00     0.053 A 
HETATM   17  C   UNL     1      44.683 -10.244   9.100  1.00  0.00     0.069 A 
HETATM   18  C   UNL     1      44.877 -10.031  10.463  1.00  0.00     0.037 A 
HETATM   19  C   UNL     1      44.197  -8.997  11.112  1.00  0.00     0.004 A 
HETATM   20  C   UNL     1      43.336  -8.162  10.397  1.00  0.00     0.017 A 
BRANCH  17  21
HETATM   21  O   UNL     1      45.286 -11.207   8.339  1.00  0.00    -0.351 OA
BRANCH  21  22
HETATM   22  C   UNL     1      45.575 -10.891   6.974  1.00  0.00     0.179 C 
BRANCH  22  23
HETATM   23  C   UNL     1      44.895 -11.939   6.078  1.00  0.00     0.002 C 
HETATM   24  C   UNL     1      43.826 -11.290   5.203  1.00  0.00     0.011 C 
HETATM   25  C   UNL     1      44.283 -13.067   6.911  1.00  0.00     0.011 C 
ENDBRANCH  22  23
ENDBRANCH  21  22
ENDBRANCH  17  21
ENDBRANCH  12  15
ENDBRANCH   9  11
ENDBRANCH   7   9
ENDBRANCH   1   7
BRANCH   4  26
HETATM   26  N   UNL     1      39.788 -13.219   4.846  1.00  0.00    -0.378 N 
HETATM   27  C   UNL     1      40.073 -14.284   5.832  1.00  0.00     0.150 C 
HETATM   28  C   UNL     1      41.556 -14.708   5.749  1.00  0.00     0.255 C 
HETATM   29  N   UNL     1      41.909 -15.137   4.320  1.00  0.00    -0.064 N 
HETATM   30  H   UNL     1      41.321 -15.950   4.104  1.00  0.00     0.280 HD
HETATM   31  C   UNL     1      41.557 -14.037   3.314  1.00  0.00     0.255 C 
HETATM   32  C   UNL     1      40.075 -13.631   3.460  1.00  0.00     0.150 C 
BRANCH  29  33
HETATM   33  C   UNL     1      43.343 -15.584   4.186  1.00  0.00     0.273 C 
BRANCH  33  34
HETATM   34  C   UNL     1      43.462 -17.034   3.801  1.00  0.00    -0.033 A 
HETATM   35  C   UNL     1      44.109 -17.945   4.652  1.00  0.00     0.009 A 
HETATM   36  C   UNL     1      44.249 -19.283   4.281  1.00  0.00     0.001 A 
HETATM   37  C   UNL     1      43.749 -19.724   3.058  1.00  0.00     0.000 A 
HETATM   38  C   UNL     1      43.105 -18.831   2.206  1.00  0.00     0.001 A 
HETATM   39  C   UNL     1      42.958 -17.493   2.574  1.00  0.00     0.009 A 
ENDBRANCH  33  34
ENDBRANCH  29  33
ENDBRANCH   4  26
TORSDOF 10
ENDMDL
MODEL 9
REMARK VINA RESULT:      -8.7      2.394      4.260
REMARK  10 active torsions:
REMARK  status: ('A' for Active; 'I' for Inactive)
REMARK    1  A    between atoms: C_2  and  C_3 
REMARK    2  A    between atoms: C_3  and  O_4 
REMARK    3  A    between atoms: O_4  and  C_5 
REMARK    4  A    between atoms: C_7  and  C_8 
REMARK       I    between atoms: C_8  and  N_9 
REMARK    5  A    between atoms: N_9  and  C_10 
REMARK    6  A    between atoms: C_10  and  N_11 
REMARK    7  A    between atoms: N_11  and  C_12 
REMARK    8  A    between atoms: C_15  and  N_16 
REMARK    9  A    between atoms: N_19  and  C_21 
REMARK   10  A    between atoms: C_21  and  C_22 
ROOT
HETATM    1  C   UNL     1      40.007  -9.526   6.342  1.00  0.00     0.034 A 
HETATM    2  C   UNL     1      39.095 -10.286   5.611  1.00  0.00     0.032 A 
HETATM    3  C   UNL     1      39.363 -10.657   4.284  1.00  0.00     0.031 A 
HETATM    4  C   UNL     1      40.557 -10.315   3.635  1.00  0.00     0.030 A 
HETATM    5  C   UNL     1      41.463  -9.557   4.399  1.00  0.00     0.031 A 
HETATM    6  C   UNL     1      41.195  -9.162   5.726  1.00  0.00     0.032 A 
ENDROOT
BRANCH   1   7
HETATM    7  N   UNL     1      39.578  -9.082   7.611  1.00  0.00    -0.333 N 
HETATM    8  H   UNL     1      38.999  -8.249   7.571  1.00  0.00     0.168 HD
BRANCH   7   9
HETATM    9  C   UNL     1      40.119  -9.251   8.831  1.00  0.00     0.179 C 
HETATM   10  S   UNL     1      39.149  -8.957  10.168  1.00  0.00    -0.040 SA
BRANCH   9  11
HETATM   11  N   UNL     1      41.373  -9.707   9.069  1.00  0.00    -0.299 N 
HETATM   12  C   UNL     1      42.520  -8.936   9.249  1.00  0.00     0.257 C 
HETATM   13  O   UNL     1      42.584  -7.881   9.869  1.00  0.00    -0.267 OA
HETATM   14  H   UNL     1      41.509 -10.528   8.496  1.00  0.00     0.171 HD
BRANCH  12  15
HETATM   15  C   UNL     1      43.775  -9.497   8.645  1.00  0.00     0.035 A 
HETATM   16  C   UNL     1      43.796 -10.654   7.854  1.00  0.00     0.053 A 
HETATM   17  C   UNL     1      44.982 -11.093   7.252  1.00  0.00     0.069 A 
HETATM   18  C   UNL     1      46.163 -10.384   7.462  1.00  0.00     0.037 A 
HETATM   19  C   UNL     1      46.161  -9.247   8.273  1.00  0.00     0.004 A 
HETATM   20  C   UNL     1      44.974  -8.805   8.862  1.00  0.00     0.017 A 
BRANCH  17  21
HETATM   21  O   UNL     1      44.838 -12.212   6.479  1.00  0.00    -0.351 OA
BRANCH  21  22
HETATM   22  C   UNL     1      43.856 -12.177   5.438  1.00  0.00     0.179 C 
BRANCH  22  23
HETATM   23  C   UNL     1      43.036 -13.475   5.500  1.00  0.00     0.002 C 
HETATM   24  C   UNL     1      41.583 -13.180   5.864  1.00  0.00     0.011 C 
HETATM   25  C   UNL     1      43.640 -14.465   6.499  1.00  0.00     0.011 C 
ENDBRANCH  22  23
ENDBRANCH  21  22
ENDBRANCH  17  21
ENDBRANCH  12  15
ENDBRANCH   9  11
ENDBRANCH   7   9
ENDBRANCH   1   7
BRANCH   4  26
HETATM   26  N   UNL     1      40.772 -10.651   2.296  1.00  0.00    -0.378 N 
HETATM   27  C   UNL     1      39.611 -10.959   1.434  1.00  0.00     0.150 C 
HETATM   28  C   UNL     1      39.332 -12.477   1.434  1.00  0.00     0.255 C 
HETATM   29  N   UNL     1      40.585 -13.251   1.008  1.00  0.00    -0.064 N 
HETATM   30  H   UNL     1      40.801 -12.955   0.050  1.00  0.00     0.280 HD
HETATM   31  C   UNL     1      41.785 -12.875   1.884  1.00  0.00     0.255 C 
HETATM   32  C   UNL     1      42.000 -11.347   1.873  1.00  0.00     0.150 C 
BRANCH  29  33
HETATM   33  C   UNL     1      40.362 -14.742   0.968  1.00  0.00     0.273 C 
BRANCH  33  34
HETATM   34  C   UNL     1      41.167 -15.474   2.007  1.00  0.00    -0.033 A 
HETATM   35  C   UNL     1      42.470 -15.912   1.718  1.00  0.00     0.009 A 
HETATM   36  C   UNL     1      43.204 -16.621   2.670  1.00  0.00     0.001 A 
HETATM   37  C   UNL     1      42.647 -16.903   3.915  1.00  0.00     0.000 A 
HETATM   38  C   UNL     1      41.356 -16.473   4.214  1.00  0.00     0.001 A 
HETATM   39  C   UNL     1      40.619 -15.760   3.267  1.00  0.00     0.009 A 
ENDBRANCH  33  34
ENDBRANCH  29  33
ENDBRANCH   4  26
TORSDOF 10
ENDMDL
MODEL 10
REMARK VINA RESULT:      -8.6      1.699      3.103
REMARK  10 active torsions:
REMARK  status: ('A' for Active; 'I' for Inactive)
REMARK    1  A    between atoms: C_2  and  C_3 
REMARK    2  A    between atoms: C_3  and  O_4 
REMARK    3  A    between atoms: O_4  and  C_5 
REMARK    4  A    between atoms: C_7  and  C_8 
REMARK       I    between atoms: C_8  and  N_9 
REMARK    5  A    between atoms: N_9  and  C_10 
REMARK    6  A    between atoms: C_10  and  N_11 
REMARK    7  A    between atoms: N_11  and  C_12 
REMARK    8  A    between atoms: C_15  and  N_16 
REMARK    9  A    between atoms: N_19  and  C_21 
REMARK   10  A    between atoms: C_21  and  C_22 
ROOT
HETATM    1  C   UNL     1      41.289  -9.863   4.770  1.00  0.00     0.034 A 
HETATM    2  C   UNL     1      41.953 -10.930   5.375  1.00  0.00     0.032 A 
HETATM    3  C   UNL     1      41.872 -12.226   4.845  1.00  0.00     0.031 A 
HETATM    4  C   UNL     1      41.155 -12.517   3.676  1.00  0.00     0.030 A 
HETATM    5  C   UNL     1      40.505 -11.421   3.080  1.00  0.00     0.031 A 
HETATM    6  C   UNL     1      40.563 -10.117   3.617  1.00  0.00     0.032 A 
ENDROOT
BRANCH   1   7
HETATM    7  N   UNL     1      41.313  -8.635   5.464  1.00  0.00    -0.333 N 
HETATM    8  H   UNL     1      42.174  -8.113   5.329  1.00  0.00     0.168 HD
BRANCH   7   9
HETATM    9  C   UNL     1      40.663  -8.240   6.574  1.00  0.00     0.179 C 
HETATM   10  S   UNL     1      39.047  -7.817   6.429  1.00  0.00    -0.040 SA
BRANCH   9  11
HETATM   11  N   UNL     1      41.195  -8.219   7.821  1.00  0.00    -0.299 N 
HETATM   12  C   UNL     1      42.509  -7.897   8.161  1.00  0.00     0.257 C 
HETATM   13  O   UNL     1      43.182  -7.007   7.655  1.00  0.00    -0.267 OA
HETATM   14  H   UNL     1      40.817  -9.009   8.324  1.00  0.00     0.171 HD
BRANCH  12  15
HETATM   15  C   UNL     1      43.103  -8.711   9.273  1.00  0.00     0.035 A 
HETATM   16  C   UNL     1      42.391  -9.079  10.423  1.00  0.00     0.053 A 
HETATM   17  C   UNL     1      42.969  -9.903  11.396  1.00  0.00     0.069 A 
HETATM   18  C   UNL     1      44.280 -10.345  11.232  1.00  0.00     0.037 A 
HETATM   19  C   UNL     1      45.011  -9.961  10.106  1.00  0.00     0.004 A 
HETATM   20  C   UNL     1      44.427  -9.148   9.130  1.00  0.00     0.017 A 
BRANCH  17  21
HETATM   21  O   UNL     1      42.138 -10.207  12.439  1.00  0.00    -0.351 OA
BRANCH  21  22
HETATM   22  C   UNL     1      41.438  -9.128  13.066  1.00  0.00     0.179 C 
BRANCH  22  23
HETATM   23  C   UNL     1      42.285  -8.618  14.243  1.00  0.00     0.002 C 
HETATM   24  C   UNL     1      41.399  -8.275  15.438  1.00  0.00     0.011 C 
HETATM   25  C   UNL     1      43.120  -7.401  13.839  1.00  0.00     0.011 C 
ENDBRANCH  22  23
ENDBRANCH  21  22
ENDBRANCH  17  21
ENDBRANCH  12  15
ENDBRANCH   9  11
ENDBRANCH   7   9
ENDBRANCH   1   7
BRANCH   4  26
HETATM   26  N   UNL     1      41.046 -13.826   3.202  1.00  0.00    -0.378 N 
HETATM   27  C   UNL     1      40.543 -14.882   4.107  1.00  0.00     0.150 C 
HETATM   28  C   UNL     1      41.719 -15.581   4.822  1.00  0.00     0.255 C 
HETATM   29  N   UNL     1      42.717 -16.131   3.795  1.00  0.00    -0.064 N 
HETATM   30  H   UNL     1      42.209 -16.827   3.237  1.00  0.00     0.280 HD
HETATM   31  C   UNL     1      43.183 -15.029   2.839  1.00  0.00     0.255 C 
HETATM   32  C   UNL     1      41.969 -14.345   2.176  1.00  0.00     0.150 C 
BRANCH  29  33
HETATM   33  C   UNL     1      43.877 -16.846   4.439  1.00  0.00     0.273 C 
BRANCH  33  34
HETATM   34  C   UNL     1      43.896 -18.318   4.125  1.00  0.00    -0.033 A 
HETATM   35  C   UNL     1      43.713 -18.765   2.806  1.00  0.00     0.009 A 
HETATM   36  C   UNL     1      43.697 -20.131   2.519  1.00  0.00     0.001 A 
HETATM   37  C   UNL     1      43.858 -21.062   3.543  1.00  0.00     0.000 A 
HETATM   38  C   UNL     1      44.041 -20.630   4.854  1.00  0.00     0.001 A 
HETATM   39  C   UNL     1      44.063 -19.266   5.146  1.00  0.00     0.009 A 
ENDBRANCH  33  34
ENDBRANCH  29  33
ENDBRANCH   4  26
TORSDOF 10
ENDMDL
