MODEL 1
REMARK VINA RESULT:      -9.0      0.000      0.000
REMARK  7 active torsions:
REMARK  status: ('A' for Active; 'I' for Inactive)
REMARK    1  A    between atoms: C_2  and  C_3 
REMARK    2  A    between atoms: C_3  and  N_4 
REMARK       I    between atoms: N_4  and  C_5 
REMARK    3  A    between atoms: C_5  and  C_6 
REMARK    4  A    between atoms: C_7  and  N_8 
REMARK    5  A    between atoms: N_9  and  N_10 
REMARK    6  A    between atoms: C_11  and  C_12 
REMARK    7  A    between atoms: C_13  and  O_14 
ROOT
HETATM    1  C   UNL     1      41.166 -14.423   4.448  1.00  0.00     0.110 C 
HETATM    2  C   UNL     1      40.203 -14.212   3.477  1.00  0.00     0.143 C 
HETATM    3  N   UNL     1      40.426 -15.094   2.425  1.00  0.00    -0.197 N 
HETATM    4  C   UNL     1      41.356 -16.033   2.849  1.00  0.00     0.183 A 
HETATM    5  C   UNL     1      41.863 -15.593   4.069  1.00  0.00     0.125 A 
HETATM    6  N   UNL     1      42.860 -16.259   4.707  1.00  0.00    -0.242 NA
HETATM    7  C   UNL     1      43.248 -17.399   4.110  1.00  0.00     0.086 A 
HETATM    8  C   UNL     1      42.698 -17.845   2.879  1.00  0.00     0.088 A 
HETATM    9  N   UNL     1      41.759 -17.158   2.209  1.00  0.00    -0.225 NA
HETATM   10  C   UNL     1      44.220 -18.174   4.730  1.00  0.00     0.034 A 
HETATM   11  C   UNL     1      44.658 -19.378   4.177  1.00  0.00     0.002 A 
HETATM   12  C   UNL     1      44.118 -19.816   2.977  1.00  0.00     0.002 A 
HETATM   13  C   UNL     1      43.146 -19.045   2.340  1.00  0.00     0.034 A 
ENDROOT
BRANCH   3  14
HETATM   14  N   UNL     1      39.832 -14.861   1.204  1.00  0.00    -0.176 NA
HETATM   15  C   UNL     1      40.574 -14.490   0.215  1.00  0.00     0.153 C 
BRANCH  15  16
HETATM   16  C   UNL     1      39.938 -14.038  -1.046  1.00  0.00     0.017 A 
HETATM   17  C   UNL     1      39.050 -14.858  -1.759  1.00  0.00     0.077 A 
HETATM   18  C   UNL     1      38.403 -14.379  -2.894  1.00  0.00     0.039 A 
HETATM   19  C   UNL     1      38.636 -13.073  -3.325  1.00  0.00     0.022 A 
HETATM   20  C   UNL     1      39.521 -12.258  -2.617  1.00  0.00     0.012 A 
HETATM   21 BR   UNL     1      39.823 -10.484  -3.198  1.00  0.00    -0.051 Br
HETATM   22  C   UNL     1      40.175 -12.730  -1.477  1.00  0.00     0.034 A 
BRANCH  17  23
HETATM   23  O   UNL     1      38.745 -16.136  -1.378  1.00  0.00    -0.360 OA
HETATM   24  H   UNL     1      39.196 -16.295  -0.518  1.00  0.00     0.217 HD
ENDBRANCH  17  23
ENDBRANCH  15  16
ENDBRANCH   3  14
BRANCH   2  25
HETATM   25  N   UNL     1      39.240 -13.253   3.406  1.00  0.00    -0.383 N 
HETATM   26  H   UNL     1      38.302 -13.532   3.104  1.00  0.00     0.157 HD
HETATM   27  H   UNL     1      39.492 -12.319   3.084  1.00  0.00     0.157 HD
ENDBRANCH   2  25
BRANCH   1  28
HETATM   28  C   UNL     1      41.378 -13.543   5.578  1.00  0.00     0.258 C 
HETATM   29  N   UNL     1      42.704 -13.215   5.778  1.00  0.00    -0.352 N 
HETATM   30  H   UNL     1      43.376 -13.622   5.141  1.00  0.00     0.163 HD
HETATM   31  O   UNL     1      40.450 -13.020   6.189  1.00  0.00    -0.267 OA
BRANCH  29  32
HETATM   32  C   UNL     1      43.065 -11.976   6.453  1.00  0.00     0.080 C 
HETATM   33  C   UNL     1      43.181 -10.836   5.433  1.00  0.00     0.032 C 
BRANCH  32  34
HETATM   34  C   UNL     1      44.394 -12.126   7.208  1.00  0.00     0.020 C 
HETATM   35  C   UNL     1      45.533 -11.353   6.561  1.00  0.00     0.007 C 
ENDBRANCH  32  34
ENDBRANCH  29  32
ENDBRANCH   1  28
TORSDOF 7
ENDMDL
MODEL 2
REMARK VINA RESULT:      -8.8      1.968      2.287
REMARK  7 active torsions:
REMARK  status: ('A' for Active; 'I' for Inactive)
REMARK    1  A    between atoms: C_2  and  C_3 
REMARK    2  A    between atoms: C_3  and  N_4 
REMARK       I    between atoms: N_4  and  C_5 
REMARK    3  A    between atoms: C_5  and  C_6 
REMARK    4  A    between atoms: C_7  and  N_8 
REMARK    5  A    between atoms: N_9  and  N_10 
REMARK    6  A    between atoms: C_11  and  C_12 
REMARK    7  A    between atoms: C_13  and  O_14 
ROOT
HETATM    1  C   UNL     1      43.032 -14.322   5.126  1.00  0.00     0.110 C 
HETATM    2  C   UNL     1      42.299 -13.571   4.224  1.00  0.00     0.143 C 
HETATM    3  N   UNL     1      42.192 -14.281   3.031  1.00  0.00    -0.197 N 
HETATM    4  C   UNL     1      42.625 -15.578   3.270  1.00  0.00     0.183 A 
HETATM    5  C   UNL     1      43.200 -15.596   4.539  1.00  0.00     0.125 A 
HETATM    6  N   UNL     1      43.794 -16.713   5.034  1.00  0.00    -0.242 NA
HETATM    7  C   UNL     1      43.706 -17.796   4.243  1.00  0.00     0.086 A 
HETATM    8  C   UNL     1      43.090 -17.763   2.965  1.00  0.00     0.088 A 
HETATM    9  N   UNL     1      42.559 -16.647   2.440  1.00  0.00    -0.225 NA
HETATM   10  C   UNL     1      44.234 -18.996   4.703  1.00  0.00     0.034 A 
HETATM   11  C   UNL     1      44.162 -20.165   3.943  1.00  0.00     0.002 A 
HETATM   12  C   UNL     1      43.556 -20.134   2.696  1.00  0.00     0.002 A 
HETATM   13  C   UNL     1      43.028 -18.934   2.219  1.00  0.00     0.034 A 
ENDROOT
BRANCH   3  14
HETATM   14  N   UNL     1      41.817 -13.624   1.880  1.00  0.00    -0.176 NA
HETATM   15  C   UNL     1      40.660 -13.882   1.369  1.00  0.00     0.153 C 
BRANCH  15  16
HETATM   16  C   UNL     1      40.317 -13.346   0.030  1.00  0.00     0.017 A 
HETATM   17  C   UNL     1      40.773 -12.090  -0.400  1.00  0.00     0.077 A 
HETATM   18  C   UNL     1      40.506 -11.646  -1.692  1.00  0.00     0.039 A 
HETATM   19  C   UNL     1      39.784 -12.457  -2.567  1.00  0.00     0.022 A 
HETATM   20  C   UNL     1      39.329 -13.705  -2.139  1.00  0.00     0.012 A 
HETATM   21 BR   UNL     1      38.362 -14.806  -3.334  1.00  0.00    -0.051 Br
HETATM   22  C   UNL     1      39.592 -14.159  -0.845  1.00  0.00     0.034 A 
BRANCH  17  23
HETATM   23  O   UNL     1      41.515 -11.255   0.389  1.00  0.00    -0.360 OA
HETATM   24  H   UNL     1      41.989 -10.637  -0.212  1.00  0.00     0.217 HD
ENDBRANCH  17  23
ENDBRANCH  15  16
ENDBRANCH   3  14
BRANCH   2  25
HETATM   25  N   UNL     1      41.826 -12.300   4.336  1.00  0.00    -0.383 N 
HETATM   26  H   UNL     1      41.079 -12.121   5.013  1.00  0.00     0.157 HD
HETATM   27  H   UNL     1      41.738 -11.727   3.497  1.00  0.00     0.157 HD
ENDBRANCH   2  25
BRANCH   1  28
HETATM   28  C   UNL     1      43.528 -13.808   6.386  1.00  0.00     0.258 C 
HETATM   29  N   UNL     1      44.332 -12.695   6.248  1.00  0.00    -0.352 N 
HETATM   30  H   UNL     1      44.500 -12.367   5.306  1.00  0.00     0.163 HD
HETATM   31  O   UNL     1      43.134 -14.232   7.469  1.00  0.00    -0.267 OA
BRANCH  29  32
HETATM   32  C   UNL     1      44.464 -11.738   7.338  1.00  0.00     0.080 C 
HETATM   33  C   UNL     1      43.345 -10.693   7.258  1.00  0.00     0.032 C 
BRANCH  32  34
HETATM   34  C   UNL     1      45.828 -11.036   7.294  1.00  0.00     0.020 C 
HETATM   35  C   UNL     1      45.845  -9.728   8.070  1.00  0.00     0.007 C 
ENDBRANCH  32  34
ENDBRANCH  29  32
ENDBRANCH   1  28
TORSDOF 7
ENDMDL
MODEL 3
REMARK VINA RESULT:      -8.7      3.390      7.822
REMARK  7 active torsions:
REMARK  status: ('A' for Active; 'I' for Inactive)
REMARK    1  A    between atoms: C_2  and  C_3 
REMARK    2  A    between atoms: C_3  and  N_4 
REMARK       I    between atoms: N_4  and  C_5 
REMARK    3  A    between atoms: C_5  and  C_6 
REMARK    4  A    between atoms: C_7  and  N_8 
REMARK    5  A    between atoms: N_9  and  N_10 
REMARK    6  A    between atoms: C_11  and  C_12 
REMARK    7  A    between atoms: C_13  and  O_14 
ROOT
HETATM    1  C   UNL     1      41.704 -12.688   1.855  1.00  0.00     0.110 C 
HETATM    2  C   UNL     1      42.180 -11.736   2.740  1.00  0.00     0.143 C 
HETATM    3  N   UNL     1      42.698 -12.383   3.858  1.00  0.00    -0.197 N 
HETATM    4  C   UNL     1      42.791 -13.735   3.561  1.00  0.00     0.183 A 
HETATM    5  C   UNL     1      42.125 -13.941   2.354  1.00  0.00     0.125 A 
HETATM    6  N   UNL     1      41.969 -15.185   1.832  1.00  0.00    -0.242 NA
HETATM    7  C   UNL     1      42.572 -16.167   2.524  1.00  0.00     0.086 A 
HETATM    8  C   UNL     1      43.270 -15.932   3.738  1.00  0.00     0.088 A 
HETATM    9  N   UNL     1      43.372 -14.714   4.296  1.00  0.00    -0.225 NA
HETATM   10  C   UNL     1      42.513 -17.462   2.024  1.00  0.00     0.034 A 
HETATM   11  C   UNL     1      43.131 -18.528   2.681  1.00  0.00     0.002 A 
HETATM   12  C   UNL     1      43.817 -18.298   3.864  1.00  0.00     0.002 A 
HETATM   13  C   UNL     1      43.877 -17.003   4.381  1.00  0.00     0.034 A 
ENDROOT
BRANCH   3  14
HETATM   14  N   UNL     1      42.914 -11.669   5.017  1.00  0.00    -0.176 NA
HETATM   15  C   UNL     1      44.130 -11.457   5.396  1.00  0.00     0.153 C 
BRANCH  15  16
HETATM   16  C   UNL     1      44.386 -10.873   6.734  1.00  0.00     0.017 A 
HETATM   17  C   UNL     1      45.690 -10.698   7.224  1.00  0.00     0.077 A 
HETATM   18  C   UNL     1      45.907 -10.071   8.448  1.00  0.00     0.039 A 
HETATM   19  C   UNL     1      44.820  -9.611   9.192  1.00  0.00     0.022 A 
HETATM   20  C   UNL     1      43.524  -9.788   8.706  1.00  0.00     0.012 A 
HETATM   21 BR   UNL     1      42.056  -9.150   9.713  1.00  0.00    -0.051 Br
HETATM   22  C   UNL     1      43.297 -10.415   7.479  1.00  0.00     0.034 A 
BRANCH  17  23
HETATM   23  O   UNL     1      46.805 -11.091   6.536  1.00  0.00    -0.360 OA
HETATM   24  H   UNL     1      46.856 -10.533   5.728  1.00  0.00     0.217 HD
ENDBRANCH  17  23
ENDBRANCH  15  16
ENDBRANCH   3  14
BRANCH   2  25
HETATM   25  N   UNL     1      42.094 -10.379   2.683  1.00  0.00    -0.383 N 
HETATM   26  H   UNL     1      42.575  -9.896   1.919  1.00  0.00     0.157 HD
HETATM   27  H   UNL     1      42.105  -9.844   3.551  1.00  0.00     0.157 HD
ENDBRANCH   2  25
BRANCH   1  28
HETATM   28  C   UNL     1      40.902 -12.376   0.691  1.00  0.00     0.258 C 
HETATM   29  N   UNL     1      41.114 -13.234  -0.369  1.00  0.00    -0.352 N 
HETATM   30  H   UNL     1      41.800 -13.965  -0.234  1.00  0.00     0.163 HD
HETATM   31  O   UNL     1      40.010 -11.532   0.713  1.00  0.00    -0.267 OA
BRANCH  29  32
HETATM   32  C   UNL     1      40.076 -13.446  -1.368  1.00  0.00     0.080 C 
HETATM   33  C   UNL     1      39.402 -14.806  -1.145  1.00  0.00     0.032 C 
BRANCH  32  34
HETATM   34  C   UNL     1      40.657 -13.388  -2.789  1.00  0.00     0.020 C 
HETATM   35  C   UNL     1      41.203 -12.015  -3.148  1.00  0.00     0.007 C 
ENDBRANCH  32  34
ENDBRANCH  29  32
ENDBRANCH   1  28
TORSDOF 7
ENDMDL
MODEL 4
REMARK VINA RESULT:      -8.6      3.767      8.468
REMARK  7 active torsions:
REMARK  status: ('A' for Active; 'I' for Inactive)
REMARK    1  A    between atoms: C_2  and  C_3 
REMARK    2  A    between atoms: C_3  and  N_4 
REMARK       I    between atoms: N_4  and  C_5 
REMARK    3  A    between atoms: C_5  and  C_6 
REMARK    4  A    between atoms: C_7  and  N_8 
REMARK    5  A    between atoms: N_9  and  N_10 
REMARK    6  A    between atoms: C_11  and  C_12 
REMARK    7  A    between atoms: C_13  and  O_14 
ROOT
HETATM    1  C   UNL     1      43.462 -16.332   4.852  1.00  0.00     0.110 C 
HETATM    2  C   UNL     1      43.545 -15.607   6.027  1.00  0.00     0.143 C 
HETATM    3  N   UNL     1      43.006 -14.342   5.813  1.00  0.00    -0.197 N 
HETATM    4  C   UNL     1      42.347 -14.363   4.591  1.00  0.00     0.183 A 
HETATM    5  C   UNL     1      42.674 -15.564   3.965  1.00  0.00     0.125 A 
HETATM    6  N   UNL     1      42.247 -15.850   2.707  1.00  0.00    -0.242 NA
HETATM    7  C   UNL     1      41.432 -14.929   2.166  1.00  0.00     0.086 A 
HETATM    8  C   UNL     1      41.088 -13.723   2.833  1.00  0.00     0.088 A 
HETATM    9  N   UNL     1      41.559 -13.404   4.049  1.00  0.00    -0.225 NA
HETATM   10  C   UNL     1      40.901 -15.173   0.906  1.00  0.00     0.034 A 
HETATM   11  C   UNL     1      40.033 -14.270   0.290  1.00  0.00     0.002 A 
HETATM   12  C   UNL     1      39.693 -13.094   0.944  1.00  0.00     0.002 A 
HETATM   13  C   UNL     1      40.225 -12.832   2.207  1.00  0.00     0.034 A 
ENDROOT
BRANCH   3  14
HETATM   14  N   UNL     1      43.275 -13.328   6.705  1.00  0.00    -0.176 NA
HETATM   15  C   UNL     1      44.178 -12.457   6.398  1.00  0.00     0.153 C 
BRANCH  15  16
HETATM   16  C   UNL     1      44.629 -11.481   7.420  1.00  0.00     0.017 A 
HETATM   17  C   UNL     1      45.869 -10.831   7.321  1.00  0.00     0.077 A 
HETATM   18  C   UNL     1      46.232  -9.858   8.247  1.00  0.00     0.039 A 
HETATM   19  C   UNL     1      45.356  -9.524   9.280  1.00  0.00     0.022 A 
HETATM   20  C   UNL     1      44.124 -10.172   9.379  1.00  0.00     0.012 A 
HETATM   21 BR   UNL     1      42.935  -9.705  10.773  1.00  0.00    -0.051 Br
HETATM   22  C   UNL     1      43.751 -11.149   8.454  1.00  0.00     0.034 A 
BRANCH  17  23
HETATM   23  O   UNL     1      46.764 -11.081   6.317  1.00  0.00    -0.360 OA
HETATM   24  H   UNL     1      47.516 -11.572   6.719  1.00  0.00     0.217 HD
ENDBRANCH  17  23
ENDBRANCH  15  16
ENDBRANCH   3  14
BRANCH   2  25
HETATM   25  N   UNL     1      44.141 -15.932   7.207  1.00  0.00    -0.383 N 
HETATM   26  H   UNL     1      43.602 -15.816   8.069  1.00  0.00     0.157 HD
HETATM   27  H   UNL     1      45.132 -15.726   7.335  1.00  0.00     0.157 HD
ENDBRANCH   2  25
BRANCH   1  28
HETATM   28  C   UNL     1      44.122 -17.604   4.642  1.00  0.00     0.258 C 
HETATM   29  N   UNL     1      43.326 -18.538   4.010  1.00  0.00    -0.352 N 
HETATM   30  H   UNL     1      42.384 -18.253   3.777  1.00  0.00     0.163 HD
HETATM   31  O   UNL     1      45.319 -17.769   4.861  1.00  0.00    -0.267 OA
BRANCH  29  32
HETATM   32  C   UNL     1      43.925 -19.618   3.237  1.00  0.00     0.080 C 
HETATM   33  C   UNL     1      43.261 -19.707   1.858  1.00  0.00     0.032 C 
BRANCH  32  34
HETATM   34  C   UNL     1      43.781 -20.963   3.964  1.00  0.00     0.020 C 
HETATM   35  C   UNL     1      44.000 -20.850   5.465  1.00  0.00     0.007 C 
ENDBRANCH  32  34
ENDBRANCH  29  32
ENDBRANCH   1  28
TORSDOF 7
ENDMDL
MODEL 5
REMARK VINA RESULT:      -8.4      2.877      4.006
REMARK  7 active torsions:
REMARK  status: ('A' for Active; 'I' for Inactive)
REMARK    1  A    between atoms: C_2  and  C_3 
REMARK    2  A    between atoms: C_3  and  N_4 
REMARK       I    between atoms: N_4  and  C_5 
REMARK    3  A    between atoms: C_5  and  C_6 
REMARK    4  A    between atoms: C_7  and  N_8 
REMARK    5  A    between atoms: N_9  and  N_10 
REMARK    6  A    between atoms: C_11  and  C_12 
REMARK    7  A    between atoms: C_13  and  O_14 
ROOT
HETATM    1  C   UNL     1      42.868 -11.299   6.086  1.00  0.00     0.110 C 
HETATM    2  C   UNL     1      42.366 -10.786   4.903  1.00  0.00     0.143 C 
HETATM    3  N   UNL     1      42.428 -11.774   3.924  1.00  0.00    -0.197 N 
HETATM    4  C   UNL     1      42.716 -12.977   4.554  1.00  0.00     0.183 A 
HETATM    5  C   UNL     1      43.049 -12.685   5.875  1.00  0.00     0.125 A 
HETATM    6  N   UNL     1      43.462 -13.652   6.734  1.00  0.00    -0.242 NA
HETATM    7  C   UNL     1      43.442 -14.898   6.232  1.00  0.00     0.086 A 
HETATM    8  C   UNL     1      43.073 -15.178   4.890  1.00  0.00     0.088 A 
HETATM    9  N   UNL     1      42.726 -14.220   4.015  1.00  0.00    -0.225 NA
HETATM   10  C   UNL     1      43.792 -15.953   7.066  1.00  0.00     0.034 A 
HETATM   11  C   UNL     1      43.776 -17.275   6.618  1.00  0.00     0.002 A 
HETATM   12  C   UNL     1      43.411 -17.549   5.308  1.00  0.00     0.002 A 
HETATM   13  C   UNL     1      43.065 -16.499   4.458  1.00  0.00     0.034 A 
ENDROOT
BRANCH   3  14
HETATM   14  N   UNL     1      42.315 -11.423   2.597  1.00  0.00    -0.176 NA
HETATM   15  C   UNL     1      41.203 -11.659   1.986  1.00  0.00     0.153 C 
BRANCH  15  16
HETATM   16  C   UNL     1      41.124 -11.480   0.516  1.00  0.00     0.017 A 
HETATM   17  C   UNL     1      41.583 -10.311  -0.110  1.00  0.00     0.077 A 
HETATM   18  C   UNL     1      41.575 -10.203  -1.497  1.00  0.00     0.039 A 
HETATM   19  C   UNL     1      41.110 -11.266  -2.272  1.00  0.00     0.022 A 
HETATM   20  C   UNL     1      40.651 -12.427  -1.649  1.00  0.00     0.012 A 
HETATM   21 BR   UNL     1      40.034 -13.870  -2.705  1.00  0.00    -0.051 Br
HETATM   22  C   UNL     1      40.656 -12.545  -0.258  1.00  0.00     0.034 A 
BRANCH  17  23
HETATM   23  O   UNL     1      42.085  -9.243   0.581  1.00  0.00    -0.360 OA
HETATM   24  H   UNL     1      41.365  -8.914   1.165  1.00  0.00     0.217 HD
ENDBRANCH  17  23
ENDBRANCH  15  16
ENDBRANCH   3  14
BRANCH   2  25
HETATM   25  N   UNL     1      41.971  -9.518   4.606  1.00  0.00    -0.383 N 
HETATM   26  H   UNL     1      41.310  -9.386   3.836  1.00  0.00     0.157 HD
HETATM   27  H   UNL     1      42.649  -8.759   4.674  1.00  0.00     0.157 HD
ENDBRANCH   2  25
BRANCH   1  28
HETATM   28  C   UNL     1      43.161 -10.493   7.253  1.00  0.00     0.258 C 
HETATM   29  N   UNL     1      44.433 -10.692   7.752  1.00  0.00    -0.352 N 
HETATM   30  H   UNL     1      45.011 -11.371   7.274  1.00  0.00     0.163 HD
HETATM   31  O   UNL     1      42.406  -9.610   7.650  1.00  0.00    -0.267 OA
BRANCH  29  32
HETATM   32  C   UNL     1      45.099  -9.646   8.517  1.00  0.00     0.080 C 
HETATM   33  C   UNL     1      46.482  -9.358   7.920  1.00  0.00     0.032 C 
BRANCH  32  34
HETATM   34  C   UNL     1      45.250 -10.050   9.990  1.00  0.00     0.020 C 
HETATM   35  C   UNL     1      44.255  -9.348  10.901  1.00  0.00     0.007 C 
ENDBRANCH  32  34
ENDBRANCH  29  32
ENDBRANCH   1  28
TORSDOF 7
ENDMDL
MODEL 6
REMARK VINA RESULT:      -8.1      3.419      7.047
REMARK  7 active torsions:
REMARK  status: ('A' for Active; 'I' for Inactive)
REMARK    1  A    between atoms: C_2  and  C_3 
REMARK    2  A    between atoms: C_3  and  N_4 
REMARK       I    between atoms: N_4  and  C_5 
REMARK    3  A    between atoms: C_5  and  C_6 
REMARK    4  A    between atoms: C_7  and  N_8 
REMARK    5  A    between atoms: N_9  and  N_10 
REMARK    6  A    between atoms: C_11  and  C_12 
REMARK    7  A    between atoms: C_13  and  O_14 
ROOT
HETATM    1  C   UNL     1      40.922 -11.513   1.937  1.00  0.00     0.110 C 
HETATM    2  C   UNL     1      42.020 -12.302   2.231  1.00  0.00     0.143 C 
HETATM    3  N   UNL     1      41.908 -13.503   1.537  1.00  0.00    -0.197 N 
HETATM    4  C   UNL     1      40.887 -13.362   0.607  1.00  0.00     0.183 A 
HETATM    5  C   UNL     1      40.234 -12.163   0.887  1.00  0.00     0.125 A 
HETATM    6  N   UNL     1      39.129 -11.778   0.197  1.00  0.00    -0.242 NA
HETATM    7  C   UNL     1      38.780 -12.596  -0.810  1.00  0.00     0.086 A 
HETATM    8  C   UNL     1      39.476 -13.799  -1.096  1.00  0.00     0.088 A 
HETATM    9  N   UNL     1      40.529 -14.221  -0.378  1.00  0.00    -0.225 NA
HETATM   10  C   UNL     1      37.697 -12.242  -1.604  1.00  0.00     0.034 A 
HETATM   11  C   UNL     1      37.288 -13.034  -2.679  1.00  0.00     0.002 A 
HETATM   12  C   UNL     1      37.971 -14.208  -2.962  1.00  0.00     0.002 A 
HETATM   13  C   UNL     1      39.056 -14.579  -2.167  1.00  0.00     0.034 A 
ENDROOT
BRANCH   3  14
HETATM   14  N   UNL     1      42.677 -14.581   1.915  1.00  0.00    -0.176 NA
HETATM   15  C   UNL     1      42.095 -15.597   2.459  1.00  0.00     0.153 C 
BRANCH  15  16
HETATM   16  C   UNL     1      42.916 -16.676   3.057  1.00  0.00     0.017 A 
HETATM   17  C   UNL     1      43.515 -16.534   4.319  1.00  0.00     0.077 A 
HETATM   18  C   UNL     1      44.211 -17.592   4.894  1.00  0.00     0.039 A 
HETATM   19  C   UNL     1      44.311 -18.806   4.214  1.00  0.00     0.022 A 
HETATM   20  C   UNL     1      43.718 -18.947   2.959  1.00  0.00     0.012 A 
HETATM   21 BR   UNL     1      43.846 -20.599   2.047  1.00  0.00    -0.051 Br
HETATM   22  C   UNL     1      43.017 -17.891   2.374  1.00  0.00     0.034 A 
BRANCH  17  23
HETATM   23  O   UNL     1      43.429 -15.387   5.060  1.00  0.00    -0.360 OA
HETATM   24  H   UNL     1      44.114 -14.770   4.715  1.00  0.00     0.217 HD
ENDBRANCH  17  23
ENDBRANCH  15  16
ENDBRANCH   3  14
BRANCH   2  25
HETATM   25  N   UNL     1      43.025 -12.090   3.124  1.00  0.00    -0.383 N 
HETATM   26  H   UNL     1      43.968 -12.398   2.871  1.00  0.00     0.157 HD
HETATM   27  H   UNL     1      42.834 -12.196   4.120  1.00  0.00     0.157 HD
ENDBRANCH   2  25
BRANCH   1  28
HETATM   28  C   UNL     1      40.592 -10.293   2.645  1.00  0.00     0.258 C 
HETATM   29  N   UNL     1      40.031 -10.514   3.887  1.00  0.00    -0.352 N 
HETATM   30  H   UNL     1      39.897 -11.478   4.163  1.00  0.00     0.163 HD
HETATM   31  O   UNL     1      40.932  -9.185   2.241  1.00  0.00    -0.267 OA
BRANCH  29  32
HETATM   32  C   UNL     1      40.142  -9.511   4.937  1.00  0.00     0.080 C 
HETATM   33  C   UNL     1      41.484  -9.658   5.664  1.00  0.00     0.032 C 
BRANCH  32  34
HETATM   34  C   UNL     1      38.993  -9.641   5.947  1.00  0.00     0.020 C 
HETATM   35  C   UNL     1      39.468  -9.599   7.392  1.00  0.00     0.007 C 
ENDBRANCH  32  34
ENDBRANCH  29  32
ENDBRANCH   1  28
TORSDOF 7
ENDMDL
MODEL 7
REMARK VINA RESULT:      -8.1      3.215      8.040
REMARK  7 active torsions:
REMARK  status: ('A' for Active; 'I' for Inactive)
REMARK    1  A    between atoms: C_2  and  C_3 
REMARK    2  A    between atoms: C_3  and  N_4 
REMARK       I    between atoms: N_4  and  C_5 
REMARK    3  A    between atoms: C_5  and  C_6 
REMARK    4  A    between atoms: C_7  and  N_8 
REMARK    5  A    between atoms: N_9  and  N_10 
REMARK    6  A    between atoms: C_11  and  C_12 
REMARK    7  A    between atoms: C_13  and  O_14 
ROOT
HETATM    1  C   UNL     1      39.427 -12.937   1.379  1.00  0.00     0.110 C 
HETATM    2  C   UNL     1      39.777 -14.244   1.670  1.00  0.00     0.143 C 
HETATM    3  N   UNL     1      40.204 -14.310   2.993  1.00  0.00    -0.197 N 
HETATM    4  C   UNL     1      39.871 -13.111   3.606  1.00  0.00     0.183 A 
HETATM    5  C   UNL     1      39.448 -12.237   2.607  1.00  0.00     0.125 A 
HETATM    6  N   UNL     1      39.129 -10.945   2.880  1.00  0.00    -0.242 NA
HETATM    7  C   UNL     1      39.176 -10.617   4.182  1.00  0.00     0.086 A 
HETATM    8  C   UNL     1      39.582 -11.530   5.189  1.00  0.00     0.088 A 
HETATM    9  N   UNL     1      39.963 -12.790   4.919  1.00  0.00    -0.225 NA
HETATM   10  C   UNL     1      38.803  -9.331   4.554  1.00  0.00     0.034 A 
HETATM   11  C   UNL     1      38.810  -8.925   5.889  1.00  0.00     0.002 A 
HETATM   12  C   UNL     1      39.203  -9.819   6.874  1.00  0.00     0.002 A 
HETATM   13  C   UNL     1      39.587 -11.111   6.514  1.00  0.00     0.034 A 
ENDROOT
BRANCH   3  14
HETATM   14  N   UNL     1      40.921 -15.405   3.421  1.00  0.00    -0.176 NA
HETATM   15  C   UNL     1      42.210 -15.333   3.439  1.00  0.00     0.153 C 
BRANCH  15  16
HETATM   16  C   UNL     1      43.007 -16.556   3.700  1.00  0.00     0.017 A 
HETATM   17  C   UNL     1      43.766 -16.705   4.871  1.00  0.00     0.077 A 
HETATM   18  C   UNL     1      44.438 -17.896   5.130  1.00  0.00     0.039 A 
HETATM   19  C   UNL     1      44.354 -18.950   4.221  1.00  0.00     0.022 A 
HETATM   20  C   UNL     1      43.601 -18.801   3.055  1.00  0.00     0.012 A 
HETATM   21 BR   UNL     1      43.480 -20.238   1.833  1.00  0.00    -0.051 Br
HETATM   22  C   UNL     1      42.923 -17.610   2.787  1.00  0.00     0.034 A 
BRANCH  17  23
HETATM   23  O   UNL     1      43.868 -15.729   5.824  1.00  0.00    -0.360 OA
HETATM   24  H   UNL     1      43.841 -16.178   6.699  1.00  0.00     0.217 HD
ENDBRANCH  17  23
ENDBRANCH  15  16
ENDBRANCH   3  14
BRANCH   2  25
HETATM   25  N   UNL     1      39.849 -15.326   0.847  1.00  0.00    -0.383 N 
HETATM   26  H   UNL     1      40.598 -16.005   1.007  1.00  0.00     0.157 HD
HETATM   27  H   UNL     1      39.629 -15.212  -0.142  1.00  0.00     0.157 HD
ENDBRANCH   2  25
BRANCH   1  28
HETATM   28  C   UNL     1      39.150 -12.456   0.042  1.00  0.00     0.258 C 
HETATM   29  N   UNL     1      40.220 -12.582  -0.821  1.00  0.00    -0.352 N 
HETATM   30  H   UNL     1      41.070 -12.975  -0.439  1.00  0.00     0.163 HD
HETATM   31  O   UNL     1      38.024 -12.121  -0.317  1.00  0.00    -0.267 OA
BRANCH  29  32
HETATM   32  C   UNL     1      40.003 -12.687  -2.257  1.00  0.00     0.080 C 
HETATM   33  C   UNL     1      39.942 -14.162  -2.673  1.00  0.00     0.032 C 
BRANCH  32  34
HETATM   34  C   UNL     1      41.120 -11.980  -3.037  1.00  0.00     0.020 C 
HETATM   35  C   UNL     1      40.809 -10.518  -3.321  1.00  0.00     0.007 C 
ENDBRANCH  32  34
ENDBRANCH  29  32
ENDBRANCH   1  28
TORSDOF 7
ENDMDL
MODEL 8
REMARK VINA RESULT:      -7.9      4.309      7.690
REMARK  7 active torsions:
REMARK  status: ('A' for Active; 'I' for Inactive)
REMARK    1  A    between atoms: C_2  and  C_3 
REMARK    2  A    between atoms: C_3  and  N_4 
REMARK       I    between atoms: N_4  and  C_5 
REMARK    3  A    between atoms: C_5  and  C_6 
REMARK    4  A    between atoms: C_7  and  N_8 
REMARK    5  A    between atoms: N_9  and  N_10 
REMARK    6  A    between atoms: C_11  and  C_12 
REMARK    7  A    between atoms: C_13  and  O_14 
ROOT
HETATM    1  C   UNL     1      43.199 -10.785   7.353  1.00  0.00     0.110 C 
HETATM    2  C   UNL     1      43.827 -11.640   6.465  1.00  0.00     0.143 C 
HETATM    3  N   UNL     1      42.978 -11.871   5.387  1.00  0.00    -0.197 N 
HETATM    4  C   UNL     1      41.935 -10.958   5.467  1.00  0.00     0.183 A 
HETATM    5  C   UNL     1      42.030 -10.326   6.705  1.00  0.00     0.125 A 
HETATM    6  N   UNL     1      41.098  -9.429   7.118  1.00  0.00    -0.242 NA
HETATM    7  C   UNL     1      40.144  -9.150   6.214  1.00  0.00     0.086 A 
HETATM    8  C   UNL     1      40.081  -9.785   4.946  1.00  0.00     0.088 A 
HETATM    9  N   UNL     1      40.961 -10.721   4.555  1.00  0.00    -0.225 NA
HETATM   10  C   UNL     1      39.186  -8.196   6.535  1.00  0.00     0.034 A 
HETATM   11  C   UNL     1      38.177  -7.843   5.637  1.00  0.00     0.002 A 
HETATM   12  C   UNL     1      38.118  -8.459   4.396  1.00  0.00     0.002 A 
HETATM   13  C   UNL     1      39.069  -9.425   4.064  1.00  0.00     0.034 A 
ENDROOT
BRANCH   3  14
HETATM   14  N   UNL     1      43.216 -12.938   4.550  1.00  0.00    -0.176 NA
HETATM   15  C   UNL     1      42.397 -13.936   4.569  1.00  0.00     0.153 C 
BRANCH  15  16
HETATM   16  C   UNL     1      42.739 -15.177   3.833  1.00  0.00     0.017 A 
HETATM   17  C   UNL     1      42.760 -15.220   2.431  1.00  0.00     0.077 A 
HETATM   18  C   UNL     1      43.165 -16.373   1.765  1.00  0.00     0.039 A 
HETATM   19  C   UNL     1      43.557 -17.493   2.497  1.00  0.00     0.022 A 
HETATM   20  C   UNL     1      43.534 -17.451   3.892  1.00  0.00     0.012 A 
HETATM   21 BR   UNL     1      44.079 -18.969   4.879  1.00  0.00    -0.051 Br
HETATM   22  C   UNL     1      43.129 -16.299   4.568  1.00  0.00     0.034 A 
BRANCH  17  23
HETATM   23  O   UNL     1      42.423 -14.151   1.646  1.00  0.00    -0.360 OA
HETATM   24  H   UNL     1      41.479 -14.266   1.393  1.00  0.00     0.217 HD
ENDBRANCH  17  23
ENDBRANCH  15  16
ENDBRANCH   3  14
BRANCH   2  25
HETATM   25  N   UNL     1      45.013 -12.297   6.586  1.00  0.00    -0.383 N 
HETATM   26  H   UNL     1      44.993 -13.317   6.680  1.00  0.00     0.157 HD
HETATM   27  H   UNL     1      45.764 -11.870   7.128  1.00  0.00     0.157 HD
ENDBRANCH   2  25
BRANCH   1  28
HETATM   28  C   UNL     1      43.692 -10.502   8.685  1.00  0.00     0.258 C 
HETATM   29  N   UNL     1      42.806  -9.777   9.456  1.00  0.00    -0.352 N 
HETATM   30  H   UNL     1      41.933  -9.511   9.020  1.00  0.00     0.163 HD
HETATM   31  O   UNL     1      44.724 -11.001   9.125  1.00  0.00    -0.267 OA
BRANCH  29  32
HETATM   32  C   UNL     1      42.846  -9.866  10.909  1.00  0.00     0.080 C 
HETATM   33  C   UNL     1      41.429  -9.745  11.482  1.00  0.00     0.032 C 
BRANCH  32  34
HETATM   34  C   UNL     1      43.736  -8.766  11.506  1.00  0.00     0.020 C 
HETATM   35  C   UNL     1      43.257  -8.292  12.869  1.00  0.00     0.007 C 
ENDBRANCH  32  34
ENDBRANCH  29  32
ENDBRANCH   1  28
TORSDOF 7
ENDMDL
MODEL 9
REMARK VINA RESULT:      -7.8      1.817      2.372
REMARK  7 active torsions:
REMARK  status: ('A' for Active; 'I' for Inactive)
REMARK    1  A    between atoms: C_2  and  C_3 
REMARK    2  A    between atoms: C_3  and  N_4 
REMARK       I    between atoms: N_4  and  C_5 
REMARK    3  A    between atoms: C_5  and  C_6 
REMARK    4  A    between atoms: C_7  and  N_8 
REMARK    5  A    between atoms: N_9  and  N_10 
REMARK    6  A    between atoms: C_11  and  C_12 
REMARK    7  A    between atoms: C_13  and  O_14 
ROOT
HETATM    1  C   UNL     1      41.958 -11.993   4.989  1.00  0.00     0.110 C 
HETATM    2  C   UNL     1      41.026 -11.848   3.977  1.00  0.00     0.143 C 
HETATM    3  N   UNL     1      41.039 -12.994   3.188  1.00  0.00    -0.197 N 
HETATM    4  C   UNL     1      41.779 -13.960   3.856  1.00  0.00     0.183 A 
HETATM    5  C   UNL     1      42.399 -13.335   4.935  1.00  0.00     0.125 A 
HETATM    6  N   UNL     1      43.265 -14.001   5.742  1.00  0.00    -0.242 NA
HETATM    7  C   UNL     1      43.402 -15.309   5.463  1.00  0.00     0.086 A 
HETATM    8  C   UNL     1      42.739 -15.934   4.374  1.00  0.00     0.088 A 
HETATM    9  N   UNL     1      41.933 -15.267   3.532  1.00  0.00    -0.225 NA
HETATM   10  C   UNL     1      44.222 -16.077   6.279  1.00  0.00     0.034 A 
HETATM   11  C   UNL     1      44.398 -17.445   6.060  1.00  0.00     0.002 A 
HETATM   12  C   UNL     1      43.746 -18.057   4.999  1.00  0.00     0.002 A 
HETATM   13  C   UNL     1      42.925 -17.295   4.167  1.00  0.00     0.034 A 
ENDROOT
BRANCH   3  14
HETATM   14  N   UNL     1      40.465 -12.964   1.936  1.00  0.00    -0.176 NA
HETATM   15  C   UNL     1      41.235 -13.019   0.901  1.00  0.00     0.153 C 
BRANCH  15  16
HETATM   16  C   UNL     1      40.664 -12.785  -0.448  1.00  0.00     0.017 A 
HETATM   17  C   UNL     1      39.776 -13.696  -1.040  1.00  0.00     0.077 A 
HETATM   18  C   UNL     1      39.190 -13.413  -2.270  1.00  0.00     0.039 A 
HETATM   19  C   UNL     1      39.484 -12.212  -2.917  1.00  0.00     0.022 A 
HETATM   20  C   UNL     1      40.369 -11.307  -2.329  1.00  0.00     0.012 A 
HETATM   21 BR   UNL     1      40.754  -9.676  -3.204  1.00  0.00    -0.051 Br
HETATM   22  C   UNL     1      40.962 -11.583  -1.095  1.00  0.00     0.034 A 
BRANCH  17  23
HETATM   23  O   UNL     1      39.413 -14.876  -0.451  1.00  0.00    -0.360 OA
HETATM   24  H   UNL     1      38.450 -14.818  -0.262  1.00  0.00     0.217 HD
ENDBRANCH  17  23
ENDBRANCH  15  16
ENDBRANCH   3  14
BRANCH   2  25
HETATM   25  N   UNL     1      40.268 -10.767   3.644  1.00  0.00    -0.383 N 
HETATM   26  H   UNL     1      39.968 -10.138   4.394  1.00  0.00     0.157 HD
HETATM   27  H   UNL     1      39.568 -10.860   2.908  1.00  0.00     0.157 HD
ENDBRANCH   2  25
BRANCH   1  28
HETATM   28  C   UNL     1      42.373 -10.915   5.863  1.00  0.00     0.258 C 
HETATM   29  N   UNL     1      43.032 -11.348   6.995  1.00  0.00    -0.352 N 
HETATM   30  H   UNL     1      43.144 -12.348   7.105  1.00  0.00     0.163 HD
HETATM   31  O   UNL     1      42.285  -9.734   5.538  1.00  0.00    -0.267 OA
BRANCH  29  32
HETATM   32  C   UNL     1      43.977 -10.476   7.680  1.00  0.00     0.080 C 
HETATM   33  C   UNL     1      45.411 -10.831   7.271  1.00  0.00     0.032 C 
BRANCH  32  34
HETATM   34  C   UNL     1      43.833 -10.597   9.204  1.00  0.00     0.020 C 
HETATM   35  C   UNL     1      45.019 -10.013   9.958  1.00  0.00     0.007 C 
ENDBRANCH  32  34
ENDBRANCH  29  32
ENDBRANCH   1  28
TORSDOF 7
ENDMDL
MODEL 10
REMARK VINA RESULT:      -7.7      2.605      5.474
REMARK  7 active torsions:
REMARK  status: ('A' for Active; 'I' for Inactive)
REMARK    1  A    between atoms: C_2  and  C_3 
REMARK    2  A    between atoms: C_3  and  N_4 
REMARK       I    between atoms: N_4  and  C_5 
REMARK    3  A    between atoms: C_5  and  C_6 
REMARK    4  A    between atoms: C_7  and  N_8 
REMARK    5  A    between atoms: N_9  and  N_10 
REMARK    6  A    between atoms: C_11  and  C_12 
REMARK    7  A    between atoms: C_13  and  O_14 
ROOT
HETATM    1  C   UNL     1      42.107 -14.871   2.545  1.00  0.00     0.110 C 
HETATM    2  C   UNL     1      41.585 -14.167   1.475  1.00  0.00     0.143 C 
HETATM    3  N   UNL     1      41.337 -12.858   1.877  1.00  0.00    -0.197 N 
HETATM    4  C   UNL     1      41.948 -12.671   3.110  1.00  0.00     0.183 A 
HETATM    5  C   UNL     1      42.372 -13.920   3.557  1.00  0.00     0.125 A 
HETATM    6  N   UNL     1      42.938 -14.084   4.780  1.00  0.00    -0.242 NA
HETATM    7  C   UNL     1      43.125 -12.946   5.471  1.00  0.00     0.086 A 
HETATM    8  C   UNL     1      42.711 -11.678   4.985  1.00  0.00     0.088 A 
HETATM    9  N   UNL     1      42.090 -11.517   3.805  1.00  0.00    -0.225 NA
HETATM   10  C   UNL     1      43.756 -13.018   6.707  1.00  0.00     0.034 A 
HETATM   11  C   UNL     1      43.999 -11.875   7.471  1.00  0.00     0.002 A 
HETATM   12  C   UNL     1      43.599 -10.635   6.994  1.00  0.00     0.002 A 
HETATM   13  C   UNL     1      42.958 -10.550   5.758  1.00  0.00     0.034 A 
ENDROOT
BRANCH   3  14
HETATM   14  N   UNL     1      40.511 -12.058   1.120  1.00  0.00    -0.176 NA
HETATM   15  C   UNL     1      39.236 -12.127   1.312  1.00  0.00     0.153 C 
BRANCH  15  16
HETATM   16  C   UNL     1      38.318 -11.433   0.377  1.00  0.00     0.017 A 
HETATM   17  C   UNL     1      38.346 -11.682  -1.004  1.00  0.00     0.077 A 
HETATM   18  C   UNL     1      37.418 -11.082  -1.850  1.00  0.00     0.039 A 
HETATM   19  C   UNL     1      36.450 -10.228  -1.320  1.00  0.00     0.022 A 
HETATM   20  C   UNL     1      36.424  -9.978   0.053  1.00  0.00     0.012 A 
HETATM   21 BR   UNL     1      35.102  -8.830   0.766  1.00  0.00    -0.051 Br
HETATM   22  C   UNL     1      37.351 -10.577   0.909  1.00  0.00     0.034 A 
BRANCH  17  23
HETATM   23  O   UNL     1      39.241 -12.534  -1.591  1.00  0.00    -0.360 OA
HETATM   24  H   UNL     1      38.752 -13.035  -2.282  1.00  0.00     0.217 HD
ENDBRANCH  17  23
ENDBRANCH  15  16
ENDBRANCH   3  14
BRANCH   2  25
HETATM   25  N   UNL     1      41.221 -14.609   0.240  1.00  0.00    -0.383 N 
HETATM   26  H   UNL     1      40.472 -15.304   0.178  1.00  0.00     0.157 HD
HETATM   27  H   UNL     1      41.940 -14.744  -0.470  1.00  0.00     0.157 HD
ENDBRANCH   2  25
BRANCH   1  28
HETATM   28  C   UNL     1      42.277 -16.309   2.557  1.00  0.00     0.258 C 
HETATM   29  N   UNL     1      43.424 -16.722   3.206  1.00  0.00    -0.352 N 
HETATM   30  H   UNL     1      44.020 -15.998   3.585  1.00  0.00     0.163 HD
HETATM   31  O   UNL     1      41.402 -17.079   2.169  1.00  0.00    -0.267 OA
BRANCH  29  32
HETATM   32  C   UNL     1      43.500 -18.050   3.799  1.00  0.00     0.080 C 
HETATM   33  C   UNL     1      44.190 -17.976   5.166  1.00  0.00     0.032 C 
BRANCH  32  34
HETATM   34  C   UNL     1      44.269 -19.018   2.887  1.00  0.00     0.020 C 
HETATM   35  C   UNL     1      43.356 -19.971   2.133  1.00  0.00     0.007 C 
ENDBRANCH  32  34
ENDBRANCH  29  32
ENDBRANCH   1  28
TORSDOF 7
ENDMDL
