MODEL 1
REMARK VINA RESULT:      -8.4      0.000      0.000
REMARK  5 active torsions:
REMARK  status: ('A' for Active; 'I' for Inactive)
REMARK    1  A    between atoms: O_2  and  C_3 
REMARK    2  A    between atoms: C_5  and  C_6 
REMARK    3  A    between atoms: C_12  and  C_13 
REMARK    4  A    between atoms: C_15  and  O_16 
REMARK    5  A    between atoms: C_18  and  O_19 
ROOT
HETATM    1  C   UNL     1      41.114 -15.515   3.071  1.00  0.00     0.098 A 
HETATM    2  N   UNL     1      40.620 -15.797   1.840  1.00  0.00    -0.173 NA
HETATM    3  N   UNL     1      39.749 -14.798   1.560  1.00  0.00    -0.272 N 
HETATM    4  H   UNL     1      39.249 -14.810   0.676  1.00  0.00     0.189 HD
HETATM    5  C   UNL     1      39.693 -13.905   2.558  1.00  0.00     0.128 A 
HETATM    6  C   UNL     1      40.554 -14.313   3.536  1.00  0.00     0.034 A 
HETATM    7  C   UNL     1      40.529 -13.351   4.657  1.00  0.00     0.156 A 
HETATM    8  N   UNL     1      39.547 -12.380   4.137  1.00  0.00    -0.343 N 
HETATM    9  C   UNL     1      39.040 -12.695   2.881  1.00  0.00     0.271 A 
HETATM   10  O   UNL     1      38.237 -12.058   2.227  1.00  0.00    -0.266 OA
HETATM   11  H   UNL     1      39.277 -11.535   4.617  1.00  0.00     0.163 HD
ENDROOT
BRANCH   7  12
HETATM   12  C   UNL     1      41.907 -12.760   4.825  1.00  0.00    -0.028 A 
HETATM   13  C   UNL     1      42.565 -12.714   6.074  1.00  0.00     0.049 A 
HETATM   14  C   UNL     1      43.846 -12.169   6.191  1.00  0.00     0.101 A 
HETATM   15  C   UNL     1      44.472 -11.671   5.045  1.00  0.00     0.099 A 
HETATM   16  C   UNL     1      43.852 -11.705   3.805  1.00  0.00     0.040 A 
HETATM   17  C   UNL     1      42.573 -12.248   3.695  1.00  0.00     0.012 A 
BRANCH  14  18
HETATM   18  O   UNL     1      44.582 -12.070   7.343  1.00  0.00    -0.353 OA
HETATM   19  C   UNL     1      44.177 -11.073   8.275  1.00  0.00     0.210 C 
ENDBRANCH  14  18
BRANCH  15  20
HETATM   20  O   UNL     1      45.729 -11.135   5.125  1.00  0.00    -0.358 OA
HETATM   21  H   UNL     1      46.329 -11.906   5.151  1.00  0.00     0.218 HD
ENDBRANCH  15  20
ENDBRANCH   7  12
BRANCH   1  22
HETATM   22  C   UNL     1      42.084 -16.395   3.721  1.00  0.00    -0.002 A 
HETATM   23  C   UNL     1      42.806 -17.330   2.962  1.00  0.00     0.050 A 
HETATM   24  C   UNL     1      43.744 -18.179   3.558  1.00  0.00     0.069 A 
HETATM   25  C   UNL     1      43.965 -18.095   4.933  1.00  0.00     0.037 A 
HETATM   26  C   UNL     1      43.246 -17.177   5.702  1.00  0.00     0.004 A 
HETATM   27  C   UNL     1      42.307 -16.335   5.101  1.00  0.00     0.014 A 
BRANCH  24  28
HETATM   28  O   UNL     1      44.371 -19.035   2.695  1.00  0.00    -0.356 OA
HETATM   29  C   UNL     1      43.635 -20.174   2.267  1.00  0.00     0.210 C 
ENDBRANCH  24  28
ENDBRANCH   1  22
TORSDOF 5
ENDMDL
MODEL 2
REMARK VINA RESULT:      -8.1      1.877      3.271
REMARK  5 active torsions:
REMARK  status: ('A' for Active; 'I' for Inactive)
REMARK    1  A    between atoms: O_2  and  C_3 
REMARK    2  A    between atoms: C_5  and  C_6 
REMARK    3  A    between atoms: C_12  and  C_13 
REMARK    4  A    between atoms: C_15  and  O_16 
REMARK    5  A    between atoms: C_18  and  O_19 
ROOT
HETATM    1  C   UNL     1      42.548 -16.528   2.198  1.00  0.00     0.098 A 
HETATM    2  N   UNL     1      43.068 -15.967   1.078  1.00  0.00    -0.173 NA
HETATM    3  N   UNL     1      42.412 -14.792   0.921  1.00  0.00    -0.272 N 
HETATM    4  H   UNL     1      42.640 -14.200   0.129  1.00  0.00     0.189 HD
HETATM    5  C   UNL     1      41.520 -14.596   1.902  1.00  0.00     0.128 A 
HETATM    6  C   UNL     1      41.579 -15.669   2.745  1.00  0.00     0.034 A 
HETATM    7  C   UNL     1      40.613 -15.492   3.848  1.00  0.00     0.156 A 
HETATM    8  N   UNL     1      40.043 -14.182   3.479  1.00  0.00    -0.343 N 
HETATM    9  C   UNL     1      40.577 -13.632   2.319  1.00  0.00     0.271 A 
HETATM   10  O   UNL     1      40.296 -12.563   1.811  1.00  0.00    -0.266 OA
HETATM   11  H   UNL     1      39.350 -13.692   4.024  1.00  0.00     0.163 HD
ENDROOT
BRANCH   7  12
HETATM   12  C   UNL     1      41.365 -15.457   5.156  1.00  0.00    -0.028 A 
HETATM   13  C   UNL     1      42.153 -14.351   5.547  1.00  0.00     0.049 A 
HETATM   14  C   UNL     1      42.828 -14.347   6.770  1.00  0.00     0.101 A 
HETATM   15  C   UNL     1      42.707 -15.459   7.608  1.00  0.00     0.099 A 
HETATM   16  C   UNL     1      41.940 -16.558   7.252  1.00  0.00     0.040 A 
HETATM   17  C   UNL     1      41.271 -16.556   6.029  1.00  0.00     0.012 A 
BRANCH  14  18
HETATM   18  O   UNL     1      43.617 -13.337   7.257  1.00  0.00    -0.353 OA
HETATM   19  C   UNL     1      44.099 -12.391   6.309  1.00  0.00     0.210 C 
ENDBRANCH  14  18
BRANCH  15  20
HETATM   20  O   UNL     1      43.353 -15.485   8.815  1.00  0.00    -0.358 OA
HETATM   21  H   UNL     1      44.076 -16.133   8.698  1.00  0.00     0.218 HD
ENDBRANCH  15  20
ENDBRANCH   7  12
BRANCH   1  22
HETATM   22  C   UNL     1      43.005 -17.831   2.678  1.00  0.00    -0.002 A 
HETATM   23  C   UNL     1      43.454 -17.977   4.000  1.00  0.00     0.050 A 
HETATM   24  C   UNL     1      43.891 -19.214   4.485  1.00  0.00     0.069 A 
HETATM   25  C   UNL     1      43.881 -20.322   3.638  1.00  0.00     0.037 A 
HETATM   26  C   UNL     1      43.447 -20.189   2.317  1.00  0.00     0.004 A 
HETATM   27  C   UNL     1      43.016 -18.950   1.837  1.00  0.00     0.014 A 
BRANCH  24  28
HETATM   28  O   UNL     1      44.298 -19.206   5.791  1.00  0.00    -0.356 OA
HETATM   29  C   UNL     1      43.420 -19.793   6.743  1.00  0.00     0.210 C 
ENDBRANCH  24  28
ENDBRANCH   1  22
TORSDOF 5
ENDMDL
MODEL 3
REMARK VINA RESULT:      -7.8      1.479      2.038
REMARK  5 active torsions:
REMARK  status: ('A' for Active; 'I' for Inactive)
REMARK    1  A    between atoms: O_2  and  C_3 
REMARK    2  A    between atoms: C_5  and  C_6 
REMARK    3  A    between atoms: C_12  and  C_13 
REMARK    4  A    between atoms: C_15  and  O_16 
REMARK    5  A    between atoms: C_18  and  O_19 
ROOT
HETATM    1  C   UNL     1      42.287 -15.935   2.377  1.00  0.00     0.098 A 
HETATM    2  N   UNL     1      42.510 -15.750   1.052  1.00  0.00    -0.173 NA
HETATM    3  N   UNL     1      41.620 -14.806   0.661  1.00  0.00    -0.272 N 
HETATM    4  H   UNL     1      41.604 -14.513  -0.311  1.00  0.00     0.189 HD
HETATM    5  C   UNL     1      40.867 -14.389   1.689  1.00  0.00     0.128 A 
HETATM    6  C   UNL     1      41.264 -15.070   2.804  1.00  0.00     0.034 A 
HETATM    7  C   UNL     1      40.462 -14.637   3.966  1.00  0.00     0.156 A 
HETATM    8  N   UNL     1      39.597 -13.633   3.317  1.00  0.00    -0.343 N 
HETATM    9  C   UNL     1      39.828 -13.471   1.956  1.00  0.00     0.271 A 
HETATM   10  O   UNL     1      39.269 -12.702   1.197  1.00  0.00    -0.266 OA
HETATM   11  H   UNL     1      38.912 -13.075   3.805  1.00  0.00     0.163 HD
ENDROOT
BRANCH   7  12
HETATM   12  C   UNL     1      41.383 -14.038   4.999  1.00  0.00    -0.028 A 
HETATM   13  C   UNL     1      41.851 -12.707   4.917  1.00  0.00     0.049 A 
HETATM   14  C   UNL     1      42.694 -12.179   5.897  1.00  0.00     0.101 A 
HETATM   15  C   UNL     1      43.068 -12.993   6.971  1.00  0.00     0.099 A 
HETATM   16  C   UNL     1      42.624 -14.302   7.080  1.00  0.00     0.040 A 
HETATM   17  C   UNL     1      41.783 -14.822   6.097  1.00  0.00     0.012 A 
BRANCH  14  18
HETATM   18  O   UNL     1      43.210 -10.910   5.925  1.00  0.00    -0.353 OA
HETATM   19  C   UNL     1      42.298  -9.857   6.221  1.00  0.00     0.210 C 
ENDBRANCH  14  18
BRANCH  15  20
HETATM   20  O   UNL     1      43.891 -12.505   7.950  1.00  0.00    -0.358 OA
HETATM   21  H   UNL     1      44.177 -13.294   8.452  1.00  0.00     0.218 HD
ENDBRANCH  15  20
ENDBRANCH   7  12
BRANCH   1  22
HETATM   22  C   UNL     1      43.058 -16.907   3.149  1.00  0.00    -0.002 A 
HETATM   23  C   UNL     1      43.142 -18.241   2.719  1.00  0.00     0.050 A 
HETATM   24  C   UNL     1      43.878 -19.189   3.437  1.00  0.00     0.069 A 
HETATM   25  C   UNL     1      44.540 -18.801   4.602  1.00  0.00     0.037 A 
HETATM   26  C   UNL     1      44.456 -17.480   5.047  1.00  0.00     0.004 A 
HETATM   27  C   UNL     1      43.716 -16.539   4.328  1.00  0.00     0.014 A 
BRANCH  24  28
HETATM   28  O   UNL     1      43.871 -20.447   2.898  1.00  0.00    -0.356 OA
HETATM   29  C   UNL     1      43.514 -20.558   1.526  1.00  0.00     0.210 C 
ENDBRANCH  24  28
ENDBRANCH   1  22
TORSDOF 5
ENDMDL
MODEL 4
REMARK VINA RESULT:      -7.7      2.269      4.868
REMARK  5 active torsions:
REMARK  status: ('A' for Active; 'I' for Inactive)
REMARK    1  A    between atoms: O_2  and  C_3 
REMARK    2  A    between atoms: C_5  and  C_6 
REMARK    3  A    between atoms: C_12  and  C_13 
REMARK    4  A    between atoms: C_15  and  O_16 
REMARK    5  A    between atoms: C_18  and  O_19 
ROOT
HETATM    1  C   UNL     1      43.068 -14.957   5.521  1.00  0.00     0.098 A 
HETATM    2  N   UNL     1      43.007 -15.218   6.850  1.00  0.00    -0.173 NA
HETATM    3  N   UNL     1      43.062 -14.009   7.460  1.00  0.00    -0.272 N 
HETATM    4  H   UNL     1      43.037 -13.966   8.475  1.00  0.00     0.189 HD
HETATM    5  C   UNL     1      43.141 -13.014   6.566  1.00  0.00     0.128 A 
HETATM    6  C   UNL     1      43.135 -13.568   5.319  1.00  0.00     0.034 A 
HETATM    7  C   UNL     1      43.215 -12.503   4.298  1.00  0.00     0.156 A 
HETATM    8  N   UNL     1      43.255 -11.316   5.173  1.00  0.00    -0.343 N 
HETATM    9  C   UNL     1      43.209 -11.604   6.533  1.00  0.00     0.271 A 
HETATM   10  O   UNL     1      43.210 -10.813   7.457  1.00  0.00    -0.266 OA
HETATM   11  H   UNL     1      43.280 -10.364   4.837  1.00  0.00     0.163 HD
ENDROOT
BRANCH   7  12
HETATM   12  C   UNL     1      41.976 -12.556   3.439  1.00  0.00    -0.028 A 
HETATM   13  C   UNL     1      42.033 -12.572   2.027  1.00  0.00     0.049 A 
HETATM   14  C   UNL     1      40.867 -12.633   1.261  1.00  0.00     0.101 A 
HETATM   15  C   UNL     1      39.633 -12.684   1.918  1.00  0.00     0.099 A 
HETATM   16  C   UNL     1      39.546 -12.672   3.302  1.00  0.00     0.040 A 
HETATM   17  C   UNL     1      40.714 -12.609   4.060  1.00  0.00     0.012 A 
BRANCH  14  18
HETATM   18  O   UNL     1      40.795 -12.654  -0.107  1.00  0.00    -0.353 OA
HETATM   19  C   UNL     1      41.051 -11.424  -0.779  1.00  0.00     0.210 C 
ENDBRANCH  14  18
BRANCH  15  20
HETATM   20  O   UNL     1      38.472 -12.748   1.197  1.00  0.00    -0.358 OA
HETATM   21  H   UNL     1      38.596 -13.504   0.589  1.00  0.00     0.218 HD
ENDBRANCH  15  20
ENDBRANCH   7  12
BRANCH   1  22
HETATM   22  C   UNL     1      43.052 -16.036   4.534  1.00  0.00    -0.002 A 
HETATM   23  C   UNL     1      43.835 -17.184   4.732  1.00  0.00     0.050 A 
HETATM   24  C   UNL     1      43.834 -18.232   3.806  1.00  0.00     0.069 A 
HETATM   25  C   UNL     1      43.039 -18.132   2.663  1.00  0.00     0.037 A 
HETATM   26  C   UNL     1      42.263 -16.991   2.448  1.00  0.00     0.004 A 
HETATM   27  C   UNL     1      42.273 -15.946   3.375  1.00  0.00     0.014 A 
BRANCH  24  28
HETATM   28  O   UNL     1      44.643 -19.285   4.132  1.00  0.00    -0.356 OA
HETATM   29  C   UNL     1      44.160 -20.189   5.117  1.00  0.00     0.210 C 
ENDBRANCH  24  28
ENDBRANCH   1  22
TORSDOF 5
ENDMDL
MODEL 5
REMARK VINA RESULT:      -7.6      1.703      5.291
REMARK  5 active torsions:
REMARK  status: ('A' for Active; 'I' for Inactive)
REMARK    1  A    between atoms: O_2  and  C_3 
REMARK    2  A    between atoms: C_5  and  C_6 
REMARK    3  A    between atoms: C_12  and  C_13 
REMARK    4  A    between atoms: C_15  and  O_16 
REMARK    5  A    between atoms: C_18  and  O_19 
ROOT
HETATM    1  C   UNL     1      41.075 -13.753   3.824  1.00  0.00     0.098 A 
HETATM    2  N   UNL     1      39.771 -13.383   3.862  1.00  0.00    -0.173 NA
HETATM    3  N   UNL     1      39.275 -13.674   2.635  1.00  0.00    -0.272 N 
HETATM    4  H   UNL     1      38.301 -13.470   2.433  1.00  0.00     0.189 HD
HETATM    5  C   UNL     1      40.211 -14.219   1.846  1.00  0.00     0.128 A 
HETATM    6  C   UNL     1      41.370 -14.300   2.564  1.00  0.00     0.034 A 
HETATM    7  C   UNL     1      42.432 -14.903   1.732  1.00  0.00     0.156 A 
HETATM    8  N   UNL     1      41.678 -15.135   0.486  1.00  0.00    -0.343 N 
HETATM    9  C   UNL     1      40.347 -14.733   0.538  1.00  0.00     0.271 A 
HETATM   10  O   UNL     1      39.511 -14.828  -0.340  1.00  0.00    -0.266 OA
HETATM   11  H   UNL     1      42.062 -15.576  -0.336  1.00  0.00     0.163 HD
ENDROOT
BRANCH   7  12
HETATM   12  C   UNL     1      42.896 -16.183   2.384  1.00  0.00    -0.028 A 
HETATM   13  C   UNL     1      43.591 -16.198   3.614  1.00  0.00     0.049 A 
HETATM   14  C   UNL     1      43.996 -17.402   4.195  1.00  0.00     0.101 A 
HETATM   15  C   UNL     1      43.696 -18.599   3.539  1.00  0.00     0.099 A 
HETATM   16  C   UNL     1      43.014 -18.616   2.331  1.00  0.00     0.040 A 
HETATM   17  C   UNL     1      42.614 -17.410   1.756  1.00  0.00     0.012 A 
BRANCH  14  18
HETATM   18  O   UNL     1      44.673 -17.543   5.378  1.00  0.00    -0.353 OA
HETATM   19  C   UNL     1      44.785 -16.381   6.192  1.00  0.00     0.210 C 
ENDBRANCH  14  18
BRANCH  15  20
HETATM   20  O   UNL     1      44.075 -19.796   4.083  1.00  0.00    -0.358 OA
HETATM   21  H   UNL     1      44.541 -19.559   4.910  1.00  0.00     0.218 HD
ENDBRANCH  15  20
ENDBRANCH   7  12
BRANCH   1  22
HETATM   22  C   UNL     1      41.950 -13.570   4.981  1.00  0.00    -0.002 A 
HETATM   23  C   UNL     1      43.013 -12.654   4.923  1.00  0.00     0.050 A 
HETATM   24  C   UNL     1      43.860 -12.457   6.018  1.00  0.00     0.069 A 
HETATM   25  C   UNL     1      43.646 -13.185   7.188  1.00  0.00     0.037 A 
HETATM   26  C   UNL     1      42.599 -14.108   7.255  1.00  0.00     0.004 A 
HETATM   27  C   UNL     1      41.759 -14.303   6.157  1.00  0.00     0.014 A 
BRANCH  24  28
HETATM   28  O   UNL     1      44.849 -11.533   5.817  1.00  0.00    -0.356 OA
HETATM   29  C   UNL     1      45.640 -11.180   6.944  1.00  0.00     0.210 C 
ENDBRANCH  24  28
ENDBRANCH   1  22
TORSDOF 5
ENDMDL
MODEL 6
REMARK VINA RESULT:      -7.4      1.873      6.132
REMARK  5 active torsions:
REMARK  status: ('A' for Active; 'I' for Inactive)
REMARK    1  A    between atoms: O_2  and  C_3 
REMARK    2  A    between atoms: C_5  and  C_6 
REMARK    3  A    between atoms: C_12  and  C_13 
REMARK    4  A    between atoms: C_15  and  O_16 
REMARK    5  A    between atoms: C_18  and  O_19 
ROOT
HETATM    1  C   UNL     1      42.033 -11.512   5.517  1.00  0.00     0.098 A 
HETATM    2  N   UNL     1      41.012 -10.661   5.788  1.00  0.00    -0.173 NA
HETATM    3  N   UNL     1      39.985 -11.065   5.003  1.00  0.00    -0.272 N 
HETATM    4  H   UNL     1      39.106 -10.557   5.038  1.00  0.00     0.189 HD
HETATM    5  C   UNL     1      40.321 -12.135   4.270  1.00  0.00     0.128 A 
HETATM    6  C   UNL     1      41.611 -12.463   4.572  1.00  0.00     0.034 A 
HETATM    7  C   UNL     1      42.024 -13.646   3.788  1.00  0.00     0.156 A 
HETATM    8  N   UNL     1      40.778 -13.900   3.040  1.00  0.00    -0.343 N 
HETATM    9  C   UNL     1      39.749 -13.007   3.318  1.00  0.00     0.271 A 
HETATM   10  O   UNL     1      38.625 -13.006   2.854  1.00  0.00    -0.266 OA
HETATM   11  H   UNL     1      40.648 -14.670   2.400  1.00  0.00     0.163 HD
ENDROOT
BRANCH   7  12
HETATM   12  C   UNL     1      42.376 -14.763   4.739  1.00  0.00    -0.028 A 
HETATM   13  C   UNL     1      43.335 -15.752   4.424  1.00  0.00     0.049 A 
HETATM   14  C   UNL     1      43.645 -16.767   5.332  1.00  0.00     0.101 A 
HETATM   15  C   UNL     1      42.991 -16.787   6.567  1.00  0.00     0.099 A 
HETATM   16  C   UNL     1      42.046 -15.829   6.906  1.00  0.00     0.040 A 
HETATM   17  C   UNL     1      41.741 -14.820   5.994  1.00  0.00     0.012 A 
BRANCH  14  18
HETATM   18  O   UNL     1      44.553 -17.776   5.141  1.00  0.00    -0.353 OA
HETATM   19  C   UNL     1      44.235 -18.740   4.143  1.00  0.00     0.210 C 
ENDBRANCH  14  18
BRANCH  15  20
HETATM   20  O   UNL     1      43.275 -17.765   7.481  1.00  0.00    -0.358 OA
HETATM   21  H   UNL     1      43.576 -18.527   6.947  1.00  0.00     0.218 HD
ENDBRANCH  15  20
ENDBRANCH   7  12
BRANCH   1  22
HETATM   22  C   UNL     1      43.332 -11.374   6.173  1.00  0.00    -0.002 A 
HETATM   23  C   UNL     1      43.403 -11.138   7.555  1.00  0.00     0.050 A 
HETATM   24  C   UNL     1      44.633 -11.008   8.207  1.00  0.00     0.069 A 
HETATM   25  C   UNL     1      45.812 -11.112   7.469  1.00  0.00     0.037 A 
HETATM   26  C   UNL     1      45.757 -11.334   6.091  1.00  0.00     0.004 A 
HETATM   27  C   UNL     1      44.525 -11.460   5.445  1.00  0.00     0.014 A 
BRANCH  24  28
HETATM   28  O   UNL     1      44.546 -10.783   9.554  1.00  0.00    -0.356 OA
HETATM   29  C   UNL     1      45.217  -9.637  10.061  1.00  0.00     0.210 C 
ENDBRANCH  24  28
ENDBRANCH   1  22
TORSDOF 5
ENDMDL
MODEL 7
REMARK VINA RESULT:      -7.4      2.384      4.444
REMARK  5 active torsions:
REMARK  status: ('A' for Active; 'I' for Inactive)
REMARK    1  A    between atoms: O_2  and  C_3 
REMARK    2  A    between atoms: C_5  and  C_6 
REMARK    3  A    between atoms: C_12  and  C_13 
REMARK    4  A    between atoms: C_15  and  O_16 
REMARK    5  A    between atoms: C_18  and  O_19 
ROOT
HETATM    1  C   UNL     1      42.940 -14.981   5.688  1.00  0.00     0.098 A 
HETATM    2  N   UNL     1      42.770 -15.470   6.942  1.00  0.00    -0.173 NA
HETATM    3  N   UNL     1      43.117 -14.460   7.776  1.00  0.00    -0.272 N 
HETATM    4  H   UNL     1      43.072 -14.609   8.779  1.00  0.00     0.189 HD
HETATM    5  C   UNL     1      43.481 -13.366   7.093  1.00  0.00     0.128 A 
HETATM    6  C   UNL     1      43.372 -13.646   5.761  1.00  0.00     0.034 A 
HETATM    7  C   UNL     1      43.759 -12.461   4.968  1.00  0.00     0.156 A 
HETATM    8  N   UNL     1      44.078 -11.519   6.057  1.00  0.00    -0.343 N 
HETATM    9  C   UNL     1      43.915 -12.044   7.335  1.00  0.00     0.271 A 
HETATM   10  O   UNL     1      44.092 -11.476   8.395  1.00  0.00    -0.266 OA
HETATM   11  H   UNL     1      44.360 -10.561   5.914  1.00  0.00     0.163 HD
ENDROOT
BRANCH   7  12
HETATM   12  C   UNL     1      42.578 -12.021   4.139  1.00  0.00    -0.028 A 
HETATM   13  C   UNL     1      41.313 -11.748   4.707  1.00  0.00     0.049 A 
HETATM   14  C   UNL     1      40.243 -11.332   3.913  1.00  0.00     0.101 A 
HETATM   15  C   UNL     1      40.445 -11.183   2.537  1.00  0.00     0.099 A 
HETATM   16  C   UNL     1      41.675 -11.442   1.951  1.00  0.00     0.040 A 
HETATM   17  C   UNL     1      42.738 -11.859   2.750  1.00  0.00     0.012 A 
BRANCH  14  18
HETATM   18  O   UNL     1      38.976 -11.038   4.347  1.00  0.00    -0.353 OA
HETATM   19  C   UNL     1      38.862 -10.026   5.341  1.00  0.00     0.210 C 
ENDBRANCH  14  18
BRANCH  15  20
HETATM   20  O   UNL     1      39.418 -10.773   1.731  1.00  0.00    -0.358 OA
HETATM   21  H   UNL     1      38.920 -10.126   2.269  1.00  0.00     0.218 HD
ENDBRANCH  15  20
ENDBRANCH   7  12
BRANCH   1  22
HETATM   22  C   UNL     1      42.676 -15.805   4.510  1.00  0.00    -0.002 A 
HETATM   23  C   UNL     1      43.475 -16.928   4.241  1.00  0.00     0.050 A 
HETATM   24  C   UNL     1      43.240 -17.735   3.124  1.00  0.00     0.069 A 
HETATM   25  C   UNL     1      42.192 -17.416   2.259  1.00  0.00     0.037 A 
HETATM   26  C   UNL     1      41.397 -16.296   2.508  1.00  0.00     0.004 A 
HETATM   27  C   UNL     1      41.639 -15.491   3.623  1.00  0.00     0.014 A 
BRANCH  24  28
HETATM   28  O   UNL     1      44.096 -18.794   2.993  1.00  0.00    -0.356 OA
HETATM   29  C   UNL     1      43.611 -19.931   2.290  1.00  0.00     0.210 C 
ENDBRANCH  24  28
ENDBRANCH   1  22
TORSDOF 5
ENDMDL
MODEL 8
REMARK VINA RESULT:      -7.3      5.450      8.294
REMARK  5 active torsions:
REMARK  status: ('A' for Active; 'I' for Inactive)
REMARK    1  A    between atoms: O_2  and  C_3 
REMARK    2  A    between atoms: C_5  and  C_6 
REMARK    3  A    between atoms: C_12  and  C_13 
REMARK    4  A    between atoms: C_15  and  O_16 
REMARK    5  A    between atoms: C_18  and  O_19 
ROOT
HETATM    1  C   UNL     1      43.709 -10.420  10.665  1.00  0.00     0.098 A 
HETATM    2  N   UNL     1      43.973 -11.298  11.664  1.00  0.00    -0.173 NA
HETATM    3  N   UNL     1      43.047 -11.050  12.621  1.00  0.00    -0.272 N 
HETATM    4  H   UNL     1      43.062 -11.595  13.477  1.00  0.00     0.189 HD
HETATM    5  C   UNL     1      42.214 -10.067  12.251  1.00  0.00     0.128 A 
HETATM    6  C   UNL     1      42.589  -9.644  11.008  1.00  0.00     0.034 A 
HETATM    7  C   UNL     1      41.691  -8.561  10.556  1.00  0.00     0.156 A 
HETATM    8  N   UNL     1      40.790  -8.476  11.722  1.00  0.00    -0.343 N 
HETATM    9  C   UNL     1      41.088  -9.371  12.743  1.00  0.00     0.271 A 
HETATM   10  O   UNL     1      40.496  -9.517  13.795  1.00  0.00    -0.266 OA
HETATM   11  H   UNL     1      39.999  -7.853  11.782  1.00  0.00     0.163 HD
ENDROOT
BRANCH   7  12
HETATM   12  C   UNL     1      40.983  -9.006   9.300  1.00  0.00    -0.028 A 
HETATM   13  C   UNL     1      41.549  -8.848   8.015  1.00  0.00     0.049 A 
HETATM   14  C   UNL     1      40.872  -9.281   6.873  1.00  0.00     0.101 A 
HETATM   15  C   UNL     1      39.618  -9.881   7.023  1.00  0.00     0.099 A 
HETATM   16  C   UNL     1      39.038 -10.052   8.271  1.00  0.00     0.040 A 
HETATM   17  C   UNL     1      39.719  -9.616   9.406  1.00  0.00     0.012 A 
BRANCH  14  18
HETATM   18  O   UNL     1      41.317  -9.183   5.580  1.00  0.00    -0.353 OA
HETATM   19  C   UNL     1      42.280 -10.144   5.163  1.00  0.00     0.210 C 
ENDBRANCH  14  18
BRANCH  15  20
HETATM   20  O   UNL     1      38.930 -10.320   5.924  1.00  0.00    -0.358 OA
HETATM   21  H   UNL     1      39.615 -10.473   5.244  1.00  0.00     0.218 HD
ENDBRANCH  15  20
ENDBRANCH   7  12
BRANCH   1  22
HETATM   22  C   UNL     1      44.526 -10.379   9.453  1.00  0.00    -0.002 A 
HETATM   23  C   UNL     1      44.361 -11.356   8.458  1.00  0.00     0.050 A 
HETATM   24  C   UNL     1      45.126 -11.335   7.288  1.00  0.00     0.069 A 
HETATM   25  C   UNL     1      46.072 -10.326   7.108  1.00  0.00     0.037 A 
HETATM   26  C   UNL     1      46.255  -9.355   8.094  1.00  0.00     0.004 A 
HETATM   27  C   UNL     1      45.491  -9.383   9.263  1.00  0.00     0.014 A 
BRANCH  24  28
HETATM   28  O   UNL     1      44.854 -12.347   6.408  1.00  0.00    -0.356 OA
HETATM   29  C   UNL     1      43.774 -13.212   6.735  1.00  0.00     0.210 C 
ENDBRANCH  24  28
ENDBRANCH   1  22
TORSDOF 5
ENDMDL
MODEL 9
REMARK VINA RESULT:      -7.3      2.507      4.202
REMARK  5 active torsions:
REMARK  status: ('A' for Active; 'I' for Inactive)
REMARK    1  A    between atoms: O_2  and  C_3 
REMARK    2  A    between atoms: C_5  and  C_6 
REMARK    3  A    between atoms: C_12  and  C_13 
REMARK    4  A    between atoms: C_15  and  O_16 
REMARK    5  A    between atoms: C_18  and  O_19 
ROOT
HETATM    1  C   UNL     1      42.496 -15.546   3.264  1.00  0.00     0.098 A 
HETATM    2  N   UNL     1      43.400 -15.856   2.302  1.00  0.00    -0.173 NA
HETATM    3  N   UNL     1      42.794 -15.564   1.126  1.00  0.00    -0.272 N 
HETATM    4  H   UNL     1      43.294 -15.727   0.257  1.00  0.00     0.189 HD
HETATM    5  C   UNL     1      41.561 -15.075   1.320  1.00  0.00     0.128 A 
HETATM    6  C   UNL     1      41.332 -15.034   2.665  1.00  0.00     0.034 A 
HETATM    7  C   UNL     1      39.982 -14.493   2.926  1.00  0.00     0.156 A 
HETATM    8  N   UNL     1      39.535 -14.249   1.542  1.00  0.00    -0.343 N 
HETATM    9  C   UNL     1      40.468 -14.589   0.569  1.00  0.00     0.271 A 
HETATM   10  O   UNL     1      40.357 -14.470  -0.636  1.00  0.00    -0.266 OA
HETATM   11  H   UNL     1      38.645 -13.839   1.297  1.00  0.00     0.163 HD
ENDROOT
BRANCH   7  12
HETATM   12  C   UNL     1      40.111 -13.225   3.734  1.00  0.00    -0.028 A 
HETATM   13  C   UNL     1      40.406 -11.977   3.142  1.00  0.00     0.049 A 
HETATM   14  C   UNL     1      40.508 -10.820   3.918  1.00  0.00     0.101 A 
HETATM   15  C   UNL     1      40.307 -10.916   5.298  1.00  0.00     0.099 A 
HETATM   16  C   UNL     1      40.014 -12.127   5.907  1.00  0.00     0.040 A 
HETATM   17  C   UNL     1      39.916 -13.279   5.126  1.00  0.00     0.012 A 
BRANCH  14  18
HETATM   18  O   UNL     1      40.788  -9.559   3.460  1.00  0.00    -0.353 OA
HETATM   19  C   UNL     1      40.793  -9.379   2.048  1.00  0.00     0.210 C 
ENDBRANCH  14  18
BRANCH  15  20
HETATM   20  O   UNL     1      40.395  -9.801   6.086  1.00  0.00    -0.358 OA
HETATM   21  H   UNL     1      40.860 -10.101   6.892  1.00  0.00     0.218 HD
ENDBRANCH  15  20
ENDBRANCH   7  12
BRANCH   1  22
HETATM   22  C   UNL     1      42.794 -15.749   4.680  1.00  0.00    -0.002 A 
HETATM   23  C   UNL     1      43.115 -14.653   5.497  1.00  0.00     0.050 A 
HETATM   24  C   UNL     1      43.399 -14.820   6.856  1.00  0.00     0.069 A 
HETATM   25  C   UNL     1      43.364 -16.100   7.409  1.00  0.00     0.037 A 
HETATM   26  C   UNL     1      43.057 -17.200   6.607  1.00  0.00     0.004 A 
HETATM   27  C   UNL     1      42.778 -17.028   5.249  1.00  0.00     0.014 A 
BRANCH  24  28
HETATM   28  O   UNL     1      43.692 -13.663   7.526  1.00  0.00    -0.356 OA
HETATM   29  C   UNL     1      43.660 -12.457   6.774  1.00  0.00     0.210 C 
ENDBRANCH  24  28
ENDBRANCH   1  22
TORSDOF 5
ENDMDL
MODEL 10
REMARK VINA RESULT:      -7.3     15.728     17.268
REMARK  5 active torsions:
REMARK  status: ('A' for Active; 'I' for Inactive)
REMARK    1  A    between atoms: O_2  and  C_3 
REMARK    2  A    between atoms: C_5  and  C_6 
REMARK    3  A    between atoms: C_12  and  C_13 
REMARK    4  A    between atoms: C_15  and  O_16 
REMARK    5  A    between atoms: C_18  and  O_19 
ROOT
HETATM    1  C   UNL     1      43.863 -29.648  -0.180  1.00  0.00     0.098 A 
HETATM    2  N   UNL     1      42.853 -29.019   0.472  1.00  0.00    -0.173 NA
HETATM    3  N   UNL     1      42.712 -29.678   1.647  1.00  0.00    -0.272 N 
HETATM    4  H   UNL     1      41.996 -29.376   2.301  1.00  0.00     0.189 HD
HETATM    5  C   UNL     1      43.598 -30.678   1.756  1.00  0.00     0.128 A 
HETATM    6  C   UNL     1      44.360 -30.690   0.623  1.00  0.00     0.034 A 
HETATM    7  C   UNL     1      45.357 -31.776   0.702  1.00  0.00     0.156 A 
HETATM    8  N   UNL     1      45.025 -32.329   2.029  1.00  0.00    -0.343 N 
HETATM    9  C   UNL     1      43.977 -31.682   2.673  1.00  0.00     0.271 A 
HETATM   10  O   UNL     1      43.521 -31.927   3.774  1.00  0.00    -0.266 OA
HETATM   11  H   UNL     1      45.523 -33.090   2.468  1.00  0.00     0.163 HD
ENDROOT
BRANCH   7  12
HETATM   12  C   UNL     1      46.740 -31.175   0.647  1.00  0.00    -0.028 A 
HETATM   13  C   UNL     1      47.438 -30.771   1.808  1.00  0.00     0.049 A 
HETATM   14  C   UNL     1      48.721 -30.228   1.722  1.00  0.00     0.101 A 
HETATM   15  C   UNL     1      49.312 -30.094   0.461  1.00  0.00     0.099 A 
HETATM   16  C   UNL     1      48.653 -30.484  -0.695  1.00  0.00     0.040 A 
HETATM   17  C   UNL     1      47.371 -31.023  -0.602  1.00  0.00     0.012 A 
BRANCH  14  18
HETATM   18  O   UNL     1      49.493 -29.802   2.771  1.00  0.00    -0.353 OA
HETATM   19  C   UNL     1      48.888 -28.888   3.679  1.00  0.00     0.210 C 
ENDBRANCH  14  18
BRANCH  15  20
HETATM   20  O   UNL     1      50.570 -29.569   0.343  1.00  0.00    -0.358 OA
HETATM   21  H   UNL     1      50.526 -28.988  -0.442  1.00  0.00     0.218 HD
ENDBRANCH  15  20
ENDBRANCH   7  12
BRANCH   1  22
HETATM   22  C   UNL     1      44.293 -29.220  -1.509  1.00  0.00    -0.002 A 
HETATM   23  C   UNL     1      43.922 -29.961  -2.643  1.00  0.00     0.050 A 
HETATM   24  C   UNL     1      44.316 -29.569  -3.926  1.00  0.00     0.069 A 
HETATM   25  C   UNL     1      45.092 -28.420  -4.082  1.00  0.00     0.037 A 
HETATM   26  C   UNL     1      45.477 -27.680  -2.962  1.00  0.00     0.004 A 
HETATM   27  C   UNL     1      45.085 -28.079  -1.683  1.00  0.00     0.014 A 
BRANCH  24  28
HETATM   28  O   UNL     1      43.879 -30.385  -4.933  1.00  0.00    -0.356 OA
HETATM   29  C   UNL     1      44.873 -30.975  -5.762  1.00  0.00     0.210 C 
ENDBRANCH  24  28
ENDBRANCH   1  22
TORSDOF 5
ENDMDL
