MODEL 1
REMARK VINA RESULT:      -8.7      0.000      0.000
REMARK  5 active torsions:
REMARK  status: ('A' for Active; 'I' for Inactive)
REMARK    1  A    between atoms: C_4  and  C_5 
REMARK    2  A    between atoms: C_17  and  C_18 
REMARK    3  A    between atoms: C_18  and  N_19 
REMARK       I    between atoms: N_19  and  C_20 
REMARK    4  A    between atoms: C_20  and  C_21 
REMARK    5  A    between atoms: C_21  and  C_22 
ROOT
HETATM    1  C   UNL     1      45.948 -10.751   7.227  1.00  0.00     0.048 C 
HETATM    2  C   UNL     1      44.650 -11.455   6.962  1.00  0.00    -0.060 A 
HETATM    3  C   UNL     1      44.614 -12.856   6.796  1.00  0.00     0.024 A 
HETATM    4  C   UNL     1      43.414 -13.547   6.532  1.00  0.00     0.034 A 
HETATM    5  C   UNL     1      42.264 -12.774   6.424  1.00  0.00     0.088 A 
HETATM    6  C   UNL     1      42.289 -11.392   6.572  1.00  0.00    -0.021 A 
HETATM    7  C   UNL     1      40.946 -10.827   6.309  1.00  0.00     0.075 C 
HETATM    8  C   UNL     1      40.116 -12.118   6.316  1.00  0.00     0.151 C 
HETATM    9  O   UNL     1      41.012 -13.244   6.103  1.00  0.00    -0.342 OA
HETATM   10  C   UNL     1      43.467 -10.717   6.843  1.00  0.00     0.017 A 
ENDROOT
BRANCH   8  11
HETATM   11  C   UNL     1      39.045 -12.153   5.217  1.00  0.00     0.155 C 
BRANCH  11  12
HETATM   12  N   UNL     1      39.304 -13.075   4.126  1.00  0.00    -0.359 N 
HETATM   13  C   UNL     1      39.153 -12.712   2.806  1.00  0.00     0.219 C 
HETATM   14  O   UNL     1      38.838 -11.581   2.456  1.00  0.00    -0.274 OA
HETATM   15  H   UNL     1      39.482 -14.045   4.356  1.00  0.00     0.162 HD
BRANCH  13  16
HETATM   16  C   UNL     1      39.401 -13.858   1.844  1.00  0.00     0.128 C 
BRANCH  16  17
HETATM   17  C   UNL     1      40.602 -13.594   0.927  1.00  0.00     0.094 C 
HETATM   18  N   UNL     1      41.480 -12.584   1.502  1.00  0.00    -0.362 N 
HETATM   19  C   UNL     1      42.503 -12.851   2.349  1.00  0.00     0.168 C 
HETATM   20  H   UNL     1      41.202 -11.610   1.418  1.00  0.00     0.162 HD
HETATM   21  S   UNL     1      43.283 -11.640   3.170  1.00  0.00    -0.041 SA
HETATM   22  N   UNL     1      42.882 -14.146   2.480  1.00  0.00    -0.363 N 
HETATM   23  C   UNL     1      42.163 -15.278   1.919  1.00  0.00     0.081 C 
HETATM   24  H   UNL     1      43.604 -14.315   3.173  1.00  0.00     0.162 HD
HETATM   25  C   UNL     1      43.121 -16.431   1.638  1.00  0.00     0.032 C 
HETATM   26  C   UNL     1      41.412 -14.864   0.654  1.00  0.00     0.050 C 
ENDBRANCH  16  17
ENDBRANCH  13  16
ENDBRANCH  11  12
ENDBRANCH   8  11
BRANCH   4  27
HETATM   27  C   UNL     1      43.458 -15.006   6.357  1.00  0.00     0.112 A 
HETATM   28  S   UNL     1      43.029 -16.080   7.632  1.00  0.00    -0.067 SA
HETATM   29  C   UNL     1      43.399 -17.432   6.636  1.00  0.00     0.035 A 
HETATM   30  C   UNL     1      43.852 -16.971   5.401  1.00  0.00     0.075 A 
HETATM   31  C   UNL     1      43.302 -18.803   6.928  1.00  0.00     0.021 A 
HETATM   32  N   UNL     1      43.898 -15.596   5.262  1.00  0.00    -0.239 NA
HETATM   33  C   UNL     1      44.222 -17.914   4.420  1.00  0.00     0.033 A 
HETATM   34  C   UNL     1      44.128 -19.282   4.699  1.00  0.00     0.002 A 
HETATM   35  C   UNL     1      43.673 -19.718   5.938  1.00  0.00     0.002 A 
ENDBRANCH   4  27
TORSDOF 5
ENDMDL
MODEL 2
REMARK VINA RESULT:      -8.6      2.883      7.282
REMARK  5 active torsions:
REMARK  status: ('A' for Active; 'I' for Inactive)
REMARK    1  A    between atoms: C_4  and  C_5 
REMARK    2  A    between atoms: C_17  and  C_18 
REMARK    3  A    between atoms: C_18  and  N_19 
REMARK       I    between atoms: N_19  and  C_20 
REMARK    4  A    between atoms: C_20  and  C_21 
REMARK    5  A    between atoms: C_21  and  C_22 
ROOT
HETATM    1  C   UNL     1      44.018 -18.856   2.448  1.00  0.00     0.048 C 
HETATM    2  C   UNL     1      43.078 -17.758   2.852  1.00  0.00    -0.060 A 
HETATM    3  C   UNL     1      42.515 -16.902   1.883  1.00  0.00     0.024 A 
HETATM    4  C   UNL     1      41.641 -15.852   2.230  1.00  0.00     0.034 A 
HETATM    5  C   UNL     1      41.373 -15.690   3.585  1.00  0.00     0.088 A 
HETATM    6  C   UNL     1      41.932 -16.520   4.549  1.00  0.00    -0.021 A 
HETATM    7  C   UNL     1      41.552 -16.055   5.903  1.00  0.00     0.075 C 
HETATM    8  C   UNL     1      40.448 -15.056   5.533  1.00  0.00     0.151 C 
HETATM    9  O   UNL     1      40.607 -14.690   4.134  1.00  0.00    -0.342 OA
HETATM   10  C   UNL     1      42.782 -17.557   4.205  1.00  0.00     0.017 A 
ENDROOT
BRANCH   8  11
HETATM   11  C   UNL     1      40.496 -13.767   6.365  1.00  0.00     0.155 C 
BRANCH  11  12
HETATM   12  N   UNL     1      41.821 -13.343   6.780  1.00  0.00    -0.359 N 
HETATM   13  C   UNL     1      42.621 -12.554   5.985  1.00  0.00     0.219 C 
HETATM   14  O   UNL     1      42.261 -12.114   4.900  1.00  0.00    -0.274 OA
HETATM   15  H   UNL     1      42.206 -13.746   7.626  1.00  0.00     0.162 HD
BRANCH  13  16
HETATM   16  C   UNL     1      43.991 -12.304   6.587  1.00  0.00     0.128 C 
BRANCH  16  17
HETATM   17  C   UNL     1      44.296 -10.806   6.728  1.00  0.00     0.094 C 
HETATM   18  N   UNL     1      43.067 -10.026   6.733  1.00  0.00    -0.362 N 
HETATM   19  C   UNL     1      42.352  -9.731   7.845  1.00  0.00     0.168 C 
HETATM   20  H   UNL     1      42.613  -9.849   5.841  1.00  0.00     0.162 HD
HETATM   21  S   UNL     1      40.832  -9.076   7.746  1.00  0.00    -0.041 SA
HETATM   22  N   UNL     1      42.937  -9.969   9.045  1.00  0.00    -0.363 N 
HETATM   23  C   UNL     1      44.195 -10.675   9.224  1.00  0.00     0.081 C 
HETATM   24  H   UNL     1      42.347  -9.800   9.853  1.00  0.00     0.162 HD
HETATM   25  C   UNL     1      44.896 -10.201  10.493  1.00  0.00     0.032 C 
HETATM   26  C   UNL     1      45.091 -10.496   7.999  1.00  0.00     0.050 C 
ENDBRANCH  16  17
ENDBRANCH  13  16
ENDBRANCH  11  12
ENDBRANCH   8  11
BRANCH   4  27
HETATM   27  C   UNL     1      41.105 -14.992   1.165  1.00  0.00     0.112 A 
HETATM   28  S   UNL     1      41.508 -13.321   1.067  1.00  0.00    -0.067 SA
HETATM   29  C   UNL     1      40.487 -13.142  -0.305  1.00  0.00     0.035 A 
HETATM   30  C   UNL     1      39.885 -14.368  -0.583  1.00  0.00     0.075 A 
HETATM   31  C   UNL     1      40.233 -11.997  -1.078  1.00  0.00     0.021 A 
HETATM   32  N   UNL     1      40.229 -15.403   0.268  1.00  0.00    -0.239 NA
HETATM   33  C   UNL     1      38.996 -14.455  -1.673  1.00  0.00     0.033 A 
HETATM   34  C   UNL     1      38.736 -13.322  -2.451  1.00  0.00     0.002 A 
HETATM   35  C   UNL     1      39.348 -12.109  -2.156  1.00  0.00     0.002 A 
ENDBRANCH   4  27
TORSDOF 5
ENDMDL
MODEL 3
REMARK VINA RESULT:      -8.5      3.106      7.594
REMARK  5 active torsions:
REMARK  status: ('A' for Active; 'I' for Inactive)
REMARK    1  A    between atoms: C_4  and  C_5 
REMARK    2  A    between atoms: C_17  and  C_18 
REMARK    3  A    between atoms: C_18  and  N_19 
REMARK       I    between atoms: N_19  and  C_20 
REMARK    4  A    between atoms: C_20  and  C_21 
REMARK    5  A    between atoms: C_21  and  C_22 
ROOT
HETATM    1  C   UNL     1      43.901 -20.050   2.417  1.00  0.00     0.048 C 
HETATM    2  C   UNL     1      43.582 -18.715   3.022  1.00  0.00    -0.060 A 
HETATM    3  C   UNL     1      42.967 -17.705   2.252  1.00  0.00     0.024 A 
HETATM    4  C   UNL     1      42.667 -16.435   2.785  1.00  0.00     0.034 A 
HETATM    5  C   UNL     1      43.026 -16.219   4.110  1.00  0.00     0.088 A 
HETATM    6  C   UNL     1      43.644 -17.202   4.875  1.00  0.00    -0.021 A 
HETATM    7  C   UNL     1      43.997 -16.662   6.208  1.00  0.00     0.075 C 
HETATM    8  C   UNL     1      43.197 -15.353   6.178  1.00  0.00     0.151 C 
HETATM    9  O   UNL     1      42.886 -15.034   4.793  1.00  0.00    -0.342 OA
HETATM   10  C   UNL     1      43.928 -18.452   4.353  1.00  0.00     0.017 A 
ENDROOT
BRANCH   8  11
HETATM   11  C   UNL     1      43.961 -14.164   6.775  1.00  0.00     0.155 C 
BRANCH  11  12
HETATM   12  N   UNL     1      43.448 -12.853   6.419  1.00  0.00    -0.359 N 
HETATM   13  C   UNL     1      43.871 -11.703   7.046  1.00  0.00     0.219 C 
HETATM   14  O   UNL     1      44.739 -11.694   7.910  1.00  0.00    -0.274 OA
HETATM   15  H   UNL     1      42.667 -12.808   5.774  1.00  0.00     0.162 HD
BRANCH  13  16
HETATM   16  C   UNL     1      43.140 -10.463   6.566  1.00  0.00     0.128 C 
BRANCH  16  17
HETATM   17  C   UNL     1      42.015 -10.049   7.524  1.00  0.00     0.094 C 
HETATM   18  N   UNL     1      42.478 -10.062   8.904  1.00  0.00    -0.362 N 
HETATM   19  C   UNL     1      43.057  -9.008   9.527  1.00  0.00     0.168 C 
HETATM   20  H   UNL     1      42.545 -10.961   9.374  1.00  0.00     0.162 HD
HETATM   21  S   UNL     1      43.800  -9.177  11.000  1.00  0.00    -0.041 SA
HETATM   22  N   UNL     1      42.985  -7.802   8.912  1.00  0.00    -0.363 N 
HETATM   23  C   UNL     1      42.489  -7.593   7.562  1.00  0.00     0.081 C 
HETATM   24  H   UNL     1      43.488  -7.052   9.374  1.00  0.00     0.162 HD
HETATM   25  C   UNL     1      41.904  -6.191   7.420  1.00  0.00     0.032 C 
HETATM   26  C   UNL     1      41.459  -8.661   7.195  1.00  0.00     0.050 C 
ENDBRANCH  16  17
ENDBRANCH  13  16
ENDBRANCH  11  12
ENDBRANCH   8  11
BRANCH   4  27
HETATM   27  C   UNL     1      42.038 -15.430   1.916  1.00  0.00     0.112 A 
HETATM   28  S   UNL     1      42.511 -13.776   1.963  1.00  0.00    -0.067 SA
HETATM   29  C   UNL     1      41.325 -13.390   0.778  1.00  0.00     0.035 A 
HETATM   30  C   UNL     1      40.628 -14.549   0.444  1.00  0.00     0.075 A 
HETATM   31  C   UNL     1      41.029 -12.149   0.190  1.00  0.00     0.021 A 
HETATM   32  N   UNL     1      41.029 -15.695   1.108  1.00  0.00    -0.239 NA
HETATM   33  C   UNL     1      39.596 -14.468  -0.513  1.00  0.00     0.033 A 
HETATM   34  C   UNL     1      39.293 -13.238  -1.107  1.00  0.00     0.002 A 
HETATM   35  C   UNL     1      40.002 -12.094  -0.758  1.00  0.00     0.002 A 
ENDBRANCH   4  27
TORSDOF 5
ENDMDL
MODEL 4
REMARK VINA RESULT:      -8.5      2.212      6.785
REMARK  5 active torsions:
REMARK  status: ('A' for Active; 'I' for Inactive)
REMARK    1  A    between atoms: C_4  and  C_5 
REMARK    2  A    between atoms: C_17  and  C_18 
REMARK    3  A    between atoms: C_18  and  N_19 
REMARK       I    between atoms: N_19  and  C_20 
REMARK    4  A    between atoms: C_20  and  C_21 
REMARK    5  A    between atoms: C_21  and  C_22 
ROOT
HETATM    1  C   UNL     1      43.483 -19.748   2.133  1.00  0.00     0.048 C 
HETATM    2  C   UNL     1      43.259 -18.484   2.910  1.00  0.00    -0.060 A 
HETATM    3  C   UNL     1      42.432 -17.462   2.396  1.00  0.00     0.024 A 
HETATM    4  C   UNL     1      42.213 -16.257   3.093  1.00  0.00     0.034 A 
HETATM    5  C   UNL     1      42.869 -16.116   4.310  1.00  0.00     0.088 A 
HETATM    6  C   UNL     1      43.696 -17.110   4.819  1.00  0.00    -0.021 A 
HETATM    7  C   UNL     1      44.335 -16.648   6.073  1.00  0.00     0.075 C 
HETATM    8  C   UNL     1      43.493 -15.394   6.346  1.00  0.00     0.151 C 
HETATM    9  O   UNL     1      42.844 -14.996   5.107  1.00  0.00    -0.342 OA
HETATM   10  C   UNL     1      43.902 -18.297   4.139  1.00  0.00     0.017 A 
ENDROOT
BRANCH   8  11
HETATM   11  C   UNL     1      44.324 -14.205   6.847  1.00  0.00     0.155 C 
BRANCH  11  12
HETATM   12  N   UNL     1      43.559 -13.041   7.257  1.00  0.00    -0.359 N 
HETATM   13  C   UNL     1      44.084 -11.769   7.225  1.00  0.00     0.219 C 
HETATM   14  O   UNL     1      45.209 -11.520   6.808  1.00  0.00    -0.274 OA
HETATM   15  H   UNL     1      42.657 -13.194   7.692  1.00  0.00     0.162 HD
BRANCH  13  16
HETATM   16  C   UNL     1      43.134 -10.722   7.774  1.00  0.00     0.128 C 
BRANCH  16  17
HETATM   17  C   UNL     1      42.508  -9.869   6.661  1.00  0.00     0.094 C 
HETATM   18  N   UNL     1      42.976 -10.303   5.352  1.00  0.00    -0.362 N 
HETATM   19  C   UNL     1      42.381 -11.265   4.607  1.00  0.00     0.168 C 
HETATM   20  H   UNL     1      43.902 -10.008   5.057  1.00  0.00     0.162 HD
HETATM   21  S   UNL     1      43.116 -11.893   3.260  1.00  0.00    -0.041 SA
HETATM   22  N   UNL     1      41.147 -11.678   4.991  1.00  0.00    -0.363 N 
HETATM   23  C   UNL     1      40.497 -11.294   6.233  1.00  0.00     0.081 C 
HETATM   24  H   UNL     1      40.763 -12.446   4.450  1.00  0.00     0.162 HD
HETATM   25  C   UNL     1      38.981 -11.323   6.072  1.00  0.00     0.032 C 
HETATM   26  C   UNL     1      40.978  -9.917   6.688  1.00  0.00     0.050 C 
ENDBRANCH  16  17
ENDBRANCH  13  16
ENDBRANCH  11  12
ENDBRANCH   8  11
BRANCH   4  27
HETATM   27  C   UNL     1      41.349 -15.233   2.488  1.00  0.00     0.112 A 
HETATM   28  S   UNL     1      41.496 -14.796   0.829  1.00  0.00    -0.067 SA
HETATM   29  C   UNL     1      40.256 -13.619   1.016  1.00  0.00     0.035 A 
HETATM   30  C   UNL     1      39.828 -13.621   2.342  1.00  0.00     0.075 A 
HETATM   31  C   UNL     1      39.704 -12.752   0.058  1.00  0.00     0.021 A 
HETATM   32  N   UNL     1      40.467 -14.527   3.170  1.00  0.00    -0.239 NA
HETATM   33  C   UNL     1      38.811 -12.724   2.728  1.00  0.00     0.033 A 
HETATM   34  C   UNL     1      38.253 -11.857   1.783  1.00  0.00     0.002 A 
HETATM   35  C   UNL     1      38.696 -11.872   0.464  1.00  0.00     0.002 A 
ENDBRANCH   4  27
TORSDOF 5
ENDMDL
MODEL 5
REMARK VINA RESULT:      -8.5      3.676      8.208
REMARK  5 active torsions:
REMARK  status: ('A' for Active; 'I' for Inactive)
REMARK    1  A    between atoms: C_4  and  C_5 
REMARK    2  A    between atoms: C_17  and  C_18 
REMARK    3  A    between atoms: C_18  and  N_19 
REMARK       I    between atoms: N_19  and  C_20 
REMARK    4  A    between atoms: C_20  and  C_21 
REMARK    5  A    between atoms: C_21  and  C_22 
ROOT
HETATM    1  C   UNL     1      43.549 -19.309   2.658  1.00  0.00     0.048 C 
HETATM    2  C   UNL     1      43.284 -17.911   3.137  1.00  0.00    -0.060 A 
HETATM    3  C   UNL     1      42.580 -16.996   2.327  1.00  0.00     0.024 A 
HETATM    4  C   UNL     1      42.327 -15.672   2.741  1.00  0.00     0.034 A 
HETATM    5  C   UNL     1      42.825 -15.306   3.986  1.00  0.00     0.088 A 
HETATM    6  C   UNL     1      43.530 -16.196   4.787  1.00  0.00    -0.021 A 
HETATM    7  C   UNL     1      44.020 -15.507   6.004  1.00  0.00     0.075 C 
HETATM    8  C   UNL     1      43.209 -14.208   5.911  1.00  0.00     0.151 C 
HETATM    9  O   UNL     1      42.747 -14.050   4.540  1.00  0.00    -0.342 OA
HETATM   10  C   UNL     1      43.768 -17.498   4.384  1.00  0.00     0.017 A 
ENDROOT
BRANCH   8  11
HETATM   11  C   UNL     1      44.021 -12.960   6.281  1.00  0.00     0.155 C 
BRANCH  11  12
HETATM   12  N   UNL     1      43.635 -12.314   7.523  1.00  0.00    -0.359 N 
HETATM   13  C   UNL     1      44.340 -11.255   8.049  1.00  0.00     0.219 C 
HETATM   14  O   UNL     1      45.308 -10.753   7.492  1.00  0.00    -0.274 OA
HETATM   15  H   UNL     1      42.898 -12.740   8.072  1.00  0.00     0.162 HD
BRANCH  13  16
HETATM   16  C   UNL     1      43.803 -10.794   9.391  1.00  0.00     0.128 C 
BRANCH  16  17
HETATM   17  C   UNL     1      43.238  -9.368   9.329  1.00  0.00     0.094 C 
HETATM   18  N   UNL     1      41.784  -9.390   9.267  1.00  0.00    -0.362 N 
HETATM   19  C   UNL     1      40.971  -9.397  10.350  1.00  0.00     0.168 C 
HETATM   20  H   UNL     1      41.350  -9.600   8.372  1.00  0.00     0.162 HD
HETATM   21  S   UNL     1      39.346  -9.694  10.209  1.00  0.00    -0.041 SA
HETATM   22  N   UNL     1      41.534  -9.127  11.554  1.00  0.00    -0.363 N 
HETATM   23  C   UNL     1      42.963  -9.005  11.788  1.00  0.00     0.081 C 
HETATM   24  H   UNL     1      40.909  -9.208  12.349  1.00  0.00     0.162 HD
HETATM   25  C   UNL     1      43.233  -8.073  12.965  1.00  0.00     0.032 C 
HETATM   26  C   UNL     1      43.676  -8.521  10.526  1.00  0.00     0.050 C 
ENDBRANCH  16  17
ENDBRANCH  13  16
ENDBRANCH  11  12
ENDBRANCH   8  11
BRANCH   4  27
HETATM   27  C   UNL     1      41.599 -14.772   1.836  1.00  0.00     0.112 A 
HETATM   28  S   UNL     1      40.212 -15.299   0.963  1.00  0.00    -0.067 SA
HETATM   29  C   UNL     1      40.084 -13.759   0.210  1.00  0.00     0.035 A 
HETATM   30  C   UNL     1      41.127 -12.950   0.657  1.00  0.00     0.075 A 
HETATM   31  C   UNL     1      39.131 -13.300  -0.715  1.00  0.00     0.021 A 
HETATM   32  N   UNL     1      41.989 -13.540   1.564  1.00  0.00    -0.239 NA
HETATM   33  C   UNL     1      41.223 -11.633   0.163  1.00  0.00     0.033 A 
HETATM   34  C   UNL     1      40.280 -11.164  -0.758  1.00  0.00     0.002 A 
HETATM   35  C   UNL     1      39.247 -11.989  -1.190  1.00  0.00     0.002 A 
ENDBRANCH   4  27
TORSDOF 5
ENDMDL
MODEL 6
REMARK VINA RESULT:      -8.4      2.999      3.853
REMARK  5 active torsions:
REMARK  status: ('A' for Active; 'I' for Inactive)
REMARK    1  A    between atoms: C_4  and  C_5 
REMARK    2  A    between atoms: C_17  and  C_18 
REMARK    3  A    between atoms: C_18  and  N_19 
REMARK       I    between atoms: N_19  and  C_20 
REMARK    4  A    between atoms: C_20  and  C_21 
REMARK    5  A    between atoms: C_21  and  C_22 
ROOT
HETATM    1  C   UNL     1      44.898 -11.773   6.771  1.00  0.00     0.048 C 
HETATM    2  C   UNL     1      43.845 -12.594   6.085  1.00  0.00    -0.060 A 
HETATM    3  C   UNL     1      43.965 -13.998   6.009  1.00  0.00     0.024 A 
HETATM    4  C   UNL     1      43.002 -14.796   5.359  1.00  0.00     0.034 A 
HETATM    5  C   UNL     1      41.931 -14.126   4.777  1.00  0.00     0.088 A 
HETATM    6  C   UNL     1      41.810 -12.743   4.835  1.00  0.00    -0.021 A 
HETATM    7  C   UNL     1      40.633 -12.302   4.051  1.00  0.00     0.075 C 
HETATM    8  C   UNL     1      39.948 -13.657   3.829  1.00  0.00     0.151 C 
HETATM    9  O   UNL     1      40.928 -14.710   4.041  1.00  0.00    -0.342 OA
HETATM   10  C   UNL     1      42.751 -11.961   5.483  1.00  0.00     0.017 A 
ENDROOT
BRANCH   8  11
HETATM   11  C   UNL     1      39.378 -13.821   2.414  1.00  0.00     0.155 C 
BRANCH  11  12
HETATM   12  N   UNL     1      39.718 -12.763   1.480  1.00  0.00    -0.359 N 
HETATM   13  C   UNL     1      40.716 -12.905   0.541  1.00  0.00     0.219 C 
HETATM   14  O   UNL     1      41.352 -13.941   0.393  1.00  0.00    -0.274 OA
HETATM   15  H   UNL     1      39.287 -11.856   1.611  1.00  0.00     0.162 HD
BRANCH  13  16
HETATM   16  C   UNL     1      40.949 -11.645  -0.270  1.00  0.00     0.128 C 
BRANCH  16  17
HETATM   17  C   UNL     1      41.297 -11.955  -1.733  1.00  0.00     0.094 C 
HETATM   18  N   UNL     1      40.606 -13.154  -2.185  1.00  0.00    -0.362 N 
HETATM   19  C   UNL     1      39.370 -13.163  -2.738  1.00  0.00     0.168 C 
HETATM   20  H   UNL     1      40.985 -14.055  -1.905  1.00  0.00     0.162 HD
HETATM   21  S   UNL     1      38.542 -14.580  -2.979  1.00  0.00    -0.041 SA
HETATM   22  N   UNL     1      38.844 -11.970  -3.111  1.00  0.00    -0.363 N 
HETATM   23  C   UNL     1      39.431 -10.677  -2.803  1.00  0.00     0.081 C 
HETATM   24  H   UNL     1      37.891 -12.009  -3.457  1.00  0.00     0.162 HD
HETATM   25  C   UNL     1      39.050  -9.651  -3.865  1.00  0.00     0.032 C 
HETATM   26  C   UNL     1      40.949 -10.794  -2.668  1.00  0.00     0.050 C 
ENDBRANCH  16  17
ENDBRANCH  13  16
ENDBRANCH  11  12
ENDBRANCH   8  11
BRANCH   4  27
HETATM   27  C   UNL     1      43.202 -16.251   5.308  1.00  0.00     0.112 A 
HETATM   28  S   UNL     1      43.177 -17.215   6.734  1.00  0.00    -0.067 SA
HETATM   29  C   UNL     1      43.519 -18.621   5.806  1.00  0.00     0.035 A 
HETATM   30  C   UNL     1      43.657 -18.256   4.468  1.00  0.00     0.075 A 
HETATM   31  C   UNL     1      43.662 -19.952   6.232  1.00  0.00     0.021 A 
HETATM   32  N   UNL     1      43.493 -16.908   4.201  1.00  0.00    -0.239 NA
HETATM   33  C   UNL     1      43.948 -19.257   3.519  1.00  0.00     0.033 A 
HETATM   34  C   UNL     1      44.091 -20.586   3.930  1.00  0.00     0.002 A 
HETATM   35  C   UNL     1      43.949 -20.927   5.271  1.00  0.00     0.002 A 
ENDBRANCH   4  27
TORSDOF 5
ENDMDL
MODEL 7
REMARK VINA RESULT:      -8.4      4.270      7.395
REMARK  5 active torsions:
REMARK  status: ('A' for Active; 'I' for Inactive)
REMARK    1  A    between atoms: C_4  and  C_5 
REMARK    2  A    between atoms: C_17  and  C_18 
REMARK    3  A    between atoms: C_18  and  N_19 
REMARK       I    between atoms: N_19  and  C_20 
REMARK    4  A    between atoms: C_20  and  C_21 
REMARK    5  A    between atoms: C_21  and  C_22 
ROOT
HETATM    1  C   UNL     1      38.684 -11.670   3.734  1.00  0.00     0.048 C 
HETATM    2  C   UNL     1      40.073 -11.969   4.219  1.00  0.00    -0.060 A 
HETATM    3  C   UNL     1      40.616 -13.264   4.089  1.00  0.00     0.024 A 
HETATM    4  C   UNL     1      41.912 -13.581   4.546  1.00  0.00     0.034 A 
HETATM    5  C   UNL     1      42.624 -12.553   5.151  1.00  0.00     0.088 A 
HETATM    6  C   UNL     1      42.095 -11.277   5.296  1.00  0.00    -0.021 A 
HETATM    7  C   UNL     1      43.032 -10.421   6.060  1.00  0.00     0.075 C 
HETATM    8  C   UNL     1      44.280 -11.311   6.029  1.00  0.00     0.151 C 
HETATM    9  O   UNL     1      43.869 -12.673   5.724  1.00  0.00    -0.342 OA
HETATM   10  C   UNL     1      40.827 -10.964   4.837  1.00  0.00     0.017 A 
ENDROOT
BRANCH   8  11
HETATM   11  C   UNL     1      45.039 -11.336   7.362  1.00  0.00     0.155 C 
BRANCH  11  12
HETATM   12  N   UNL     1      44.211 -11.230   8.550  1.00  0.00    -0.359 N 
HETATM   13  C   UNL     1      44.547 -10.417   9.610  1.00  0.00     0.219 C 
HETATM   14  O   UNL     1      45.535  -9.693   9.610  1.00  0.00    -0.274 OA
HETATM   15  H   UNL     1      43.431 -11.869   8.644  1.00  0.00     0.162 HD
BRANCH  13  16
HETATM   16  C   UNL     1      43.579 -10.528  10.772  1.00  0.00     0.128 C 
BRANCH  16  17
HETATM   17  C   UNL     1      42.517  -9.420  10.748  1.00  0.00     0.094 C 
HETATM   18  N   UNL     1      41.234  -9.923  11.220  1.00  0.00    -0.362 N 
HETATM   19  C   UNL     1      40.843  -9.925  12.517  1.00  0.00     0.168 C 
HETATM   20  H   UNL     1      40.673 -10.473  10.576  1.00  0.00     0.162 HD
HETATM   21  S   UNL     1      39.494 -10.753  13.011  1.00  0.00    -0.041 SA
HETATM   22  N   UNL     1      41.585  -9.203  13.393  1.00  0.00    -0.363 N 
HETATM   23  C   UNL     1      42.856  -8.575  13.077  1.00  0.00     0.081 C 
HETATM   24  H   UNL     1      41.302  -9.284  14.364  1.00  0.00     0.162 HD
HETATM   25  C   UNL     1      43.078  -7.348  13.956  1.00  0.00     0.032 C 
HETATM   26  C   UNL     1      42.924  -8.212  11.595  1.00  0.00     0.050 C 
ENDBRANCH  16  17
ENDBRANCH  13  16
ENDBRANCH  11  12
ENDBRANCH   8  11
BRANCH   4  27
HETATM   27  C   UNL     1      42.403 -14.958   4.388  1.00  0.00     0.112 A 
HETATM   28  S   UNL     1      43.057 -15.839   5.714  1.00  0.00    -0.067 SA
HETATM   29  C   UNL     1      43.383 -17.176   4.682  1.00  0.00     0.035 A 
HETATM   30  C   UNL     1      42.993 -16.849   3.385  1.00  0.00     0.075 A 
HETATM   31  C   UNL     1      43.949 -18.422   4.997  1.00  0.00     0.021 A 
HETATM   32  N   UNL     1      42.456 -15.584   3.228  1.00  0.00    -0.239 NA
HETATM   33  C   UNL     1      43.174 -17.803   2.363  1.00  0.00     0.033 A 
HETATM   34  C   UNL     1      43.735 -19.048   2.664  1.00  0.00     0.002 A 
HETATM   35  C   UNL     1      44.117 -19.352   3.966  1.00  0.00     0.002 A 
ENDBRANCH   4  27
TORSDOF 5
ENDMDL
MODEL 8
REMARK VINA RESULT:      -8.3      1.755      2.357
REMARK  5 active torsions:
REMARK  status: ('A' for Active; 'I' for Inactive)
REMARK    1  A    between atoms: C_4  and  C_5 
REMARK    2  A    between atoms: C_17  and  C_18 
REMARK    3  A    between atoms: C_18  and  N_19 
REMARK       I    between atoms: N_19  and  C_20 
REMARK    4  A    between atoms: C_20  and  C_21 
REMARK    5  A    between atoms: C_21  and  C_22 
ROOT
HETATM    1  C   UNL     1      45.483 -10.857   7.848  1.00  0.00     0.048 C 
HETATM    2  C   UNL     1      44.272 -11.465   7.204  1.00  0.00    -0.060 A 
HETATM    3  C   UNL     1      44.328 -12.760   6.646  1.00  0.00     0.024 A 
HETATM    4  C   UNL     1      43.213 -13.354   6.021  1.00  0.00     0.034 A 
HETATM    5  C   UNL     1      42.053 -12.591   5.967  1.00  0.00     0.088 A 
HETATM    6  C   UNL     1      41.989 -11.310   6.503  1.00  0.00    -0.021 A 
HETATM    7  C   UNL     1      40.669 -10.703   6.214  1.00  0.00     0.075 C 
HETATM    8  C   UNL     1      39.912 -11.946   5.731  1.00  0.00     0.151 C 
HETATM    9  O   UNL     1      40.884 -12.957   5.344  1.00  0.00    -0.342 OA
HETATM   10  C   UNL     1      43.082 -10.732   7.125  1.00  0.00     0.017 A 
ENDROOT
BRANCH   8  11
HETATM   11  C   UNL     1      39.008 -11.673   4.522  1.00  0.00     0.155 C 
BRANCH  11  12
HETATM   12  N   UNL     1      39.694 -11.226   3.322  1.00  0.00    -0.359 N 
HETATM   13  C   UNL     1      39.202 -11.472   2.060  1.00  0.00     0.219 C 
HETATM   14  O   UNL     1      38.135 -12.039   1.857  1.00  0.00    -0.274 OA
HETATM   15  H   UNL     1      40.621 -10.830   3.425  1.00  0.00     0.162 HD
BRANCH  13  16
HETATM   16  C   UNL     1      40.124 -10.984   0.959  1.00  0.00     0.128 C 
BRANCH  16  17
HETATM   17  C   UNL     1      41.119 -12.065   0.516  1.00  0.00     0.094 C 
HETATM   18  N   UNL     1      40.986 -13.259   1.339  1.00  0.00    -0.362 N 
HETATM   19  C   UNL     1      40.138 -14.282   1.072  1.00  0.00     0.168 C 
HETATM   20  H   UNL     1      41.409 -13.249   2.263  1.00  0.00     0.162 HD
HETATM   21  S   UNL     1      39.845 -15.474   2.187  1.00  0.00    -0.041 SA
HETATM   22  N   UNL     1      39.557 -14.307  -0.152  1.00  0.00    -0.363 N 
HETATM   23  C   UNL     1      39.640 -13.233  -1.128  1.00  0.00     0.081 C 
HETATM   24  H   UNL     1      38.878 -15.049  -0.291  1.00  0.00     0.162 HD
HETATM   25  C   UNL     1      39.515 -13.788  -2.543  1.00  0.00     0.032 C 
HETATM   26  C   UNL     1      40.939 -12.448  -0.955  1.00  0.00     0.050 C 
ENDBRANCH  16  17
ENDBRANCH  13  16
ENDBRANCH  11  12
ENDBRANCH   8  11
BRANCH   4  27
HETATM   27  C   UNL     1      43.354 -14.701   5.449  1.00  0.00     0.112 A 
HETATM   28  S   UNL     1      43.984 -16.011   6.371  1.00  0.00    -0.067 SA
HETATM   29  C   UNL     1      43.843 -17.053   5.011  1.00  0.00     0.035 A 
HETATM   30  C   UNL     1      43.347 -16.324   3.933  1.00  0.00     0.075 A 
HETATM   31  C   UNL     1      44.154 -18.419   4.904  1.00  0.00     0.021 A 
HETATM   32  N   UNL     1      43.090 -14.988   4.188  1.00  0.00    -0.239 NA
HETATM   33  C   UNL     1      43.154 -16.981   2.701  1.00  0.00     0.033 A 
HETATM   34  C   UNL     1      43.459 -18.341   2.582  1.00  0.00     0.002 A 
HETATM   35  C   UNL     1      43.953 -19.049   3.672  1.00  0.00     0.002 A 
ENDBRANCH   4  27
TORSDOF 5
ENDMDL
MODEL 9
REMARK VINA RESULT:      -8.1      4.649      7.495
REMARK  5 active torsions:
REMARK  status: ('A' for Active; 'I' for Inactive)
REMARK    1  A    between atoms: C_4  and  C_5 
REMARK    2  A    between atoms: C_17  and  C_18 
REMARK    3  A    between atoms: C_18  and  N_19 
REMARK       I    between atoms: N_19  and  C_20 
REMARK    4  A    between atoms: C_20  and  C_21 
REMARK    5  A    between atoms: C_21  and  C_22 
ROOT
HETATM    1  C   UNL     1      38.783 -12.254   2.372  1.00  0.00     0.048 C 
HETATM    2  C   UNL     1      40.025 -12.521   3.172  1.00  0.00    -0.060 A 
HETATM    3  C   UNL     1      40.633 -13.794   3.151  1.00  0.00     0.024 A 
HETATM    4  C   UNL     1      41.791 -14.082   3.902  1.00  0.00     0.034 A 
HETATM    5  C   UNL     1      42.296 -13.050   4.683  1.00  0.00     0.088 A 
HETATM    6  C   UNL     1      41.698 -11.796   4.721  1.00  0.00    -0.021 A 
HETATM    7  C   UNL     1      42.390 -10.933   5.707  1.00  0.00     0.075 C 
HETATM    8  C   UNL     1      43.642 -11.781   5.961  1.00  0.00     0.151 C 
HETATM    9  O   UNL     1      43.369 -13.146   5.537  1.00  0.00    -0.342 OA
HETATM   10  C   UNL     1      40.568 -11.511   3.975  1.00  0.00     0.017 A 
ENDROOT
BRANCH   8  11
HETATM   11  C   UNL     1      44.057 -11.820   7.437  1.00  0.00     0.155 C 
BRANCH  11  12
HETATM   12  N   UNL     1      43.498 -10.769   8.268  1.00  0.00    -0.359 N 
HETATM   13  C   UNL     1      44.070 -10.395   9.463  1.00  0.00     0.219 C 
HETATM   14  O   UNL     1      45.111 -10.882   9.888  1.00  0.00    -0.274 OA
HETATM   15  H   UNL     1      42.593 -10.391   8.012  1.00  0.00     0.162 HD
BRANCH  13  16
HETATM   16  C   UNL     1      43.271  -9.334  10.197  1.00  0.00     0.128 C 
BRANCH  16  17
HETATM   17  C   UNL     1      43.456  -9.420  11.718  1.00  0.00     0.094 C 
HETATM   18  N   UNL     1      43.392  -8.097  12.322  1.00  0.00    -0.362 N 
HETATM   19  C   UNL     1      42.251  -7.503  12.745  1.00  0.00     0.168 C 
HETATM   20  H   UNL     1      44.215  -7.504  12.256  1.00  0.00     0.162 HD
HETATM   21  S   UNL     1      42.217  -5.900  13.170  1.00  0.00    -0.041 SA
HETATM   22  N   UNL     1      41.140  -8.276  12.831  1.00  0.00    -0.363 N 
HETATM   23  C   UNL     1      41.043  -9.640  12.341  1.00  0.00     0.081 C 
HETATM   24  H   UNL     1      40.291  -7.782  13.086  1.00  0.00     0.162 HD
HETATM   25  C   UNL     1      40.014 -10.425  13.148  1.00  0.00     0.032 C 
HETATM   26  C   UNL     1      42.410 -10.323  12.377  1.00  0.00     0.050 C 
ENDBRANCH  16  17
ENDBRANCH  13  16
ENDBRANCH  11  12
ENDBRANCH   8  11
BRANCH   4  27
HETATM   27  C   UNL     1      42.359 -15.437   3.839  1.00  0.00     0.112 A 
HETATM   28  S   UNL     1      42.451 -16.308   2.358  1.00  0.00    -0.067 SA
HETATM   29  C   UNL     1      43.127 -17.659   3.179  1.00  0.00     0.035 A 
HETATM   30  C   UNL     1      43.214 -17.363   4.538  1.00  0.00     0.075 A 
HETATM   31  C   UNL     1      43.546 -18.895   2.659  1.00  0.00     0.021 A 
HETATM   32  N   UNL     1      42.759 -16.108   4.902  1.00  0.00    -0.239 NA
HETATM   33  C   UNL     1      43.739 -18.338   5.412  1.00  0.00     0.033 A 
HETATM   34  C   UNL     1      44.161 -19.571   4.905  1.00  0.00     0.002 A 
HETATM   35  C   UNL     1      44.065 -19.845   3.545  1.00  0.00     0.002 A 
ENDBRANCH   4  27
TORSDOF 5
ENDMDL
MODEL 10
REMARK VINA RESULT:      -8.0      2.249      6.146
REMARK  5 active torsions:
REMARK  status: ('A' for Active; 'I' for Inactive)
REMARK    1  A    between atoms: C_4  and  C_5 
REMARK    2  A    between atoms: C_17  and  C_18 
REMARK    3  A    between atoms: C_18  and  N_19 
REMARK       I    between atoms: N_19  and  C_20 
REMARK    4  A    between atoms: C_20  and  C_21 
REMARK    5  A    between atoms: C_21  and  C_22 
ROOT
HETATM    1  C   UNL     1      43.442 -17.515   6.555  1.00  0.00     0.048 C 
HETATM    2  C   UNL     1      43.396 -16.179   5.871  1.00  0.00    -0.060 A 
HETATM    3  C   UNL     1      43.806 -15.012   6.549  1.00  0.00     0.024 A 
HETATM    4  C   UNL     1      43.763 -13.740   5.941  1.00  0.00     0.034 A 
HETATM    5  C   UNL     1      43.277 -13.691   4.640  1.00  0.00     0.088 A 
HETATM    6  C   UNL     1      42.859 -14.834   3.967  1.00  0.00    -0.021 A 
HETATM    7  C   UNL     1      42.302 -14.469   2.644  1.00  0.00     0.075 C 
HETATM    8  C   UNL     1      42.771 -13.011   2.557  1.00  0.00     0.151 C 
HETATM    9  O   UNL     1      43.089 -12.549   3.899  1.00  0.00    -0.342 OA
HETATM   10  C   UNL     1      42.912 -16.082   4.561  1.00  0.00     0.017 A 
ENDROOT
BRANCH   8  11
HETATM   11  C   UNL     1      41.711 -12.069   1.972  1.00  0.00     0.155 C 
BRANCH  11  12
HETATM   12  N   UNL     1      41.265 -11.009   2.858  1.00  0.00    -0.359 N 
HETATM   13  C   UNL     1      39.935 -10.682   3.000  1.00  0.00     0.219 C 
HETATM   14  O   UNL     1      39.033 -11.287   2.433  1.00  0.00    -0.274 OA
HETATM   15  H   UNL     1      41.969 -10.419   3.285  1.00  0.00     0.162 HD
BRANCH  13  16
HETATM   16  C   UNL     1      39.712  -9.493   3.915  1.00  0.00     0.128 C 
BRANCH  16  17
HETATM   17  C   UNL     1      38.904  -9.869   5.165  1.00  0.00     0.094 C 
HETATM   18  N   UNL     1      38.961 -11.304   5.406  1.00  0.00    -0.362 N 
HETATM   19  C   UNL     1      39.916 -11.919   6.144  1.00  0.00     0.168 C 
HETATM   20  H   UNL     1      38.366 -11.904   4.842  1.00  0.00     0.162 HD
HETATM   21  S   UNL     1      40.072 -13.569   6.151  1.00  0.00    -0.041 SA
HETATM   22  N   UNL     1      40.725 -11.133   6.897  1.00  0.00    -0.363 N 
HETATM   23  C   UNL     1      40.756  -9.681   6.835  1.00  0.00     0.081 C 
HETATM   24  H   UNL     1      41.470 -11.623   7.381  1.00  0.00     0.162 HD
HETATM   25  C   UNL     1      41.194  -9.101   8.176  1.00  0.00     0.032 C 
HETATM   26  C   UNL     1      39.394  -9.131   6.414  1.00  0.00     0.050 C 
ENDBRANCH  16  17
ENDBRANCH  13  16
ENDBRANCH  11  12
ENDBRANCH   8  11
BRANCH   4  27
HETATM   27  C   UNL     1      44.193 -12.568   6.716  1.00  0.00     0.112 A 
HETATM   28  S   UNL     1      45.462 -11.542   6.169  1.00  0.00    -0.067 SA
HETATM   29  C   UNL     1      45.318 -10.584   7.590  1.00  0.00     0.035 A 
HETATM   30  C   UNL     1      44.324 -11.128   8.401  1.00  0.00     0.075 A 
HETATM   31  C   UNL     1      46.036  -9.435   7.962  1.00  0.00     0.021 A 
HETATM   32  N   UNL     1      43.707 -12.261   7.904  1.00  0.00    -0.239 NA
HETATM   33  C   UNL     1      44.036 -10.502   9.632  1.00  0.00     0.033 A 
HETATM   34  C   UNL     1      44.744  -9.358  10.013  1.00  0.00     0.002 A 
HETATM   35  C   UNL     1      45.731  -8.832   9.187  1.00  0.00     0.002 A 
ENDBRANCH   4  27
TORSDOF 5
ENDMDL
