MODEL 1
REMARK VINA RESULT:      -9.7      0.000      0.000
REMARK  8 active torsions:
REMARK  status: ('A' for Active; 'I' for Inactive)
REMARK    1  A    between atoms: C_2  and  C_3 
REMARK    2  A    between atoms: C_3  and  C_4 
REMARK       I    between atoms: C_4  and  N_5 
REMARK    3  A    between atoms: N_8  and  C_9 
REMARK    4  A    between atoms: C_12  and  N_13 
REMARK    5  A    between atoms: N_13  and  C_14 
REMARK    6  A    between atoms: C_14  and  N_15 
REMARK       I    between atoms: N_15  and  C_16 
REMARK    7  A    between atoms: C_16  and  C_17 
REMARK    8  A    between atoms: C_18  and  O_19 
ROOT
HETATM    1  N   UNL     1      40.957 -12.724   1.550  1.00  0.00    -0.333 N 
HETATM    2  H   UNL     1      40.931 -11.991   0.849  1.00  0.00     0.168 HD
ENDROOT
BRANCH   1   3
HETATM    3  C   UNL     1      41.243 -12.255   2.847  1.00  0.00     0.034 A 
HETATM    4  C   UNL     1      40.433 -12.440   3.961  1.00  0.00     0.032 A 
HETATM    5  C   UNL     1      40.842 -11.980   5.227  1.00  0.00     0.031 A 
HETATM    6  C   UNL     1      42.076 -11.343   5.433  1.00  0.00     0.030 A 
HETATM    7  C   UNL     1      42.895 -11.215   4.301  1.00  0.00     0.031 A 
HETATM    8  C   UNL     1      42.487 -11.650   3.034  1.00  0.00     0.032 A 
BRANCH   6   9
HETATM    9  N   UNL     1      42.532 -10.916   6.690  1.00  0.00    -0.378 N 
HETATM   10  C   UNL     1      41.911  -9.722   7.299  1.00  0.00     0.143 C 
HETATM   11  C   UNL     1      42.285  -9.592   8.789  1.00  0.00     0.145 C 
HETATM   12  N   UNL     1      43.724  -9.720   9.051  1.00  0.00    -0.349 N 
HETATM   13  C   UNL     1      44.337  -9.251  10.212  1.00  0.00     0.219 C 
HETATM   14  C   UNL     1      44.374 -10.837   8.359  1.00  0.00     0.145 C 
HETATM   15  O   UNL     1      45.450  -9.641  10.565  1.00  0.00    -0.273 OA
HETATM   16  C   UNL     1      44.008 -10.922   6.867  1.00  0.00     0.143 C 
BRANCH  13  17
HETATM   17  C   UNL     1      43.574  -8.205  11.012  1.00  0.00     0.103 C 
BRANCH  17  18
HETATM   18  C   UNL     1      43.200  -8.700  12.408  1.00  0.00     0.005 C 
HETATM   19  C   UNL     1      43.102  -7.552  13.399  1.00  0.00     0.005 C 
ENDBRANCH  17  18
ENDBRANCH  13  17
ENDBRANCH   6   9
ENDBRANCH   1   3
BRANCH   1  20
HETATM   20  C   UNL     1      40.983 -13.951   1.001  1.00  0.00     0.179 C 
HETATM   21  S   UNL     1      40.097 -14.205  -0.401  1.00  0.00    -0.040 SA
BRANCH  20  22
HETATM   22  N   UNL     1      41.630 -15.025   1.519  1.00  0.00    -0.299 N 
HETATM   23  C   UNL     1      42.973 -15.167   1.872  1.00  0.00     0.260 C 
HETATM   24  O   UNL     1      43.893 -14.443   1.521  1.00  0.00    -0.267 OA
HETATM   25  H   UNL     1      40.994 -15.569   2.087  1.00  0.00     0.171 HD
BRANCH  23  26
HETATM   26  C   UNL     1      43.233 -16.315   2.792  1.00  0.00     0.066 A 
HETATM   27  C   UNL     1      43.309 -16.142   4.179  1.00  0.00     0.084 A 
HETATM   28  C   UNL     1      43.563 -17.238   5.011  1.00  0.00     0.050 A 
HETATM   29  C   UNL     1      43.697 -18.530   4.484  1.00  0.00    -0.023 A 
HETATM   30  C   UNL     1      43.613 -18.717   3.086  1.00  0.00    -0.025 A 
HETATM   31  C   UNL     1      43.912 -19.640   5.316  1.00  0.00     0.012 A 
HETATM   32  C   UNL     1      43.399 -17.605   2.254  1.00  0.00     0.032 A 
HETATM   33  C   UNL     1      43.744 -20.014   2.560  1.00  0.00     0.012 A 
HETATM   34  C   UNL     1      43.949 -21.108   3.402  1.00  0.00     0.001 A 
HETATM   35  C   UNL     1      44.034 -20.922   4.779  1.00  0.00     0.001 A 
BRANCH  27  36
HETATM   36  O   UNL     1      43.195 -14.934   4.813  1.00  0.00    -0.355 OA
HETATM   37  C   UNL     1      43.573 -15.011   6.187  1.00  0.00     0.210 C 
ENDBRANCH  27  36
ENDBRANCH  23  26
ENDBRANCH  20  22
ENDBRANCH   1  20
TORSDOF 8
ENDMDL
MODEL 2
REMARK VINA RESULT:      -9.2      1.717      2.470
REMARK  8 active torsions:
REMARK  status: ('A' for Active; 'I' for Inactive)
REMARK    1  A    between atoms: C_2  and  C_3 
REMARK    2  A    between atoms: C_3  and  C_4 
REMARK       I    between atoms: C_4  and  N_5 
REMARK    3  A    between atoms: N_8  and  C_9 
REMARK    4  A    between atoms: C_12  and  N_13 
REMARK    5  A    between atoms: N_13  and  C_14 
REMARK    6  A    between atoms: C_14  and  N_15 
REMARK       I    between atoms: N_15  and  C_16 
REMARK    7  A    between atoms: C_16  and  C_17 
REMARK    8  A    between atoms: C_18  and  O_19 
ROOT
HETATM    1  N   UNL     1      41.937 -11.695   3.505  1.00  0.00    -0.333 N 
HETATM    2  H   UNL     1      42.657 -11.545   2.804  1.00  0.00     0.168 HD
ENDROOT
BRANCH   1   3
HETATM    3  C   UNL     1      42.096 -10.900   4.656  1.00  0.00     0.034 A 
HETATM    4  C   UNL     1      41.503  -9.661   4.860  1.00  0.00     0.032 A 
HETATM    5  C   UNL     1      41.680  -8.973   6.076  1.00  0.00     0.031 A 
HETATM    6  C   UNL     1      42.433  -9.504   7.136  1.00  0.00     0.030 A 
HETATM    7  C   UNL     1      42.978 -10.778   6.921  1.00  0.00     0.031 A 
HETATM    8  C   UNL     1      42.825 -11.459   5.707  1.00  0.00     0.032 A 
BRANCH   6   9
HETATM    9  N   UNL     1      42.590  -8.865   8.377  1.00  0.00    -0.378 N 
HETATM   10  C   UNL     1      42.996  -9.677   9.542  1.00  0.00     0.143 C 
HETATM   11  C   UNL     1      43.439  -8.785  10.720  1.00  0.00     0.145 C 
HETATM   12  N   UNL     1      42.492  -7.709  11.036  1.00  0.00    -0.349 N 
HETATM   13  C   UNL     1      42.463  -7.051  12.265  1.00  0.00     0.219 C 
HETATM   14  C   UNL     1      41.995  -6.971   9.873  1.00  0.00     0.145 C 
HETATM   15  O   UNL     1      41.906  -5.962  12.408  1.00  0.00    -0.273 OA
HETATM   16  C   UNL     1      41.529  -7.885   8.727  1.00  0.00     0.143 C 
BRANCH  13  17
HETATM   17  C   UNL     1      43.128  -7.760  13.436  1.00  0.00     0.103 C 
BRANCH  17  18
HETATM   18  C   UNL     1      42.187  -8.746  14.128  1.00  0.00     0.005 C 
HETATM   19  C   UNL     1      41.609  -8.162  15.406  1.00  0.00     0.005 C 
ENDBRANCH  17  18
ENDBRANCH  13  17
ENDBRANCH   6   9
ENDBRANCH   1   3
BRANCH   1  20
HETATM   20  C   UNL     1      41.204 -12.794   3.253  1.00  0.00     0.179 C 
HETATM   21  S   UNL     1      39.576 -12.591   2.899  1.00  0.00    -0.040 SA
BRANCH  20  22
HETATM   22  N   UNL     1      41.662 -14.069   3.310  1.00  0.00    -0.299 N 
HETATM   23  C   UNL     1      42.883 -14.594   2.881  1.00  0.00     0.260 C 
HETATM   24  O   UNL     1      43.668 -14.062   2.111  1.00  0.00    -0.267 OA
HETATM   25  H   UNL     1      41.271 -14.539   4.117  1.00  0.00     0.171 HD
BRANCH  23  26
HETATM   26  C   UNL     1      43.210 -15.922   3.485  1.00  0.00     0.066 A 
HETATM   27  C   UNL     1      43.482 -16.060   4.850  1.00  0.00     0.084 A 
HETATM   28  C   UNL     1      43.793 -17.317   5.381  1.00  0.00     0.050 A 
HETATM   29  C   UNL     1      43.792 -18.463   4.573  1.00  0.00    -0.023 A 
HETATM   30  C   UNL     1      43.509 -18.336   3.195  1.00  0.00    -0.025 A 
HETATM   31  C   UNL     1      44.064 -19.734   5.107  1.00  0.00     0.012 A 
HETATM   32  C   UNL     1      43.238 -17.063   2.662  1.00  0.00     0.032 A 
HETATM   33  C   UNL     1      43.505 -19.486   2.387  1.00  0.00     0.012 A 
HETATM   34  C   UNL     1      43.769 -20.743   2.935  1.00  0.00     0.001 A 
HETATM   35  C   UNL     1      44.049 -20.867   4.293  1.00  0.00     0.001 A 
BRANCH  27  36
HETATM   36  O   UNL     1      43.513 -15.021   5.741  1.00  0.00    -0.355 OA
HETATM   37  C   UNL     1      42.501 -15.138   6.739  1.00  0.00     0.210 C 
ENDBRANCH  27  36
ENDBRANCH  23  26
ENDBRANCH  20  22
ENDBRANCH   1  20
TORSDOF 8
ENDMDL
MODEL 3
REMARK VINA RESULT:      -9.1      1.527      1.910
REMARK  8 active torsions:
REMARK  status: ('A' for Active; 'I' for Inactive)
REMARK    1  A    between atoms: C_2  and  C_3 
REMARK    2  A    between atoms: C_3  and  C_4 
REMARK       I    between atoms: C_4  and  N_5 
REMARK    3  A    between atoms: N_8  and  C_9 
REMARK    4  A    between atoms: C_12  and  N_13 
REMARK    5  A    between atoms: N_13  and  C_14 
REMARK    6  A    between atoms: C_14  and  N_15 
REMARK       I    between atoms: N_15  and  C_16 
REMARK    7  A    between atoms: C_16  and  C_17 
REMARK    8  A    between atoms: C_18  and  O_19 
ROOT
HETATM    1  N   UNL     1      39.433 -13.425   1.807  1.00  0.00    -0.333 N 
HETATM    2  H   UNL     1      38.602 -13.107   1.319  1.00  0.00     0.168 HD
ENDROOT
BRANCH   1   3
HETATM    3  C   UNL     1      39.715 -12.694   2.978  1.00  0.00     0.034 A 
HETATM    4  C   UNL     1      39.845 -13.239   4.249  1.00  0.00     0.032 A 
HETATM    5  C   UNL     1      40.187 -12.425   5.345  1.00  0.00     0.031 A 
HETATM    6  C   UNL     1      40.433 -11.049   5.212  1.00  0.00     0.030 A 
HETATM    7  C   UNL     1      40.343 -10.535   3.909  1.00  0.00     0.031 A 
HETATM    8  C   UNL     1      39.982 -11.333   2.817  1.00  0.00     0.032 A 
BRANCH   6   9
HETATM    9  N   UNL     1      40.821 -10.219   6.276  1.00  0.00    -0.378 N 
HETATM   10  C   UNL     1      42.237 -10.225   6.696  1.00  0.00     0.143 C 
HETATM   11  C   UNL     1      42.551  -9.039   7.630  1.00  0.00     0.145 C 
HETATM   12  N   UNL     1      41.597  -8.888   8.735  1.00  0.00    -0.349 N 
HETATM   13  C   UNL     1      41.879  -8.178   9.901  1.00  0.00     0.219 C 
HETATM   14  C   UNL     1      40.188  -8.996   8.346  1.00  0.00     0.145 C 
HETATM   15  O   UNL     1      40.991  -7.787  10.658  1.00  0.00    -0.273 OA
HETATM   16  C   UNL     1      39.898 -10.206   7.442  1.00  0.00     0.143 C 
BRANCH  13  17
HETATM   17  C   UNL     1      43.349  -7.932  10.211  1.00  0.00     0.103 C 
BRANCH  17  18
HETATM   18  C   UNL     1      43.919  -8.968  11.180  1.00  0.00     0.005 C 
HETATM   19  C   UNL     1      44.834  -9.951  10.470  1.00  0.00     0.005 C 
ENDBRANCH  17  18
ENDBRANCH  13  17
ENDBRANCH   6   9
ENDBRANCH   1   3
BRANCH   1  20
HETATM   20  C   UNL     1      40.173 -14.263   1.059  1.00  0.00     0.179 C 
HETATM   21  S   UNL     1      39.994 -14.196  -0.608  1.00  0.00    -0.040 SA
BRANCH  20  22
HETATM   22  N   UNL     1      41.023 -15.201   1.545  1.00  0.00    -0.299 N 
HETATM   23  C   UNL     1      42.339 -15.062   1.990  1.00  0.00     0.260 C 
HETATM   24  O   UNL     1      43.082 -14.119   1.764  1.00  0.00    -0.267 OA
HETATM   25  H   UNL     1      40.500 -15.925   2.022  1.00  0.00     0.171 HD
BRANCH  23  26
HETATM   26  C   UNL     1      42.807 -16.197   2.842  1.00  0.00     0.066 A 
HETATM   27  C   UNL     1      43.065 -16.032   4.207  1.00  0.00     0.084 A 
HETATM   28  C   UNL     1      43.511 -17.115   4.974  1.00  0.00     0.050 A 
HETATM   29  C   UNL     1      43.662 -18.388   4.408  1.00  0.00    -0.023 A 
HETATM   30  C   UNL     1      43.395 -18.568   3.032  1.00  0.00    -0.025 A 
HETATM   31  C   UNL     1      44.070 -19.488   5.180  1.00  0.00     0.012 A 
HETATM   32  C   UNL     1      42.988 -17.465   2.260  1.00  0.00     0.032 A 
HETATM   33  C   UNL     1      43.544 -19.846   2.466  1.00  0.00     0.012 A 
HETATM   34  C   UNL     1      43.943 -20.930   3.250  1.00  0.00     0.001 A 
HETATM   35  C   UNL     1      44.206 -20.752   4.605  1.00  0.00     0.001 A 
BRANCH  27  36
HETATM   36  O   UNL     1      42.955 -14.842   4.876  1.00  0.00    -0.355 OA
HETATM   37  C   UNL     1      43.609 -14.876   6.143  1.00  0.00     0.210 C 
ENDBRANCH  27  36
ENDBRANCH  23  26
ENDBRANCH  20  22
ENDBRANCH   1  20
TORSDOF 8
ENDMDL
MODEL 4
REMARK VINA RESULT:      -9.0      2.089      3.464
REMARK  8 active torsions:
REMARK  status: ('A' for Active; 'I' for Inactive)
REMARK    1  A    between atoms: C_2  and  C_3 
REMARK    2  A    between atoms: C_3  and  C_4 
REMARK       I    between atoms: C_4  and  N_5 
REMARK    3  A    between atoms: N_8  and  C_9 
REMARK    4  A    between atoms: C_12  and  N_13 
REMARK    5  A    between atoms: N_13  and  C_14 
REMARK    6  A    between atoms: C_14  and  N_15 
REMARK       I    between atoms: N_15  and  C_16 
REMARK    7  A    between atoms: C_16  and  C_17 
REMARK    8  A    between atoms: C_18  and  O_19 
ROOT
HETATM    1  N   UNL     1      42.919 -10.739   3.650  1.00  0.00    -0.333 N 
HETATM    2  H   UNL     1      43.686 -10.216   3.239  1.00  0.00     0.168 HD
ENDROOT
BRANCH   1   3
HETATM    3  C   UNL     1      42.729 -10.480   5.021  1.00  0.00     0.034 A 
HETATM    4  C   UNL     1      43.597 -10.867   6.035  1.00  0.00     0.032 A 
HETATM    5  C   UNL     1      43.343 -10.507   7.372  1.00  0.00     0.031 A 
HETATM    6  C   UNL     1      42.232  -9.732   7.742  1.00  0.00     0.030 A 
HETATM    7  C   UNL     1      41.400  -9.313   6.693  1.00  0.00     0.031 A 
HETATM    8  C   UNL     1      41.634  -9.686   5.363  1.00  0.00     0.032 A 
BRANCH   6   9
HETATM    9  N   UNL     1      41.975  -9.317   9.059  1.00  0.00    -0.378 N 
HETATM   10  C   UNL     1      42.715  -9.964  10.161  1.00  0.00     0.143 C 
HETATM   11  C   UNL     1      42.564  -9.176  11.478  1.00  0.00     0.145 C 
HETATM   12  N   UNL     1      41.175  -8.834  11.806  1.00  0.00    -0.349 N 
HETATM   13  C   UNL     1      40.751  -8.499  13.091  1.00  0.00     0.219 C 
HETATM   14  C   UNL     1      40.397  -8.296  10.687  1.00  0.00     0.145 C 
HETATM   15  O   UNL     1      39.689  -7.912  13.295  1.00  0.00    -0.273 OA
HETATM   16  C   UNL     1      40.541  -9.120   9.396  1.00  0.00     0.143 C 
BRANCH  13  17
HETATM   17  C   UNL     1      41.654  -8.925  14.241  1.00  0.00     0.103 C 
BRANCH  17  18
HETATM   18  C   UNL     1      42.171  -7.733  15.045  1.00  0.00     0.005 C 
HETATM   19  C   UNL     1      43.178  -6.917  14.250  1.00  0.00     0.005 C 
ENDBRANCH  17  18
ENDBRANCH  13  17
ENDBRANCH   6   9
ENDBRANCH   1   3
BRANCH   1  20
HETATM   20  C   UNL     1      42.484 -11.722   2.842  1.00  0.00     0.179 C 
HETATM   21  S   UNL     1      41.392 -11.322   1.632  1.00  0.00    -0.040 SA
BRANCH  20  22
HETATM   22  N   UNL     1      42.818 -13.032   2.956  1.00  0.00    -0.299 N 
HETATM   23  C   UNL     1      42.401 -13.976   3.896  1.00  0.00     0.260 C 
HETATM   24  O   UNL     1      41.873 -13.740   4.972  1.00  0.00    -0.267 OA
HETATM   25  H   UNL     1      43.012 -13.418   2.041  1.00  0.00     0.171 HD
BRANCH  23  26
HETATM   26  C   UNL     1      42.626 -15.390   3.467  1.00  0.00     0.066 A 
HETATM   27  C   UNL     1      42.338 -15.816   2.165  1.00  0.00     0.084 A 
HETATM   28  C   UNL     1      42.552 -17.149   1.799  1.00  0.00     0.050 A 
HETATM   29  C   UNL     1      43.100 -18.068   2.705  1.00  0.00    -0.023 A 
HETATM   30  C   UNL     1      43.404 -17.646   4.018  1.00  0.00    -0.025 A 
HETATM   31  C   UNL     1      43.356 -19.398   2.332  1.00  0.00     0.012 A 
HETATM   32  C   UNL     1      43.146 -16.315   4.390  1.00  0.00     0.032 A 
HETATM   33  C   UNL     1      43.957 -18.568   4.924  1.00  0.00     0.012 A 
HETATM   34  C   UNL     1      44.212 -19.884   4.535  1.00  0.00     0.001 A 
HETATM   35  C   UNL     1      43.911 -20.299   3.241  1.00  0.00     0.001 A 
BRANCH  27  36
HETATM   36  O   UNL     1      41.801 -15.017   1.192  1.00  0.00    -0.355 OA
HETATM   37  C   UNL     1      40.401 -15.239   1.026  1.00  0.00     0.210 C 
ENDBRANCH  27  36
ENDBRANCH  23  26
ENDBRANCH  20  22
ENDBRANCH   1  20
TORSDOF 8
ENDMDL
MODEL 5
REMARK VINA RESULT:      -8.6      2.477      4.063
REMARK  8 active torsions:
REMARK  status: ('A' for Active; 'I' for Inactive)
REMARK    1  A    between atoms: C_2  and  C_3 
REMARK    2  A    between atoms: C_3  and  C_4 
REMARK       I    between atoms: C_4  and  N_5 
REMARK    3  A    between atoms: N_8  and  C_9 
REMARK    4  A    between atoms: C_12  and  N_13 
REMARK    5  A    between atoms: N_13  and  C_14 
REMARK    6  A    between atoms: C_14  and  N_15 
REMARK       I    between atoms: N_15  and  C_16 
REMARK    7  A    between atoms: C_16  and  C_17 
REMARK    8  A    between atoms: C_18  and  O_19 
ROOT
HETATM    1  N   UNL     1      39.104 -11.183   5.005  1.00  0.00    -0.333 N 
HETATM    2  H   UNL     1      38.105 -11.004   5.005  1.00  0.00     0.168 HD
ENDROOT
BRANCH   1   3
HETATM    3  C   UNL     1      39.791 -10.551   6.060  1.00  0.00     0.034 A 
HETATM    4  C   UNL     1      41.050  -9.973   5.961  1.00  0.00     0.032 A 
HETATM    5  C   UNL     1      41.624  -9.314   7.065  1.00  0.00     0.031 A 
HETATM    6  C   UNL     1      40.959  -9.189   8.294  1.00  0.00     0.030 A 
HETATM    7  C   UNL     1      39.669  -9.738   8.351  1.00  0.00     0.031 A 
HETATM    8  C   UNL     1      39.099 -10.415   7.264  1.00  0.00     0.032 A 
BRANCH   6   9
HETATM    9  N   UNL     1      41.484  -8.498   9.398  1.00  0.00    -0.378 N 
HETATM   10  C   UNL     1      41.911  -9.275  10.580  1.00  0.00     0.143 C 
HETATM   11  C   UNL     1      42.754  -8.414  11.542  1.00  0.00     0.145 C 
HETATM   12  N   UNL     1      42.145  -7.118  11.864  1.00  0.00    -0.349 N 
HETATM   13  C   UNL     1      42.494  -6.364  12.983  1.00  0.00     0.219 C 
HETATM   14  C   UNL     1      41.614  -6.389  10.709  1.00  0.00     0.145 C 
HETATM   15  O   UNL     1      42.229  -5.165  13.070  1.00  0.00    -0.273 OA
HETATM   16  C   UNL     1      40.751  -7.263   9.784  1.00  0.00     0.143 C 
BRANCH  13  17
HETATM   17  C   UNL     1      43.193  -7.104  14.114  1.00  0.00     0.103 C 
BRANCH  17  18
HETATM   18  C   UNL     1      42.365  -7.121  15.398  1.00  0.00     0.005 C 
HETATM   19  C   UNL     1      41.335  -8.238  15.383  1.00  0.00     0.005 C 
ENDBRANCH  17  18
ENDBRANCH  13  17
ENDBRANCH   6   9
ENDBRANCH   1   3
BRANCH   1  20
HETATM   20  C   UNL     1      39.521 -11.739   3.854  1.00  0.00     0.179 C 
HETATM   21  S   UNL     1      38.949 -11.092   2.415  1.00  0.00    -0.040 SA
BRANCH  20  22
HETATM   22  N   UNL     1      40.332 -12.822   3.758  1.00  0.00    -0.299 N 
HETATM   23  C   UNL     1      40.468 -13.909   4.623  1.00  0.00     0.260 C 
HETATM   24  O   UNL     1      40.087 -13.962   5.783  1.00  0.00    -0.267 OA
HETATM   25  H   UNL     1      40.492 -13.046   2.784  1.00  0.00     0.171 HD
BRANCH  23  26
HETATM   26  C   UNL     1      41.123 -15.097   3.995  1.00  0.00     0.066 A 
HETATM   27  C   UNL     1      40.751 -15.555   2.726  1.00  0.00     0.084 A 
HETATM   28  C   UNL     1      41.379 -16.675   2.172  1.00  0.00     0.050 A 
HETATM   29  C   UNL     1      42.420 -17.329   2.847  1.00  0.00    -0.023 A 
HETATM   30  C   UNL     1      42.810 -16.868   4.125  1.00  0.00    -0.025 A 
HETATM   31  C   UNL     1      43.083 -18.429   2.280  1.00  0.00     0.012 A 
HETATM   32  C   UNL     1      42.145 -15.767   4.693  1.00  0.00     0.032 A 
HETATM   33  C   UNL     1      43.855 -17.522   4.799  1.00  0.00     0.012 A 
HETATM   34  C   UNL     1      44.509 -18.610   4.217  1.00  0.00     0.001 A 
HETATM   35  C   UNL     1      44.123 -19.064   2.959  1.00  0.00     0.001 A 
BRANCH  27  36
HETATM   36  O   UNL     1      39.753 -15.004   1.968  1.00  0.00    -0.355 OA
HETATM   37  C   UNL     1      40.092 -14.962   0.583  1.00  0.00     0.210 C 
ENDBRANCH  27  36
ENDBRANCH  23  26
ENDBRANCH  20  22
ENDBRANCH   1  20
TORSDOF 8
ENDMDL
MODEL 6
REMARK VINA RESULT:      -8.3      4.031     11.317
REMARK  8 active torsions:
REMARK  status: ('A' for Active; 'I' for Inactive)
REMARK    1  A    between atoms: C_2  and  C_3 
REMARK    2  A    between atoms: C_3  and  C_4 
REMARK       I    between atoms: C_4  and  N_5 
REMARK    3  A    between atoms: N_8  and  C_9 
REMARK    4  A    between atoms: C_12  and  N_13 
REMARK    5  A    between atoms: N_13  and  C_14 
REMARK    6  A    between atoms: C_14  and  N_15 
REMARK       I    between atoms: N_15  and  C_16 
REMARK    7  A    between atoms: C_16  and  C_17 
REMARK    8  A    between atoms: C_18  and  O_19 
ROOT
HETATM    1  N   UNL     1      43.521 -12.157   7.615  1.00  0.00    -0.333 N 
HETATM    2  H   UNL     1      43.602 -13.041   8.106  1.00  0.00     0.168 HD
ENDROOT
BRANCH   1   3
HETATM    3  C   UNL     1      43.111 -12.289   6.275  1.00  0.00     0.034 A 
HETATM    4  C   UNL     1      43.186 -13.458   5.527  1.00  0.00     0.032 A 
HETATM    5  C   UNL     1      42.693 -13.498   4.209  1.00  0.00     0.031 A 
HETATM    6  C   UNL     1      42.089 -12.387   3.599  1.00  0.00     0.030 A 
HETATM    7  C   UNL     1      41.981 -11.236   4.394  1.00  0.00     0.031 A 
HETATM    8  C   UNL     1      42.489 -11.181   5.698  1.00  0.00     0.032 A 
BRANCH   6   9
HETATM    9  N   UNL     1      41.545 -12.408   2.305  1.00  0.00    -0.378 N 
HETATM   10  C   UNL     1      41.804 -13.584   1.449  1.00  0.00     0.143 C 
HETATM   11  C   UNL     1      40.878 -13.595   0.216  1.00  0.00     0.145 C 
HETATM   12  N   UNL     1      40.844 -12.320  -0.510  1.00  0.00    -0.349 N 
HETATM   13  C   UNL     1      40.424 -12.202  -1.833  1.00  0.00     0.219 C 
HETATM   14  C   UNL     1      40.702 -11.135   0.342  1.00  0.00     0.145 C 
HETATM   15  O   UNL     1      40.093 -11.120  -2.319  1.00  0.00    -0.273 OA
HETATM   16  C   UNL     1      41.660 -11.135   1.546  1.00  0.00     0.143 C 
BRANCH  13  17
HETATM   17  C   UNL     1      40.422 -13.476  -2.666  1.00  0.00     0.103 C 
BRANCH  17  18
HETATM   18  C   UNL     1      39.030 -13.824  -3.193  1.00  0.00     0.005 C 
HETATM   19  C   UNL     1      38.581 -15.196  -2.720  1.00  0.00     0.005 C 
ENDBRANCH  17  18
ENDBRANCH  13  17
ENDBRANCH   6   9
ENDBRANCH   1   3
BRANCH   1  20
HETATM   20  C   UNL     1      44.089 -11.145   8.296  1.00  0.00     0.179 C 
HETATM   21  S   UNL     1      45.647 -10.688   7.873  1.00  0.00    -0.040 SA
BRANCH  20  22
HETATM   22  N   UNL     1      43.522 -10.490   9.340  1.00  0.00    -0.299 N 
HETATM   23  C   UNL     1      43.908 -10.453  10.681  1.00  0.00     0.260 C 
HETATM   24  O   UNL     1      44.670 -11.231  11.235  1.00  0.00    -0.267 OA
HETATM   25  H   UNL     1      43.080  -9.640   9.013  1.00  0.00     0.171 HD
BRANCH  23  26
HETATM   26  C   UNL     1      43.320  -9.310  11.443  1.00  0.00     0.066 A 
HETATM   27  C   UNL     1      43.211  -8.033  10.882  1.00  0.00     0.084 A 
HETATM   28  C   UNL     1      42.663  -6.983  11.627  1.00  0.00     0.050 A 
HETATM   29  C   UNL     1      42.171  -7.195  12.922  1.00  0.00    -0.023 A 
HETATM   30  C   UNL     1      42.267  -8.484  13.494  1.00  0.00    -0.025 A 
HETATM   31  C   UNL     1      41.583  -6.156  13.661  1.00  0.00     0.012 A 
HETATM   32  C   UNL     1      42.857  -9.523  12.754  1.00  0.00     0.032 A 
HETATM   33  C   UNL     1      41.770  -8.696  14.792  1.00  0.00     0.012 A 
HETATM   34  C   UNL     1      41.181  -7.653  15.509  1.00  0.00     0.001 A 
HETATM   35  C   UNL     1      41.088  -6.384  14.945  1.00  0.00     0.001 A 
BRANCH  27  36
HETATM   36  O   UNL     1      43.654  -7.698   9.630  1.00  0.00    -0.355 OA
HETATM   37  C   UNL     1      42.651  -7.030   8.867  1.00  0.00     0.210 C 
ENDBRANCH  27  36
ENDBRANCH  23  26
ENDBRANCH  20  22
ENDBRANCH   1  20
TORSDOF 8
ENDMDL
MODEL 7
REMARK VINA RESULT:      -8.1      2.736      3.728
REMARK  8 active torsions:
REMARK  status: ('A' for Active; 'I' for Inactive)
REMARK    1  A    between atoms: C_2  and  C_3 
REMARK    2  A    between atoms: C_3  and  C_4 
REMARK       I    between atoms: C_4  and  N_5 
REMARK    3  A    between atoms: N_8  and  C_9 
REMARK    4  A    between atoms: C_12  and  N_13 
REMARK    5  A    between atoms: N_13  and  C_14 
REMARK    6  A    between atoms: C_14  and  N_15 
REMARK       I    between atoms: N_15  and  C_16 
REMARK    7  A    between atoms: C_16  and  C_17 
REMARK    8  A    between atoms: C_18  and  O_19 
ROOT
HETATM    1  N   UNL     1      39.925 -10.616   4.189  1.00  0.00    -0.333 N 
HETATM    2  H   UNL     1      39.355 -10.049   3.569  1.00  0.00     0.168 HD
ENDROOT
BRANCH   1   3
HETATM    3  C   UNL     1      39.898 -10.188   5.531  1.00  0.00     0.034 A 
HETATM    4  C   UNL     1      39.109 -10.742   6.531  1.00  0.00     0.032 A 
HETATM    5  C   UNL     1      39.201 -10.276   7.856  1.00  0.00     0.031 A 
HETATM    6  C   UNL     1      40.094  -9.261   8.235  1.00  0.00     0.030 A 
HETATM    7  C   UNL     1      40.913  -8.755   7.215  1.00  0.00     0.031 A 
HETATM    8  C   UNL     1      40.813  -9.197   5.890  1.00  0.00     0.032 A 
BRANCH   6   9
HETATM    9  N   UNL     1      40.243  -8.807   9.556  1.00  0.00    -0.378 N 
HETATM   10  C   UNL     1      41.009  -9.639  10.507  1.00  0.00     0.143 C 
HETATM   11  C   UNL     1      41.354  -8.854  11.788  1.00  0.00     0.145 C 
HETATM   12  N   UNL     1      40.206  -8.161  12.384  1.00  0.00    -0.349 N 
HETATM   13  C   UNL     1      40.170  -7.740  13.713  1.00  0.00     0.219 C 
HETATM   14  C   UNL     1      39.372  -7.425  11.430  1.00  0.00     0.145 C 
HETATM   15  O   UNL     1      39.366  -6.895  14.108  1.00  0.00    -0.273 OA
HETATM   16  C   UNL     1      39.016  -8.243  10.177  1.00  0.00     0.143 C 
BRANCH  13  17
HETATM   17  C   UNL     1      41.156  -8.401  14.665  1.00  0.00     0.103 C 
BRANCH  17  18
HETATM   18  C   UNL     1      42.159  -7.405  15.246  1.00  0.00     0.005 C 
HETATM   19  C   UNL     1      43.224  -7.028  14.230  1.00  0.00     0.005 C 
ENDBRANCH  17  18
ENDBRANCH  13  17
ENDBRANCH   6   9
ENDBRANCH   1   3
BRANCH   1  20
HETATM   20  C   UNL     1      40.750 -11.435   3.513  1.00  0.00     0.179 C 
HETATM   21  S   UNL     1      41.328 -10.918   2.025  1.00  0.00    -0.040 SA
BRANCH  20  22
HETATM   22  N   UNL     1      41.118 -12.677   3.914  1.00  0.00    -0.299 N 
HETATM   23  C   UNL     1      40.664 -13.923   3.476  1.00  0.00     0.260 C 
HETATM   24  O   UNL     1      39.640 -14.137   2.845  1.00  0.00    -0.267 OA
HETATM   25  H   UNL     1      42.087 -12.671   4.208  1.00  0.00     0.171 HD
BRANCH  23  26
HETATM   26  C   UNL     1      41.581 -15.051   3.821  1.00  0.00     0.066 A 
HETATM   27  C   UNL     1      42.220 -15.124   5.064  1.00  0.00     0.084 A 
HETATM   28  C   UNL     1      43.079 -16.190   5.350  1.00  0.00     0.050 A 
HETATM   29  C   UNL     1      43.281 -17.225   4.426  1.00  0.00    -0.023 A 
HETATM   30  C   UNL     1      42.634 -17.166   3.172  1.00  0.00    -0.025 A 
HETATM   31  C   UNL     1      44.111 -18.318   4.722  1.00  0.00     0.012 A 
HETATM   32  C   UNL     1      41.804 -16.069   2.876  1.00  0.00     0.032 A 
HETATM   33  C   UNL     1      42.834 -18.205   2.247  1.00  0.00     0.012 A 
HETATM   34  C   UNL     1      43.656 -19.289   2.561  1.00  0.00     0.001 A 
HETATM   35  C   UNL     1      44.294 -19.346   3.796  1.00  0.00     0.001 A 
BRANCH  27  36
HETATM   36  O   UNL     1      42.104 -14.180   6.048  1.00  0.00    -0.355 OA
HETATM   37  C   UNL     1      43.105 -14.327   7.054  1.00  0.00     0.210 C 
ENDBRANCH  27  36
ENDBRANCH  23  26
ENDBRANCH  20  22
ENDBRANCH   1  20
TORSDOF 8
ENDMDL
MODEL 8
REMARK VINA RESULT:      -8.1      3.960      8.134
REMARK  8 active torsions:
REMARK  status: ('A' for Active; 'I' for Inactive)
REMARK    1  A    between atoms: C_2  and  C_3 
REMARK    2  A    between atoms: C_3  and  C_4 
REMARK       I    between atoms: C_4  and  N_5 
REMARK    3  A    between atoms: N_8  and  C_9 
REMARK    4  A    between atoms: C_12  and  N_13 
REMARK    5  A    between atoms: N_13  and  C_14 
REMARK    6  A    between atoms: C_14  and  N_15 
REMARK       I    between atoms: N_15  and  C_16 
REMARK    7  A    between atoms: C_16  and  C_17 
REMARK    8  A    between atoms: C_18  and  O_19 
ROOT
HETATM    1  N   UNL     1      42.436 -11.643   5.700  1.00  0.00    -0.333 N 
HETATM    2  H   UNL     1      41.872 -11.292   6.466  1.00  0.00     0.168 HD
ENDROOT
BRANCH   1   3
HETATM    3  C   UNL     1      41.862 -11.430   4.431  1.00  0.00     0.034 A 
HETATM    4  C   UNL     1      42.527 -10.902   3.332  1.00  0.00     0.032 A 
HETATM    5  C   UNL     1      41.875 -10.784   2.090  1.00  0.00     0.031 A 
HETATM    6  C   UNL     1      40.551 -11.206   1.894  1.00  0.00     0.030 A 
HETATM    7  C   UNL     1      39.920 -11.781   3.008  1.00  0.00     0.031 A 
HETATM    8  C   UNL     1      40.554 -11.882   4.252  1.00  0.00     0.032 A 
BRANCH   6   9
HETATM    9  N   UNL     1      39.888 -11.145   0.657  1.00  0.00    -0.378 N 
HETATM   10  C   UNL     1      39.965  -9.895  -0.125  1.00  0.00     0.143 C 
HETATM   11  C   UNL     1      39.478 -10.107  -1.573  1.00  0.00     0.145 C 
HETATM   12  N   UNL     1      38.185 -10.795  -1.666  1.00  0.00    -0.349 N 
HETATM   13  C   UNL     1      37.368 -10.743  -2.795  1.00  0.00     0.219 C 
HETATM   14  C   UNL     1      38.057 -11.975  -0.806  1.00  0.00     0.145 C 
HETATM   15  O   UNL     1      36.470 -11.561  -2.989  1.00  0.00    -0.273 OA
HETATM   16  C   UNL     1      38.519 -11.725   0.639  1.00  0.00     0.143 C 
BRANCH  13  17
HETATM   17  C   UNL     1      37.620  -9.599  -3.767  1.00  0.00     0.103 C 
BRANCH  17  18
HETATM   18  C   UNL     1      36.698  -8.407  -3.514  1.00  0.00     0.005 C 
HETATM   19  C   UNL     1      35.613  -8.306  -4.573  1.00  0.00     0.005 C 
ENDBRANCH  17  18
ENDBRANCH  13  17
ENDBRANCH   6   9
ENDBRANCH   1   3
BRANCH   1  20
HETATM   20  C   UNL     1      43.427 -12.448   6.125  1.00  0.00     0.179 C 
HETATM   21  S   UNL     1      44.550 -11.814   7.199  1.00  0.00    -0.040 SA
BRANCH  20  22
HETATM   22  N   UNL     1      43.625 -13.726   5.717  1.00  0.00    -0.299 N 
HETATM   23  C   UNL     1      43.039 -14.907   6.177  1.00  0.00     0.260 C 
HETATM   24  O   UNL     1      42.440 -15.052   7.232  1.00  0.00    -0.267 OA
HETATM   25  H   UNL     1      43.864 -13.740   4.733  1.00  0.00     0.171 HD
BRANCH  23  26
HETATM   26  C   UNL     1      43.168 -16.052   5.225  1.00  0.00     0.066 A 
HETATM   27  C   UNL     1      43.010 -15.880   3.846  1.00  0.00     0.084 A 
HETATM   28  C   UNL     1      43.129 -16.975   2.983  1.00  0.00     0.050 A 
HETATM   29  C   UNL     1      43.454 -18.248   3.472  1.00  0.00    -0.023 A 
HETATM   30  C   UNL     1      43.626 -18.430   4.863  1.00  0.00    -0.025 A 
HETATM   31  C   UNL     1      43.615 -19.344   2.609  1.00  0.00     0.012 A 
HETATM   32  C   UNL     1      43.463 -17.333   5.726  1.00  0.00     0.032 A 
HETATM   33  C   UNL     1      43.955 -19.707   5.351  1.00  0.00     0.012 A 
HETATM   34  C   UNL     1      44.119 -20.784   4.478  1.00  0.00     0.001 A 
HETATM   35  C   UNL     1      43.949 -20.603   3.109  1.00  0.00     0.001 A 
BRANCH  27  36
HETATM   36  O   UNL     1      42.692 -14.690   3.247  1.00  0.00    -0.355 OA
HETATM   37  C   UNL     1      43.349 -14.529   1.991  1.00  0.00     0.210 C 
ENDBRANCH  27  36
ENDBRANCH  23  26
ENDBRANCH  20  22
ENDBRANCH   1  20
TORSDOF 8
ENDMDL
MODEL 9
REMARK VINA RESULT:      -8.0      4.930      8.452
REMARK  8 active torsions:
REMARK  status: ('A' for Active; 'I' for Inactive)
REMARK    1  A    between atoms: C_2  and  C_3 
REMARK    2  A    between atoms: C_3  and  C_4 
REMARK       I    between atoms: C_4  and  N_5 
REMARK    3  A    between atoms: N_8  and  C_9 
REMARK    4  A    between atoms: C_12  and  N_13 
REMARK    5  A    between atoms: N_13  and  C_14 
REMARK    6  A    between atoms: C_14  and  N_15 
REMARK       I    between atoms: N_15  and  C_16 
REMARK    7  A    between atoms: C_16  and  C_17 
REMARK    8  A    between atoms: C_18  and  O_19 
ROOT
HETATM    1  N   UNL     1      39.510 -12.813   3.310  1.00  0.00    -0.333 N 
HETATM    2  H   UNL     1      38.542 -13.116   3.279  1.00  0.00     0.168 HD
ENDROOT
BRANCH   1   3
HETATM    3  C   UNL     1      39.894 -12.032   2.203  1.00  0.00     0.034 A 
HETATM    4  C   UNL     1      41.153 -11.475   2.016  1.00  0.00     0.032 A 
HETATM    5  C   UNL     1      41.451 -10.757   0.842  1.00  0.00     0.031 A 
HETATM    6  C   UNL     1      40.517 -10.588  -0.193  1.00  0.00     0.030 A 
HETATM    7  C   UNL     1      39.271 -11.204   0.001  1.00  0.00     0.031 A 
HETATM    8  C   UNL     1      38.959 -11.901   1.175  1.00  0.00     0.032 A 
BRANCH   6   9
HETATM    9  N   UNL     1      40.798  -9.919  -1.395  1.00  0.00    -0.378 N 
HETATM   10  C   UNL     1      41.337  -8.546  -1.329  1.00  0.00     0.143 C 
HETATM   11  C   UNL     1      41.892  -8.095  -2.695  1.00  0.00     0.145 C 
HETATM   12  N   UNL     1      40.970  -8.326  -3.814  1.00  0.00    -0.349 N 
HETATM   13  C   UNL     1      41.063  -7.659  -5.034  1.00  0.00     0.219 C 
HETATM   14  C   UNL     1      40.340  -9.649  -3.824  1.00  0.00     0.145 C 
HETATM   15  O   UNL     1      40.510  -8.080  -6.051  1.00  0.00    -0.273 OA
HETATM   16  C   UNL     1      39.767 -10.059  -2.457  1.00  0.00     0.143 C 
BRANCH  13  17
HETATM   17  C   UNL     1      41.860  -6.362  -5.046  1.00  0.00     0.103 C 
BRANCH  17  18
HETATM   18  C   UNL     1      43.099  -6.449  -5.936  1.00  0.00     0.005 C 
HETATM   19  C   UNL     1      43.227  -5.231  -6.835  1.00  0.00     0.005 C 
ENDBRANCH  17  18
ENDBRANCH  13  17
ENDBRANCH   6   9
ENDBRANCH   1   3
BRANCH   1  20
HETATM   20  C   UNL     1      40.216 -13.466   4.251  1.00  0.00     0.179 C 
HETATM   21  S   UNL     1      40.188 -12.864   5.816  1.00  0.00    -0.040 SA
BRANCH  20  22
HETATM   22  N   UNL     1      40.998 -14.552   4.027  1.00  0.00    -0.299 N 
HETATM   23  C   UNL     1      42.390 -14.646   3.966  1.00  0.00     0.260 C 
HETATM   24  O   UNL     1      43.171 -13.718   3.819  1.00  0.00    -0.267 OA
HETATM   25  H   UNL     1      40.543 -15.382   4.383  1.00  0.00     0.171 HD
BRANCH  23  26
HETATM   26  C   UNL     1      42.904 -16.039   4.131  1.00  0.00     0.066 A 
HETATM   27  C   UNL     1      43.447 -16.482   5.343  1.00  0.00     0.084 A 
HETATM   28  C   UNL     1      43.928 -17.790   5.461  1.00  0.00     0.050 A 
HETATM   29  C   UNL     1      43.833 -18.695   4.394  1.00  0.00    -0.023 A 
HETATM   30  C   UNL     1      43.278 -18.261   3.169  1.00  0.00    -0.025 A 
HETATM   31  C   UNL     1      44.277 -20.021   4.518  1.00  0.00     0.012 A 
HETATM   32  C   UNL     1      42.836 -16.932   3.046  1.00  0.00     0.032 A 
HETATM   33  C   UNL     1      43.181 -19.170   2.101  1.00  0.00     0.012 A 
HETATM   34  C   UNL     1      43.619 -20.487   2.244  1.00  0.00     0.001 A 
HETATM   35  C   UNL     1      44.167 -20.913   3.451  1.00  0.00     0.001 A 
BRANCH  27  36
HETATM   36  O   UNL     1      43.594 -15.697   6.456  1.00  0.00    -0.355 OA
HETATM   37  C   UNL     1      42.606 -15.980   7.446  1.00  0.00     0.210 C 
ENDBRANCH  27  36
ENDBRANCH  23  26
ENDBRANCH  20  22
ENDBRANCH   1  20
TORSDOF 8
ENDMDL
MODEL 10
REMARK VINA RESULT:      -8.0      5.595      9.132
REMARK  8 active torsions:
REMARK  status: ('A' for Active; 'I' for Inactive)
REMARK    1  A    between atoms: C_2  and  C_3 
REMARK    2  A    between atoms: C_3  and  C_4 
REMARK       I    between atoms: C_4  and  N_5 
REMARK    3  A    between atoms: N_8  and  C_9 
REMARK    4  A    between atoms: C_12  and  N_13 
REMARK    5  A    between atoms: N_13  and  C_14 
REMARK    6  A    between atoms: C_14  and  N_15 
REMARK       I    between atoms: N_15  and  C_16 
REMARK    7  A    between atoms: C_16  and  C_17 
REMARK    8  A    between atoms: C_18  and  O_19 
ROOT
HETATM    1  N   UNL     1      39.442 -13.836   0.427  1.00  0.00    -0.333 N 
HETATM    2  H   UNL     1      39.052 -14.699   0.062  1.00  0.00     0.168 HD
ENDROOT
BRANCH   1   3
HETATM    3  C   UNL     1      39.584 -12.825  -0.543  1.00  0.00     0.034 A 
HETATM    4  C   UNL     1      38.574 -11.965  -0.956  1.00  0.00     0.032 A 
HETATM    5  C   UNL     1      38.837 -10.948  -1.893  1.00  0.00     0.031 A 
HETATM    6  C   UNL     1      40.115 -10.738  -2.434  1.00  0.00     0.030 A 
HETATM    7  C   UNL     1      41.127 -11.588  -1.962  1.00  0.00     0.031 A 
HETATM    8  C   UNL     1      40.869 -12.617  -1.047  1.00  0.00     0.032 A 
BRANCH   6   9
HETATM    9  N   UNL     1      40.421  -9.704  -3.334  1.00  0.00    -0.378 N 
HETATM   10  C   UNL     1      41.283  -8.598  -2.872  1.00  0.00     0.143 C 
HETATM   11  C   UNL     1      41.782  -7.744  -4.055  1.00  0.00     0.145 C 
HETATM   12  N   UNL     1      40.717  -7.331  -4.977  1.00  0.00    -0.349 N 
HETATM   13  C   UNL     1      40.839  -6.258  -5.859  1.00  0.00     0.219 C 
HETATM   14  C   UNL     1      39.785  -8.398  -5.352  1.00  0.00     0.145 C 
HETATM   15  O   UNL     1      40.095  -6.124  -6.830  1.00  0.00    -0.273 OA
HETATM   16  C   UNL     1      39.279  -9.213  -4.149  1.00  0.00     0.143 C 
BRANCH  13  17
HETATM   17  C   UNL     1      41.923  -5.237  -5.545  1.00  0.00     0.103 C 
BRANCH  17  18
HETATM   18  C   UNL     1      42.889  -5.037  -6.713  1.00  0.00     0.005 C 
HETATM   19  C   UNL     1      43.591  -6.332  -7.085  1.00  0.00     0.005 C 
ENDBRANCH  17  18
ENDBRANCH  13  17
ENDBRANCH   6   9
ENDBRANCH   1   3
BRANCH   1  20
HETATM   20  C   UNL     1      39.962 -13.994   1.657  1.00  0.00     0.179 C 
HETATM   21  S   UNL     1      39.847 -12.710   2.732  1.00  0.00    -0.040 SA
BRANCH  20  22
HETATM   22  N   UNL     1      40.624 -15.096   2.090  1.00  0.00    -0.299 N 
HETATM   23  C   UNL     1      41.890 -15.567   1.739  1.00  0.00     0.260 C 
HETATM   24  O   UNL     1      42.539 -15.233   0.759  1.00  0.00    -0.267 OA
HETATM   25  H   UNL     1      40.354 -15.307   3.042  1.00  0.00     0.171 HD
BRANCH  23  26
HETATM   26  C   UNL     1      42.458 -16.547   2.714  1.00  0.00     0.066 A 
HETATM   27  C   UNL     1      42.659 -16.213   4.058  1.00  0.00     0.084 A 
HETATM   28  C   UNL     1      43.201 -17.152   4.942  1.00  0.00     0.050 A 
HETATM   29  C   UNL     1      43.505 -18.453   4.517  1.00  0.00    -0.023 A 
HETATM   30  C   UNL     1      43.296 -18.804   3.165  1.00  0.00    -0.025 A 
HETATM   31  C   UNL     1      44.011 -19.413   5.408  1.00  0.00     0.012 A 
HETATM   32  C   UNL     1      42.791 -17.841   2.274  1.00  0.00     0.032 A 
HETATM   33  C   UNL     1      43.599 -20.110   2.742  1.00  0.00     0.012 A 
HETATM   34  C   UNL     1      44.094 -21.055   3.642  1.00  0.00     0.001 A 
HETATM   35  C   UNL     1      44.300 -20.707   4.974  1.00  0.00     0.001 A 
BRANCH  27  36
HETATM   36  O   UNL     1      42.402 -14.979   4.593  1.00  0.00    -0.355 OA
HETATM   37  C   UNL     1      42.048 -15.056   5.973  1.00  0.00     0.210 C 
ENDBRANCH  27  36
ENDBRANCH  23  26
ENDBRANCH  20  22
ENDBRANCH   1  20
TORSDOF 8
ENDMDL
