MODEL 1
REMARK VINA RESULT:      -7.2      0.000      0.000
REMARK  5 active torsions:
REMARK  status: ('A' for Active; 'I' for Inactive)
REMARK    1  A    between atoms: C_7  and  C_8 
REMARK    2  A    between atoms: C_8  and  N_9 
REMARK    3  A    between atoms: C_12  and  C_13 
REMARK    4  A    between atoms: C_13  and  C_14 
REMARK    5  A    between atoms: C_14  and  O_15 
ROOT
HETATM    1  C   UNL     1      40.653 -15.816   2.430  1.00  0.00     0.020 A 
HETATM    2  C   UNL     1      40.501 -14.810   3.357  1.00  0.00     0.117 A 
HETATM    3  N   UNL     1      41.276 -14.679   4.460  1.00  0.00    -0.260 NA
HETATM    4  C   UNL     1      42.275 -15.571   4.649  1.00  0.00     0.076 A 
HETATM    5  C   UNL     1      42.511 -16.653   3.768  1.00  0.00     0.011 A 
HETATM    6  C   UNL     1      41.663 -16.747   2.643  1.00  0.00     0.016 A 
HETATM    7  C   UNL     1      43.088 -15.417   5.777  1.00  0.00    -0.003 A 
HETATM    8  C   UNL     1      44.130 -16.318   6.044  1.00  0.00     0.012 A 
HETATM    9  C   UNL     1      44.361 -17.389   5.189  1.00  0.00     0.020 A 
HETATM   10  C   UNL     1      43.562 -17.557   4.058  1.00  0.00     0.023 A 
HETATM   11 BR   UNL     1      43.964 -19.052   2.952  1.00  0.00    -0.050 Br
ENDROOT
BRANCH   7  12
HETATM   12  C   UNL     1      42.877 -14.234   6.691  1.00  0.00     0.275 C 
BRANCH  12  13
HETATM   13  N   UNL     1      43.372 -12.930   6.127  1.00  0.00    -0.067 N 
HETATM   14  H   UNL     1      43.486 -13.139   5.115  1.00  0.00     0.280 HD
HETATM   15  C   UNL     1      44.699 -12.475   6.673  1.00  0.00     0.240 C 
HETATM   16  C   UNL     1      44.357 -11.249   7.511  1.00  0.00     0.015 C 
HETATM   17  C   UNL     1      43.256 -10.603   6.677  1.00  0.00     0.034 C 
HETATM   18  C   UNL     1      42.400 -11.781   6.254  1.00  0.00     0.235 C 
BRANCH  16  19
HETATM   19  C   UNL     1      45.589 -10.375   7.771  1.00  0.00     0.032 C 
BRANCH  19  20
HETATM   20  C   UNL     1      45.372  -9.307   8.839  1.00  0.00     0.164 C 
BRANCH  20  21
HETATM   21  O   UNL     1      45.607  -8.024   8.285  1.00  0.00    -0.401 OA
HETATM   22  H   UNL     1      46.157  -8.150   7.489  1.00  0.00     0.209 HD
ENDBRANCH  20  21
ENDBRANCH  19  20
ENDBRANCH  16  19
ENDBRANCH  12  13
ENDBRANCH   7  12
TORSDOF 5
ENDMDL
MODEL 2
REMARK VINA RESULT:      -7.2      5.021      7.438
REMARK  5 active torsions:
REMARK  status: ('A' for Active; 'I' for Inactive)
REMARK    1  A    between atoms: C_7  and  C_8 
REMARK    2  A    between atoms: C_8  and  N_9 
REMARK    3  A    between atoms: C_12  and  C_13 
REMARK    4  A    between atoms: C_13  and  C_14 
REMARK    5  A    between atoms: C_14  and  O_15 
ROOT
HETATM    1  C   UNL     1      40.991 -15.535   6.090  1.00  0.00     0.020 A 
HETATM    2  C   UNL     1      40.604 -14.430   5.365  1.00  0.00     0.117 A 
HETATM    3  N   UNL     1      41.012 -14.180   4.099  1.00  0.00    -0.260 NA
HETATM    4  C   UNL     1      41.823 -15.080   3.499  1.00  0.00     0.076 A 
HETATM    5  C   UNL     1      42.294 -16.243   4.155  1.00  0.00     0.011 A 
HETATM    6  C   UNL     1      41.847 -16.444   5.480  1.00  0.00     0.016 A 
HETATM    7  C   UNL     1      42.222 -14.831   2.181  1.00  0.00    -0.003 A 
HETATM    8  C   UNL     1      43.078 -15.714   1.506  1.00  0.00     0.012 A 
HETATM    9  C   UNL     1      43.553 -16.851   2.147  1.00  0.00     0.020 A 
HETATM   10  C   UNL     1      43.164 -17.118   3.460  1.00  0.00     0.023 A 
HETATM   11 BR   UNL     1      43.867 -18.703   4.246  1.00  0.00    -0.050 Br
ENDROOT
BRANCH   7  12
HETATM   12  C   UNL     1      41.679 -13.622   1.456  1.00  0.00     0.275 C 
BRANCH  12  13
HETATM   13  N   UNL     1      40.258 -13.778   0.986  1.00  0.00    -0.067 N 
HETATM   14  H   UNL     1      39.751 -14.040   1.855  1.00  0.00     0.280 HD
HETATM   15  C   UNL     1      40.052 -14.864  -0.034  1.00  0.00     0.240 C 
HETATM   16  C   UNL     1      39.720 -14.112  -1.318  1.00  0.00     0.015 C 
HETATM   17  C   UNL     1      38.879 -12.956  -0.788  1.00  0.00     0.034 C 
HETATM   18  C   UNL     1      39.633 -12.512   0.450  1.00  0.00     0.235 C 
BRANCH  16  19
HETATM   19  C   UNL     1      39.031 -15.016  -2.346  1.00  0.00     0.032 C 
BRANCH  19  20
HETATM   20  C   UNL     1      38.103 -14.269  -3.298  1.00  0.00     0.164 C 
BRANCH  20  21
HETATM   21  O   UNL     1      38.074 -14.928  -4.552  1.00  0.00    -0.401 OA
HETATM   22  H   UNL     1      38.191 -14.246  -5.239  1.00  0.00     0.209 HD
ENDBRANCH  20  21
ENDBRANCH  19  20
ENDBRANCH  16  19
ENDBRANCH  12  13
ENDBRANCH   7  12
TORSDOF 5
ENDMDL
MODEL 3
REMARK VINA RESULT:      -7.2      4.228      6.445
REMARK  5 active torsions:
REMARK  status: ('A' for Active; 'I' for Inactive)
REMARK    1  A    between atoms: C_7  and  C_8 
REMARK    2  A    between atoms: C_8  and  N_9 
REMARK    3  A    between atoms: C_12  and  C_13 
REMARK    4  A    between atoms: C_13  and  C_14 
REMARK    5  A    between atoms: C_14  and  O_15 
ROOT
HETATM    1  C   UNL     1      43.294 -16.376   7.238  1.00  0.00     0.020 A 
HETATM    2  C   UNL     1      43.049 -15.220   6.530  1.00  0.00     0.117 A 
HETATM    3  N   UNL     1      43.052 -15.151   5.178  1.00  0.00    -0.260 NA
HETATM    4  C   UNL     1      43.280 -16.287   4.480  1.00  0.00     0.076 A 
HETATM    5  C   UNL     1      43.558 -17.526   5.105  1.00  0.00     0.011 A 
HETATM    6  C   UNL     1      43.556 -17.535   6.518  1.00  0.00     0.016 A 
HETATM    7  C   UNL     1      43.257 -16.216   3.083  1.00  0.00    -0.003 A 
HETATM    8  C   UNL     1      43.503 -17.352   2.298  1.00  0.00     0.012 A 
HETATM    9  C   UNL     1      43.788 -18.570   2.904  1.00  0.00     0.020 A 
HETATM   10  C   UNL     1      43.813 -18.661   4.296  1.00  0.00     0.023 A 
HETATM   11 BR   UNL     1      44.208 -20.373   5.026  1.00  0.00    -0.050 Br
ENDROOT
BRANCH   7  12
HETATM   12  C   UNL     1      42.906 -14.911   2.410  1.00  0.00     0.275 C 
BRANCH  12  13
HETATM   13  N   UNL     1      41.431 -14.714   2.188  1.00  0.00    -0.067 N 
HETATM   14  H   UNL     1      41.001 -15.324   2.911  1.00  0.00     0.280 HD
HETATM   15  C   UNL     1      40.938 -15.154   0.836  1.00  0.00     0.240 C 
HETATM   16  C   UNL     1      40.568 -13.854   0.132  1.00  0.00     0.015 C 
HETATM   17  C   UNL     1      39.984 -13.038   1.280  1.00  0.00     0.034 C 
HETATM   18  C   UNL     1      40.943 -13.303   2.423  1.00  0.00     0.235 C 
BRANCH  16  19
HETATM   19  C   UNL     1      39.628 -14.096  -1.054  1.00  0.00     0.032 C 
BRANCH  19  20
HETATM   20  C   UNL     1      39.975 -13.275  -2.292  1.00  0.00     0.164 C 
BRANCH  20  21
HETATM   21  O   UNL     1      40.985 -13.936  -3.034  1.00  0.00    -0.401 OA
HETATM   22  H   UNL     1      40.676 -14.847  -3.193  1.00  0.00     0.209 HD
ENDBRANCH  20  21
ENDBRANCH  19  20
ENDBRANCH  16  19
ENDBRANCH  12  13
ENDBRANCH   7  12
TORSDOF 5
ENDMDL
MODEL 4
REMARK VINA RESULT:      -7.0      4.878      7.386
REMARK  5 active torsions:
REMARK  status: ('A' for Active; 'I' for Inactive)
REMARK    1  A    between atoms: C_7  and  C_8 
REMARK    2  A    between atoms: C_8  and  N_9 
REMARK    3  A    between atoms: C_12  and  C_13 
REMARK    4  A    between atoms: C_13  and  C_14 
REMARK    5  A    between atoms: C_14  and  O_15 
ROOT
HETATM    1  C   UNL     1      44.168 -18.993   4.113  1.00  0.00     0.020 A 
HETATM    2  C   UNL     1      43.843 -18.707   2.806  1.00  0.00     0.117 A 
HETATM    3  N   UNL     1      43.239 -17.561   2.413  1.00  0.00    -0.260 NA
HETATM    4  C   UNL     1      42.963 -16.629   3.354  1.00  0.00     0.076 A 
HETATM    5  C   UNL     1      43.240 -16.824   4.728  1.00  0.00     0.011 A 
HETATM    6  C   UNL     1      43.857 -18.044   5.081  1.00  0.00     0.016 A 
HETATM    7  C   UNL     1      42.362 -15.435   2.941  1.00  0.00    -0.003 A 
HETATM    8  C   UNL     1      42.032 -14.434   3.866  1.00  0.00     0.012 A 
HETATM    9  C   UNL     1      42.291 -14.623   5.218  1.00  0.00     0.020 A 
HETATM   10  C   UNL     1      42.892 -15.805   5.650  1.00  0.00     0.023 A 
HETATM   11 BR   UNL     1      43.206 -15.963   7.520  1.00  0.00    -0.050 Br
ENDROOT
BRANCH   7  12
HETATM   12  C   UNL     1      42.115 -15.197   1.470  1.00  0.00     0.275 C 
BRANCH  12  13
HETATM   13  N   UNL     1      40.977 -14.256   1.185  1.00  0.00    -0.067 N 
HETATM   14  H   UNL     1      40.586 -14.067   2.130  1.00  0.00     0.280 HD
HETATM   15  C   UNL     1      39.886 -14.836   0.325  1.00  0.00     0.240 C 
HETATM   16  C   UNL     1      40.004 -14.074  -0.990  1.00  0.00     0.015 C 
HETATM   17  C   UNL     1      40.365 -12.675  -0.504  1.00  0.00     0.034 C 
HETATM   18  C   UNL     1      41.390 -12.934   0.582  1.00  0.00     0.235 C 
BRANCH  16  19
HETATM   19  C   UNL     1      38.721 -14.175  -1.823  1.00  0.00     0.032 C 
BRANCH  19  20
HETATM   20  C   UNL     1      38.761 -15.271  -2.884  1.00  0.00     0.164 C 
BRANCH  20  21
HETATM   21  O   UNL     1      38.313 -16.493  -2.325  1.00  0.00    -0.401 OA
HETATM   22  H   UNL     1      38.958 -16.750  -1.639  1.00  0.00     0.209 HD
ENDBRANCH  20  21
ENDBRANCH  19  20
ENDBRANCH  16  19
ENDBRANCH  12  13
ENDBRANCH   7  12
TORSDOF 5
ENDMDL
MODEL 5
REMARK VINA RESULT:      -6.7      5.178      7.433
REMARK  5 active torsions:
REMARK  status: ('A' for Active; 'I' for Inactive)
REMARK    1  A    between atoms: C_7  and  C_8 
REMARK    2  A    between atoms: C_8  and  N_9 
REMARK    3  A    between atoms: C_12  and  C_13 
REMARK    4  A    between atoms: C_13  and  C_14 
REMARK    5  A    between atoms: C_14  and  O_15 
ROOT
HETATM    1  C   UNL     1      41.593 -10.416   0.630  1.00  0.00     0.020 A 
HETATM    2  C   UNL     1      41.792 -11.008   1.857  1.00  0.00     0.117 A 
HETATM    3  N   UNL     1      41.447 -12.286   2.141  1.00  0.00    -0.260 NA
HETATM    4  C   UNL     1      40.900 -13.035   1.157  1.00  0.00     0.076 A 
HETATM    5  C   UNL     1      40.638 -12.524  -0.137  1.00  0.00     0.011 A 
HETATM    6  C   UNL     1      41.006 -11.180  -0.372  1.00  0.00     0.016 A 
HETATM    7  C   UNL     1      40.568 -14.362   1.448  1.00  0.00    -0.003 A 
HETATM    8  C   UNL     1      39.981 -15.189   0.478  1.00  0.00     0.012 A 
HETATM    9  C   UNL     1      39.710 -14.691  -0.790  1.00  0.00     0.020 A 
HETATM   10  C   UNL     1      40.037 -13.371  -1.100  1.00  0.00     0.023 A 
HETATM   11 BR   UNL     1      39.628 -12.789  -2.865  1.00  0.00    -0.050 Br
ENDROOT
BRANCH   7  12
HETATM   12  C   UNL     1      40.897 -14.930   2.807  1.00  0.00     0.275 C 
BRANCH  12  13
HETATM   13  N   UNL     1      42.349 -15.280   2.990  1.00  0.00    -0.067 N 
HETATM   14  H   UNL     1      42.840 -14.452   2.600  1.00  0.00     0.280 HD
HETATM   15  C   UNL     1      42.798 -16.502   2.235  1.00  0.00     0.240 C 
HETATM   16  C   UNL     1      43.072 -17.533   3.323  1.00  0.00     0.015 C 
HETATM   17  C   UNL     1      43.671 -16.666   4.425  1.00  0.00     0.034 C 
HETATM   18  C   UNL     1      42.780 -15.439   4.429  1.00  0.00     0.235 C 
BRANCH  16  19
HETATM   19  C   UNL     1      43.966 -18.671   2.817  1.00  0.00     0.032 C 
BRANCH  19  20
HETATM   20  C   UNL     1      43.202 -19.783   2.105  1.00  0.00     0.164 C 
BRANCH  20  21
HETATM   21  O   UNL     1      43.903 -21.006   2.240  1.00  0.00    -0.401 OA
HETATM   22  H   UNL     1      44.847 -20.816   2.081  1.00  0.00     0.209 HD
ENDBRANCH  20  21
ENDBRANCH  19  20
ENDBRANCH  16  19
ENDBRANCH  12  13
ENDBRANCH   7  12
TORSDOF 5
ENDMDL
MODEL 6
REMARK VINA RESULT:      -6.6      1.999      3.082
REMARK  5 active torsions:
REMARK  status: ('A' for Active; 'I' for Inactive)
REMARK    1  A    between atoms: C_7  and  C_8 
REMARK    2  A    between atoms: C_8  and  N_9 
REMARK    3  A    between atoms: C_12  and  C_13 
REMARK    4  A    between atoms: C_13  and  C_14 
REMARK    5  A    between atoms: C_14  and  O_15 
ROOT
HETATM    1  C   UNL     1      41.937 -16.491   6.140  1.00  0.00     0.020 A 
HETATM    2  C   UNL     1      42.076 -15.452   7.033  1.00  0.00     0.117 A 
HETATM    3  N   UNL     1      42.483 -14.209   6.684  1.00  0.00    -0.260 NA
HETATM    4  C   UNL     1      42.742 -13.964   5.379  1.00  0.00     0.076 A 
HETATM    5  C   UNL     1      42.646 -14.961   4.380  1.00  0.00     0.011 A 
HETATM    6  C   UNL     1      42.230 -16.242   4.804  1.00  0.00     0.016 A 
HETATM    7  C   UNL     1      43.138 -12.671   5.020  1.00  0.00    -0.003 A 
HETATM    8  C   UNL     1      43.440 -12.352   3.687  1.00  0.00     0.012 A 
HETATM    9  C   UNL     1      43.359 -13.329   2.702  1.00  0.00     0.020 A 
HETATM   10  C   UNL     1      42.963 -14.623   3.041  1.00  0.00     0.023 A 
HETATM   11 BR   UNL     1      42.881 -15.884   1.618  1.00  0.00    -0.050 Br
ENDROOT
BRANCH   7  12
HETATM   12  C   UNL     1      43.188 -11.589   6.072  1.00  0.00     0.275 C 
BRANCH  12  13
HETATM   13  N   UNL     1      44.321 -11.738   7.050  1.00  0.00    -0.067 N 
HETATM   14  H   UNL     1      44.352 -12.763   7.219  1.00  0.00     0.280 HD
HETATM   15  C   UNL     1      44.105 -11.044   8.368  1.00  0.00     0.240 C 
HETATM   16  C   UNL     1      45.112  -9.899   8.356  1.00  0.00     0.015 C 
HETATM   17  C   UNL     1      46.305 -10.546   7.661  1.00  0.00     0.034 C 
HETATM   18  C   UNL     1      45.670 -11.315   6.519  1.00  0.00     0.235 C 
BRANCH  16  19
HETATM   19  C   UNL     1      45.379  -9.362   9.766  1.00  0.00     0.032 C 
BRANCH  19  20
HETATM   20  C   UNL     1      44.276  -9.687  10.768  1.00  0.00     0.164 C 
BRANCH  20  21
HETATM   21  O   UNL     1      43.556  -8.508  11.085  1.00  0.00    -0.401 OA
HETATM   22  H   UNL     1      42.618  -8.680  10.878  1.00  0.00     0.209 HD
ENDBRANCH  20  21
ENDBRANCH  19  20
ENDBRANCH  16  19
ENDBRANCH  12  13
ENDBRANCH   7  12
TORSDOF 5
ENDMDL
MODEL 7
REMARK VINA RESULT:      -6.5      3.580      6.287
REMARK  5 active torsions:
REMARK  status: ('A' for Active; 'I' for Inactive)
REMARK    1  A    between atoms: C_7  and  C_8 
REMARK    2  A    between atoms: C_8  and  N_9 
REMARK    3  A    between atoms: C_12  and  C_13 
REMARK    4  A    between atoms: C_13  and  C_14 
REMARK    5  A    between atoms: C_14  and  O_15 
ROOT
HETATM    1  C   UNL     1      42.800 -15.715   7.775  1.00  0.00     0.020 A 
HETATM    2  C   UNL     1      41.835 -16.205   6.924  1.00  0.00     0.117 A 
HETATM    3  N   UNL     1      41.436 -15.572   5.795  1.00  0.00    -0.260 NA
HETATM    4  C   UNL     1      42.039 -14.407   5.468  1.00  0.00     0.076 A 
HETATM    5  C   UNL     1      43.032 -13.806   6.278  1.00  0.00     0.011 A 
HETATM    6  C   UNL     1      43.398 -14.503   7.450  1.00  0.00     0.016 A 
HETATM    7  C   UNL     1      41.642 -13.770   4.287  1.00  0.00    -0.003 A 
HETATM    8  C   UNL     1      42.213 -12.549   3.898  1.00  0.00     0.012 A 
HETATM    9  C   UNL     1      43.180 -11.947   4.693  1.00  0.00     0.020 A 
HETATM   10  C   UNL     1      43.591 -12.569   5.873  1.00  0.00     0.023 A 
HETATM   11 BR   UNL     1      44.923 -11.664   6.887  1.00  0.00    -0.050 Br
ENDROOT
BRANCH   7  12
HETATM   12  C   UNL     1      40.624 -14.433   3.390  1.00  0.00     0.275 C 
BRANCH  12  13
HETATM   13  N   UNL     1      41.226 -15.302   2.319  1.00  0.00    -0.067 N 
HETATM   14  H   UNL     1      40.469 -15.358   1.610  1.00  0.00     0.280 HD
HETATM   15  C   UNL     1      41.567 -16.698   2.765  1.00  0.00     0.240 C 
HETATM   16  C   UNL     1      43.091 -16.731   2.754  1.00  0.00     0.015 C 
HETATM   17  C   UNL     1      43.408 -15.883   1.527  1.00  0.00     0.034 C 
HETATM   18  C   UNL     1      42.447 -14.717   1.649  1.00  0.00     0.235 C 
BRANCH  16  19
HETATM   19  C   UNL     1      43.629 -18.166   2.723  1.00  0.00     0.032 C 
BRANCH  19  20
HETATM   20  C   UNL     1      44.007 -18.711   4.097  1.00  0.00     0.164 C 
BRANCH  20  21
HETATM   21  O   UNL     1      44.525 -17.664   4.899  1.00  0.00    -0.401 OA
HETATM   22  H   UNL     1      44.195 -16.825   4.526  1.00  0.00     0.209 HD
ENDBRANCH  20  21
ENDBRANCH  19  20
ENDBRANCH  16  19
ENDBRANCH  12  13
ENDBRANCH   7  12
TORSDOF 5
ENDMDL
MODEL 8
REMARK VINA RESULT:      -6.4     16.141     17.169
REMARK  5 active torsions:
REMARK  status: ('A' for Active; 'I' for Inactive)
REMARK    1  A    between atoms: C_7  and  C_8 
REMARK    2  A    between atoms: C_8  and  N_9 
REMARK    3  A    between atoms: C_12  and  C_13 
REMARK    4  A    between atoms: C_13  and  C_14 
REMARK    5  A    between atoms: C_14  and  O_15 
ROOT
HETATM    1  C   UNL     1      43.175 -29.534   0.692  1.00  0.00     0.020 A 
HETATM    2  C   UNL     1      43.925 -29.577   1.846  1.00  0.00     0.117 A 
HETATM    3  N   UNL     1      45.232 -29.226   1.907  1.00  0.00    -0.260 NA
HETATM    4  C   UNL     1      45.828 -28.782   0.778  1.00  0.00     0.076 A 
HETATM    5  C   UNL     1      45.156 -28.711  -0.466  1.00  0.00     0.011 A 
HETATM    6  C   UNL     1      43.799 -29.102  -0.472  1.00  0.00     0.016 A 
HETATM    7  C   UNL     1      47.171 -28.397   0.851  1.00  0.00    -0.003 A 
HETATM    8  C   UNL     1      47.857 -27.944  -0.286  1.00  0.00     0.012 A 
HETATM    9  C   UNL     1      47.206 -27.882  -1.512  1.00  0.00     0.020 A 
HETATM   10  C   UNL     1      45.866 -28.259  -1.605  1.00  0.00     0.023 A 
HETATM   11 BR   UNL     1      45.068 -28.134  -3.328  1.00  0.00    -0.050 Br
ENDROOT
BRANCH   7  12
HETATM   12  C   UNL     1      47.879 -28.417   2.185  1.00  0.00     0.275 C 
BRANCH  12  13
HETATM   13  N   UNL     1      48.251 -29.795   2.660  1.00  0.00    -0.067 N 
HETATM   14  H   UNL     1      47.333 -30.279   2.720  1.00  0.00     0.280 HD
HETATM   15  C   UNL     1      48.900 -29.835   4.017  1.00  0.00     0.240 C 
HETATM   16  C   UNL     1      50.341 -30.241   3.729  1.00  0.00     0.015 C 
HETATM   17  C   UNL     1      50.158 -31.239   2.592  1.00  0.00     0.034 C 
HETATM   18  C   UNL     1      49.123 -30.575   1.705  1.00  0.00     0.235 C 
BRANCH  16  19
HETATM   19  C   UNL     1      51.041 -30.784   4.980  1.00  0.00     0.032 C 
BRANCH  19  20
HETATM   20  C   UNL     1      50.801 -32.271   5.223  1.00  0.00     0.164 C 
BRANCH  20  21
HETATM   21  O   UNL     1      49.976 -32.442   6.362  1.00  0.00    -0.401 OA
HETATM   22  H   UNL     1      49.512 -31.596   6.511  1.00  0.00     0.209 HD
ENDBRANCH  20  21
ENDBRANCH  19  20
ENDBRANCH  16  19
ENDBRANCH  12  13
ENDBRANCH   7  12
TORSDOF 5
ENDMDL
MODEL 9
REMARK VINA RESULT:      -6.4      4.058      6.779
REMARK  5 active torsions:
REMARK  status: ('A' for Active; 'I' for Inactive)
REMARK    1  A    between atoms: C_7  and  C_8 
REMARK    2  A    between atoms: C_8  and  N_9 
REMARK    3  A    between atoms: C_12  and  C_13 
REMARK    4  A    between atoms: C_13  and  C_14 
REMARK    5  A    between atoms: C_14  and  O_15 
ROOT
HETATM    1  C   UNL     1      43.366 -12.981   6.642  1.00  0.00     0.020 A 
HETATM    2  C   UNL     1      43.221 -12.397   5.404  1.00  0.00     0.117 A 
HETATM    3  N   UNL     1      43.108 -13.097   4.250  1.00  0.00    -0.260 NA
HETATM    4  C   UNL     1      43.111 -14.448   4.319  1.00  0.00     0.076 A 
HETATM    5  C   UNL     1      43.269 -15.151   5.537  1.00  0.00     0.011 A 
HETATM    6  C   UNL     1      43.396 -14.369   6.706  1.00  0.00     0.016 A 
HETATM    7  C   UNL     1      42.969 -15.167   3.127  1.00  0.00    -0.003 A 
HETATM    8  C   UNL     1      42.982 -16.569   3.124  1.00  0.00     0.012 A 
HETATM    9  C   UNL     1      43.148 -17.267   4.314  1.00  0.00     0.020 A 
HETATM   10  C   UNL     1      43.288 -16.568   5.513  1.00  0.00     0.023 A 
HETATM   11 BR   UNL     1      43.506 -17.617   7.085  1.00  0.00    -0.050 Br
ENDROOT
BRANCH   7  12
HETATM   12  C   UNL     1      42.744 -14.423   1.832  1.00  0.00     0.275 C 
BRANCH  12  13
HETATM   13  N   UNL     1      41.350 -13.879   1.674  1.00  0.00    -0.067 N 
HETATM   14  H   UNL     1      40.936 -14.016   2.617  1.00  0.00     0.280 HD
HETATM   15  C   UNL     1      40.503 -14.611   0.668  1.00  0.00     0.240 C 
HETATM   16  C   UNL     1      40.335 -13.616  -0.474  1.00  0.00     0.015 C 
HETATM   17  C   UNL     1      40.213 -12.297   0.283  1.00  0.00     0.034 C 
HETATM   18  C   UNL     1      41.285 -12.405   1.350  1.00  0.00     0.235 C 
BRANCH  16  19
HETATM   19  C   UNL     1      39.146 -13.975  -1.372  1.00  0.00     0.032 C 
BRANCH  19  20
HETATM   20  C   UNL     1      39.523 -14.184  -2.836  1.00  0.00     0.164 C 
BRANCH  20  21
HETATM   21  O   UNL     1      40.893 -13.878  -3.024  1.00  0.00    -0.401 OA
HETATM   22  H   UNL     1      41.080 -13.067  -2.516  1.00  0.00     0.209 HD
ENDBRANCH  20  21
ENDBRANCH  19  20
ENDBRANCH  16  19
ENDBRANCH  12  13
ENDBRANCH   7  12
TORSDOF 5
ENDMDL
MODEL 10
REMARK VINA RESULT:      -6.4      3.530      5.083
REMARK  5 active torsions:
REMARK  status: ('A' for Active; 'I' for Inactive)
REMARK    1  A    between atoms: C_7  and  C_8 
REMARK    2  A    between atoms: C_8  and  N_9 
REMARK    3  A    between atoms: C_12  and  C_13 
REMARK    4  A    between atoms: C_13  and  C_14 
REMARK    5  A    between atoms: C_14  and  O_15 
ROOT
HETATM    1  C   UNL     1      43.568 -18.444   6.668  1.00  0.00     0.020 A 
HETATM    2  C   UNL     1      43.383 -17.099   6.898  1.00  0.00     0.117 A 
HETATM    3  N   UNL     1      43.245 -16.179   5.914  1.00  0.00    -0.260 NA
HETATM    4  C   UNL     1      43.262 -16.608   4.631  1.00  0.00     0.076 A 
HETATM    5  C   UNL     1      43.462 -17.965   4.280  1.00  0.00     0.011 A 
HETATM    6  C   UNL     1      43.614 -18.877   5.348  1.00  0.00     0.016 A 
HETATM    7  C   UNL     1      43.095 -15.658   3.618  1.00  0.00    -0.003 A 
HETATM    8  C   UNL     1      43.121 -16.031   2.266  1.00  0.00     0.012 A 
HETATM    9  C   UNL     1      43.327 -17.359   1.914  1.00  0.00     0.020 A 
HETATM   10  C   UNL     1      43.494 -18.321   2.909  1.00  0.00     0.023 A 
HETATM   11 BR   UNL     1      43.766 -20.110   2.321  1.00  0.00    -0.050 Br
ENDROOT
BRANCH   7  12
HETATM   12  C   UNL     1      42.826 -14.218   3.986  1.00  0.00     0.275 C 
BRANCH  12  13
HETATM   13  N   UNL     1      41.410 -13.951   4.419  1.00  0.00    -0.067 N 
HETATM   14  H   UNL     1      41.188 -14.773   5.015  1.00  0.00     0.280 HD
HETATM   15  C   UNL     1      40.412 -13.893   3.294  1.00  0.00     0.240 C 
HETATM   16  C   UNL     1      39.995 -12.427   3.241  1.00  0.00     0.015 C 
HETATM   17  C   UNL     1      39.975 -12.059   4.720  1.00  0.00     0.034 C 
HETATM   18  C   UNL     1      41.234 -12.709   5.261  1.00  0.00     0.235 C 
BRANCH  16  19
HETATM   19  C   UNL     1      38.670 -12.239   2.494  1.00  0.00     0.032 C 
BRANCH  19  20
HETATM   20  C   UNL     1      38.839 -11.927   1.010  1.00  0.00     0.164 C 
BRANCH  20  21
HETATM   21  O   UNL     1      40.114 -11.350   0.786  1.00  0.00    -0.401 OA
HETATM   22  H   UNL     1      40.533 -11.851   0.061  1.00  0.00     0.209 HD
ENDBRANCH  20  21
ENDBRANCH  19  20
ENDBRANCH  16  19
ENDBRANCH  12  13
ENDBRANCH   7  12
TORSDOF 5
ENDMDL
