MODEL 1
REMARK VINA RESULT:      -9.4      0.000      0.000
REMARK  5 active torsions:
REMARK  status: ('A' for Active; 'I' for Inactive)
REMARK    1  A    between atoms: C_2  and  C_3 
REMARK    2  A    between atoms: C_7  and  C_8 
REMARK    3  A    between atoms: C_8  and  N_9 
REMARK       I    between atoms: N_9  and  C_10 
REMARK       I    between atoms: C_10  and  N_11 
REMARK    4  A    between atoms: N_11  and  C_12 
REMARK    5  A    between atoms: N_18  and  C_19 
ROOT
HETATM    1  N   UNL     1      42.084 -12.535   4.833  1.00  0.00    -0.337 N 
HETATM    2  C   UNL     1      42.354 -12.160   3.553  1.00  0.00     0.321 C 
HETATM    3  N   UNL     1      42.596 -13.129   2.632  1.00  0.00    -0.309 N 
HETATM    4  O   UNL     1      42.338 -10.986   3.185  1.00  0.00    -0.247 OA
HETATM    5  H   UNL     1      41.650 -13.442   4.896  1.00  0.00     0.164 HD
HETATM    6  H   UNL     1      42.596 -12.726   1.701  1.00  0.00     0.170 HD
ENDROOT
BRANCH   3   7
HETATM    7  C   UNL     1      42.855 -14.509   2.710  1.00  0.00     0.037 A 
HETATM    8  C   UNL     1      43.374 -15.156   3.835  1.00  0.00     0.047 A 
HETATM    9  C   UNL     1      43.570 -16.526   3.752  1.00  0.00     0.050 A 
HETATM   10  C   UNL     1      43.291 -17.246   2.606  1.00  0.00     0.048 A 
HETATM   11  C   UNL     1      44.062 -17.471   4.754  1.00  0.00     0.262 A 
HETATM   12  C   UNL     1      43.602 -18.648   2.868  1.00  0.00     0.262 A 
HETATM   13  C   UNL     1      42.802 -16.638   1.472  1.00  0.00     0.020 A 
HETATM   14  O   UNL     1      43.407 -19.540   2.064  1.00  0.00    -0.267 OA
HETATM   15  N   UNL     1      44.096 -18.704   4.147  1.00  0.00    -0.275 N 
HETATM   16  C   UNL     1      42.594 -15.255   1.531  1.00  0.00     0.030 A 
HETATM   17  O   UNL     1      44.331 -17.152   5.897  1.00  0.00    -0.267 OA
BRANCH  15  18
HETATM   18  C   UNL     1      44.457 -19.919   4.807  1.00  0.00     0.096 A 
HETATM   19  C   UNL     1      43.646 -20.455   5.959  1.00  0.00     0.028 A 
HETATM   20  C   UNL     1      43.651 -21.182   4.649  1.00  0.00     0.028 A 
ENDBRANCH  15  18
ENDBRANCH   3   7
BRANCH   1  21
HETATM   21  C   UNL     1      41.572 -11.578   5.793  1.00  0.00     0.183 C 
BRANCH  21  22
HETATM   22  C   UNL     1      42.592 -11.195   6.796  1.00  0.00     0.047 A 
HETATM   23  N   UNL     1      43.440 -12.109   7.358  1.00  0.00    -0.280 N 
HETATM   24  N   UNL     1      44.374 -11.565   8.153  1.00  0.00    -0.178 NA
HETATM   25  H   UNL     1      43.433 -13.119   7.215  1.00  0.00     0.189 HD
HETATM   26  C   UNL     1      44.119 -10.250   8.118  1.00  0.00     0.064 A 
HETATM   27  C   UNL     1      42.994  -9.975   7.293  1.00  0.00     0.058 A 
BRANCH  26  28
HETATM   28  C   UNL     1      45.012  -9.252   8.841  1.00  0.00    -0.005 C 
HETATM   29  C   UNL     1      45.278  -9.662  10.306  1.00  0.00     0.021 C 
HETATM   30  C   UNL     1      44.359  -7.855   8.856  1.00  0.00     0.021 C 
HETATM   31  C   UNL     1      46.370  -9.160   8.116  1.00  0.00     0.021 C 
ENDBRANCH  26  28
ENDBRANCH  21  22
ENDBRANCH   1  21
TORSDOF 5
ENDMDL
MODEL 2
REMARK VINA RESULT:      -9.2      2.292      3.162
REMARK  5 active torsions:
REMARK  status: ('A' for Active; 'I' for Inactive)
REMARK    1  A    between atoms: C_2  and  C_3 
REMARK    2  A    between atoms: C_7  and  C_8 
REMARK    3  A    between atoms: C_8  and  N_9 
REMARK       I    between atoms: N_9  and  C_10 
REMARK       I    between atoms: C_10  and  N_11 
REMARK    4  A    between atoms: N_11  and  C_12 
REMARK    5  A    between atoms: N_18  and  C_19 
ROOT
HETATM    1  N   UNL     1      41.464 -11.835   5.976  1.00  0.00    -0.337 N 
HETATM    2  C   UNL     1      40.259 -12.373   6.307  1.00  0.00     0.321 C 
HETATM    3  N   UNL     1      40.158 -13.724   6.403  1.00  0.00    -0.309 N 
HETATM    4  O   UNL     1      39.272 -11.687   6.572  1.00  0.00    -0.247 OA
HETATM    5  H   UNL     1      42.243 -12.402   6.268  1.00  0.00     0.164 HD
HETATM    6  H   UNL     1      39.273 -13.974   6.832  1.00  0.00     0.170 HD
ENDROOT
BRANCH   3   7
HETATM    7  C   UNL     1      40.987 -14.796   6.026  1.00  0.00     0.037 A 
HETATM    8  C   UNL     1      41.077 -15.311   4.729  1.00  0.00     0.047 A 
HETATM    9  C   UNL     1      41.945 -16.371   4.520  1.00  0.00     0.050 A 
HETATM   10  C   UNL     1      42.690 -16.930   5.541  1.00  0.00     0.048 A 
HETATM   11  C   UNL     1      42.275 -17.092   3.292  1.00  0.00     0.262 A 
HETATM   12  C   UNL     1      43.495 -18.008   4.973  1.00  0.00     0.262 A 
HETATM   13  C   UNL     1      42.608 -16.465   6.835  1.00  0.00     0.020 A 
HETATM   14  O   UNL     1      44.299 -18.656   5.617  1.00  0.00    -0.267 OA
HETATM   15  N   UNL     1      43.166 -18.078   3.642  1.00  0.00    -0.275 N 
HETATM   16  C   UNL     1      41.739 -15.393   7.071  1.00  0.00     0.030 A 
HETATM   17  O   UNL     1      41.830 -16.790   2.200  1.00  0.00    -0.267 OA
BRANCH  15  18
HETATM   18  C   UNL     1      43.791 -18.969   2.716  1.00  0.00     0.096 A 
HETATM   19  C   UNL     1      43.807 -20.458   2.952  1.00  0.00     0.028 A 
HETATM   20  C   UNL     1      42.991 -19.889   1.831  1.00  0.00     0.028 A 
ENDBRANCH  15  18
ENDBRANCH   3   7
BRANCH   1  21
HETATM   21  C   UNL     1      41.700 -10.411   6.106  1.00  0.00     0.183 C 
BRANCH  21  22
HETATM   22  C   UNL     1      42.070 -10.031   7.489  1.00  0.00     0.047 A 
HETATM   23  N   UNL     1      41.137  -9.642   8.411  1.00  0.00    -0.280 N 
HETATM   24  N   UNL     1      41.637  -9.451   9.641  1.00  0.00    -0.178 NA
HETATM   25  H   UNL     1      40.138  -9.507   8.252  1.00  0.00     0.189 HD
HETATM   26  C   UNL     1      42.944  -9.716   9.516  1.00  0.00     0.064 A 
HETATM   27  C   UNL     1      43.264 -10.065   8.175  1.00  0.00     0.058 A 
BRANCH  26  28
HETATM   28  C   UNL     1      43.876  -9.689  10.719  1.00  0.00    -0.005 C 
HETATM   29  C   UNL     1      43.709 -10.936  11.614  1.00  0.00     0.021 C 
HETATM   30  C   UNL     1      43.600  -8.446  11.589  1.00  0.00     0.021 C 
HETATM   31  C   UNL     1      45.339  -9.641  10.233  1.00  0.00     0.021 C 
ENDBRANCH  26  28
ENDBRANCH  21  22
ENDBRANCH   1  21
TORSDOF 5
ENDMDL
MODEL 3
REMARK VINA RESULT:      -9.1      1.572      1.942
REMARK  5 active torsions:
REMARK  status: ('A' for Active; 'I' for Inactive)
REMARK    1  A    between atoms: C_2  and  C_3 
REMARK    2  A    between atoms: C_7  and  C_8 
REMARK    3  A    between atoms: C_8  and  N_9 
REMARK       I    between atoms: N_9  and  C_10 
REMARK       I    between atoms: C_10  and  N_11 
REMARK    4  A    between atoms: N_11  and  C_12 
REMARK    5  A    between atoms: N_18  and  C_19 
ROOT
HETATM    1  N   UNL     1      41.488 -11.891   5.143  1.00  0.00    -0.337 N 
HETATM    2  C   UNL     1      40.191 -12.287   5.035  1.00  0.00     0.321 C 
HETATM    3  N   UNL     1      39.934 -13.599   4.791  1.00  0.00    -0.309 N 
HETATM    4  O   UNL     1      39.243 -11.520   5.199  1.00  0.00    -0.247 OA
HETATM    5  H   UNL     1      42.098 -12.619   5.480  1.00  0.00     0.164 HD
HETATM    6  H   UNL     1      38.945 -13.785   4.920  1.00  0.00     0.170 HD
ENDROOT
BRANCH   3   7
HETATM    7  C   UNL     1      40.723 -14.693   4.395  1.00  0.00     0.037 A 
HETATM    8  C   UNL     1      41.474 -15.486   5.268  1.00  0.00     0.047 A 
HETATM    9  C   UNL     1      42.200 -16.532   4.719  1.00  0.00     0.050 A 
HETATM   10  C   UNL     1      42.214 -16.791   3.362  1.00  0.00     0.048 A 
HETATM   11  C   UNL     1      43.043 -17.537   5.365  1.00  0.00     0.262 A 
HETATM   12  C   UNL     1      43.063 -17.957   3.134  1.00  0.00     0.262 A 
HETATM   13  C   UNL     1      41.506 -16.016   2.470  1.00  0.00     0.020 A 
HETATM   14  O   UNL     1      43.229 -18.463   2.040  1.00  0.00    -0.267 OA
HETATM   15  N   UNL     1      43.558 -18.322   4.362  1.00  0.00    -0.275 N 
HETATM   16  C   UNL     1      40.764 -14.954   3.001  1.00  0.00     0.030 A 
HETATM   17  O   UNL     1      43.179 -17.617   6.572  1.00  0.00    -0.267 OA
BRANCH  15  18
HETATM   18  C   UNL     1      44.383 -19.468   4.575  1.00  0.00     0.096 A 
HETATM   19  C   UNL     1      43.935 -20.601   5.464  1.00  0.00     0.028 A 
HETATM   20  C   UNL     1      44.049 -20.813   3.985  1.00  0.00     0.028 A 
ENDBRANCH  15  18
ENDBRANCH   3   7
BRANCH   1  21
HETATM   21  C   UNL     1      41.821 -10.574   5.650  1.00  0.00     0.183 C 
BRANCH  21  22
HETATM   22  C   UNL     1      42.539 -10.640   6.944  1.00  0.00     0.047 A 
HETATM   23  N   UNL     1      43.437 -11.631   7.228  1.00  0.00    -0.280 N 
HETATM   24  N   UNL     1      44.078 -11.464   8.395  1.00  0.00    -0.178 NA
HETATM   25  H   UNL     1      43.662 -12.439   6.647  1.00  0.00     0.189 HD
HETATM   26  C   UNL     1      43.572 -10.328   8.895  1.00  0.00     0.064 A 
HETATM   27  C   UNL     1      42.586  -9.787   8.025  1.00  0.00     0.058 A 
BRANCH  26  28
HETATM   28  C   UNL     1      44.094  -9.734  10.196  1.00  0.00    -0.005 C 
HETATM   29  C   UNL     1      43.567  -8.302  10.435  1.00  0.00     0.021 C 
HETATM   30  C   UNL     1      45.634  -9.672  10.182  1.00  0.00     0.021 C 
HETATM   31  C   UNL     1      43.641 -10.615  11.379  1.00  0.00     0.021 C 
ENDBRANCH  26  28
ENDBRANCH  21  22
ENDBRANCH   1  21
TORSDOF 5
ENDMDL
MODEL 4
REMARK VINA RESULT:      -8.3      3.711      6.027
REMARK  5 active torsions:
REMARK  status: ('A' for Active; 'I' for Inactive)
REMARK    1  A    between atoms: C_2  and  C_3 
REMARK    2  A    between atoms: C_7  and  C_8 
REMARK    3  A    between atoms: C_8  and  N_9 
REMARK       I    between atoms: N_9  and  C_10 
REMARK       I    between atoms: C_10  and  N_11 
REMARK    4  A    between atoms: N_11  and  C_12 
REMARK    5  A    between atoms: N_18  and  C_19 
ROOT
HETATM    1  N   UNL     1      42.367 -13.795   5.079  1.00  0.00    -0.337 N 
HETATM    2  C   UNL     1      41.080 -14.133   5.364  1.00  0.00     0.321 C 
HETATM    3  N   UNL     1      40.226 -14.353   4.331  1.00  0.00    -0.309 N 
HETATM    4  O   UNL     1      40.672 -14.296   6.513  1.00  0.00    -0.247 OA
HETATM    5  H   UNL     1      42.688 -14.166   4.200  1.00  0.00     0.164 HD
HETATM    6  H   UNL     1      39.369 -14.773   4.677  1.00  0.00     0.170 HD
ENDROOT
BRANCH   3   7
HETATM    7  C   UNL     1      40.281 -14.109   2.947  1.00  0.00     0.037 A 
HETATM    8  C   UNL     1      40.602 -12.877   2.372  1.00  0.00     0.047 A 
HETATM    9  C   UNL     1      40.615 -12.800   0.987  1.00  0.00     0.050 A 
HETATM   10  C   UNL     1      40.307 -13.881   0.184  1.00  0.00     0.048 A 
HETATM   11  C   UNL     1      40.937 -11.678   0.107  1.00  0.00     0.262 A 
HETATM   12  C   UNL     1      40.428 -13.456  -1.208  1.00  0.00     0.262 A 
HETATM   13  C   UNL     1      39.962 -15.103   0.716  1.00  0.00     0.020 A 
HETATM   14  O   UNL     1      40.271 -14.205  -2.154  1.00  0.00    -0.267 OA
HETATM   15  N   UNL     1      40.762 -12.125  -1.180  1.00  0.00    -0.275 N 
HETATM   16  C   UNL     1      39.943 -15.206   2.112  1.00  0.00     0.030 A 
HETATM   17  O   UNL     1      41.316 -10.596   0.517  1.00  0.00    -0.267 OA
BRANCH  15  18
HETATM   18  C   UNL     1      41.038 -11.351  -2.349  1.00  0.00     0.096 A 
HETATM   19  C   UNL     1      39.925 -10.783  -3.192  1.00  0.00     0.028 A 
HETATM   20  C   UNL     1      40.801  -9.864  -2.396  1.00  0.00     0.028 A 
ENDBRANCH  15  18
ENDBRANCH   3   7
BRANCH   1  21
HETATM   21  C   UNL     1      43.380 -13.796   6.116  1.00  0.00     0.183 C 
BRANCH  21  22
HETATM   22  C   UNL     1      43.589 -12.449   6.694  1.00  0.00     0.047 A 
HETATM   23  N   UNL     1      42.567 -11.549   6.832  1.00  0.00    -0.280 N 
HETATM   24  N   UNL     1      42.915 -10.429   7.482  1.00  0.00    -0.178 NA
HETATM   25  H   UNL     1      41.605 -11.662   6.511  1.00  0.00     0.189 HD
HETATM   26  C   UNL     1      44.213 -10.598   7.771  1.00  0.00     0.064 A 
HETATM   27  C   UNL     1      44.682 -11.846   7.275  1.00  0.00     0.058 A 
BRANCH  26  28
HETATM   28  C   UNL     1      44.983  -9.569   8.585  1.00  0.00    -0.005 C 
HETATM   29  C   UNL     1      45.213 -10.031  10.041  1.00  0.00     0.021 C 
HETATM   30  C   UNL     1      44.217  -8.232   8.632  1.00  0.00     0.021 C 
HETATM   31  C   UNL     1      46.362  -9.330   7.935  1.00  0.00     0.021 C 
ENDBRANCH  26  28
ENDBRANCH  21  22
ENDBRANCH   1  21
TORSDOF 5
ENDMDL
MODEL 5
REMARK VINA RESULT:      -8.2      3.637      5.541
REMARK  5 active torsions:
REMARK  status: ('A' for Active; 'I' for Inactive)
REMARK    1  A    between atoms: C_2  and  C_3 
REMARK    2  A    between atoms: C_7  and  C_8 
REMARK    3  A    between atoms: C_8  and  N_9 
REMARK       I    between atoms: N_9  and  C_10 
REMARK       I    between atoms: C_10  and  N_11 
REMARK    4  A    between atoms: N_11  and  C_12 
REMARK    5  A    between atoms: N_18  and  C_19 
ROOT
HETATM    1  N   UNL     1      43.720 -10.031   7.980  1.00  0.00    -0.337 N 
HETATM    2  C   UNL     1      44.682 -10.991   8.040  1.00  0.00     0.321 C 
HETATM    3  N   UNL     1      44.814 -11.841   6.989  1.00  0.00    -0.309 N 
HETATM    4  O   UNL     1      45.467 -11.091   8.982  1.00  0.00    -0.247 OA
HETATM    5  H   UNL     1      43.509  -9.741   7.038  1.00  0.00     0.164 HD
HETATM    6  H   UNL     1      45.673 -12.373   7.082  1.00  0.00     0.170 HD
ENDROOT
BRANCH   3   7
HETATM    7  C   UNL     1      44.026 -12.131   5.860  1.00  0.00     0.037 A 
HETATM    8  C   UNL     1      43.021 -13.102   5.824  1.00  0.00     0.047 A 
HETATM    9  C   UNL     1      42.332 -13.265   4.631  1.00  0.00     0.050 A 
HETATM   10  C   UNL     1      42.621 -12.523   3.502  1.00  0.00     0.048 A 
HETATM   11  C   UNL     1      41.227 -14.161   4.296  1.00  0.00     0.262 A 
HETATM   12  C   UNL     1      41.707 -12.941   2.442  1.00  0.00     0.262 A 
HETATM   13  C   UNL     1      43.621 -11.577   3.495  1.00  0.00     0.020 A 
HETATM   14  O   UNL     1      41.680 -12.429   1.339  1.00  0.00    -0.267 OA
HETATM   15  N   UNL     1      40.936 -13.947   2.970  1.00  0.00    -0.275 N 
HETATM   16  C   UNL     1      44.330 -11.392   4.687  1.00  0.00     0.030 A 
HETATM   17  O   UNL     1      40.696 -14.899   5.106  1.00  0.00    -0.267 OA
BRANCH  15  18
HETATM   18  C   UNL     1      39.867 -14.581   2.264  1.00  0.00     0.096 A 
HETATM   19  C   UNL     1      40.107 -15.297   0.959  1.00  0.00     0.028 A 
HETATM   20  C   UNL     1      39.742 -16.080   2.184  1.00  0.00     0.028 A 
ENDBRANCH  15  18
ENDBRANCH   3   7
BRANCH   1  21
HETATM   21  C   UNL     1      43.695  -8.947   8.941  1.00  0.00     0.183 C 
BRANCH  21  22
HETATM   22  C   UNL     1      42.945  -9.306  10.167  1.00  0.00     0.047 A 
HETATM   23  N   UNL     1      43.526  -9.984  11.203  1.00  0.00    -0.280 N 
HETATM   24  N   UNL     1      42.733 -10.117  12.277  1.00  0.00    -0.178 NA
HETATM   25  H   UNL     1      44.472 -10.364  11.231  1.00  0.00     0.189 HD
HETATM   26  C   UNL     1      41.590  -9.513  11.925  1.00  0.00     0.064 A 
HETATM   27  C   UNL     1      41.672  -9.007  10.599  1.00  0.00     0.058 A 
BRANCH  26  28
HETATM   28  C   UNL     1      40.434  -9.374  12.906  1.00  0.00    -0.005 C 
HETATM   29  C   UNL     1      39.639 -10.690  13.059  1.00  0.00     0.021 C 
HETATM   30  C   UNL     1      39.452  -8.284  12.434  1.00  0.00     0.021 C 
HETATM   31  C   UNL     1      40.984  -8.983  14.294  1.00  0.00     0.021 C 
ENDBRANCH  26  28
ENDBRANCH  21  22
ENDBRANCH   1  21
TORSDOF 5
ENDMDL
MODEL 6
REMARK VINA RESULT:      -8.2      3.341      5.257
REMARK  5 active torsions:
REMARK  status: ('A' for Active; 'I' for Inactive)
REMARK    1  A    between atoms: C_2  and  C_3 
REMARK    2  A    between atoms: C_7  and  C_8 
REMARK    3  A    between atoms: C_8  and  N_9 
REMARK       I    between atoms: N_9  and  C_10 
REMARK       I    between atoms: C_10  and  N_11 
REMARK    4  A    between atoms: N_11  and  C_12 
REMARK    5  A    between atoms: N_18  and  C_19 
ROOT
HETATM    1  N   UNL     1      43.805 -10.269   7.798  1.00  0.00    -0.337 N 
HETATM    2  C   UNL     1      44.945 -11.008   7.726  1.00  0.00     0.321 C 
HETATM    3  N   UNL     1      44.955 -12.105   6.924  1.00  0.00    -0.309 N 
HETATM    4  O   UNL     1      45.979 -10.699   8.316  1.00  0.00    -0.247 OA
HETATM    5  H   UNL     1      43.252 -10.312   6.957  1.00  0.00     0.164 HD
HETATM    6  H   UNL     1      45.904 -12.447   6.821  1.00  0.00     0.170 HD
ENDROOT
BRANCH   3   7
HETATM    7  C   UNL     1      43.957 -12.838   6.256  1.00  0.00     0.037 A 
HETATM    8  C   UNL     1      43.403 -12.481   5.023  1.00  0.00     0.047 A 
HETATM    9  C   UNL     1      42.427 -13.312   4.496  1.00  0.00     0.050 A 
HETATM   10  C   UNL     1      41.986 -14.445   5.152  1.00  0.00     0.048 A 
HETATM   11  C   UNL     1      41.694 -13.224   3.234  1.00  0.00     0.262 A 
HETATM   12  C   UNL     1      40.972 -15.084   4.317  1.00  0.00     0.262 A 
HETATM   13  C   UNL     1      42.491 -14.813   6.379  1.00  0.00     0.020 A 
HETATM   14  O   UNL     1      40.434 -16.136   4.602  1.00  0.00    -0.267 OA
HETATM   15  N   UNL     1      40.817 -14.281   3.214  1.00  0.00    -0.275 N 
HETATM   16  C   UNL     1      43.480 -13.990   6.932  1.00  0.00     0.030 A 
HETATM   17  O   UNL     1      41.908 -12.366   2.396  1.00  0.00    -0.267 OA
BRANCH  15  18
HETATM   18  C   UNL     1      39.957 -14.597   2.117  1.00  0.00     0.096 A 
HETATM   19  C   UNL     1      40.512 -14.893   0.747  1.00  0.00     0.028 A 
HETATM   20  C   UNL     1      39.873 -15.988   1.544  1.00  0.00     0.028 A 
ENDBRANCH  15  18
ENDBRANCH   3   7
BRANCH   1  21
HETATM   21  C   UNL     1      43.808  -8.963   8.426  1.00  0.00     0.183 C 
BRANCH  21  22
HETATM   22  C   UNL     1      43.170  -8.985   9.762  1.00  0.00     0.047 A 
HETATM   23  N   UNL     1      42.861 -10.154  10.402  1.00  0.00    -0.280 N 
HETATM   24  N   UNL     1      42.400  -9.983  11.650  1.00  0.00    -0.178 NA
HETATM   25  H   UNL     1      42.963 -11.099  10.032  1.00  0.00     0.189 HD
HETATM   26  C   UNL     1      42.398  -8.655  11.828  1.00  0.00     0.064 A 
HETATM   27  C   UNL     1      42.855  -7.988  10.659  1.00  0.00     0.058 A 
BRANCH  26  28
HETATM   28  C   UNL     1      42.007  -8.036  13.162  1.00  0.00    -0.005 C 
HETATM   29  C   UNL     1      41.460  -9.086  14.154  1.00  0.00     0.021 C 
HETATM   30  C   UNL     1      40.916  -6.965  12.963  1.00  0.00     0.021 C 
HETATM   31  C   UNL     1      43.245  -7.374  13.802  1.00  0.00     0.021 C 
ENDBRANCH  26  28
ENDBRANCH  21  22
ENDBRANCH   1  21
TORSDOF 5
ENDMDL
MODEL 7
REMARK VINA RESULT:      -8.2      4.483     10.720
REMARK  5 active torsions:
REMARK  status: ('A' for Active; 'I' for Inactive)
REMARK    1  A    between atoms: C_2  and  C_3 
REMARK    2  A    between atoms: C_7  and  C_8 
REMARK    3  A    between atoms: C_8  and  N_9 
REMARK       I    between atoms: N_9  and  C_10 
REMARK       I    between atoms: C_10  and  N_11 
REMARK    4  A    between atoms: N_11  and  C_12 
REMARK    5  A    between atoms: N_18  and  C_19 
ROOT
HETATM    1  N   UNL     1      44.020 -10.787   7.587  1.00  0.00    -0.337 N 
HETATM    2  C   UNL     1      45.253 -10.641   8.142  1.00  0.00     0.321 C 
HETATM    3  N   UNL     1      45.336 -10.328   9.461  1.00  0.00    -0.309 N 
HETATM    4  O   UNL     1      46.294 -10.829   7.513  1.00  0.00    -0.247 OA
HETATM    5  H   UNL     1      43.323 -11.096   8.246  1.00  0.00     0.164 HD
HETATM    6  H   UNL     1      46.293 -10.433   9.780  1.00  0.00     0.170 HD
ENDROOT
BRANCH   3   7
HETATM    7  C   UNL     1      44.407  -9.889  10.422  1.00  0.00     0.037 A 
HETATM    8  C   UNL     1      43.960  -8.570  10.548  1.00  0.00     0.047 A 
HETATM    9  C   UNL     1      43.039  -8.300  11.548  1.00  0.00     0.050 A 
HETATM   10  C   UNL     1      42.579  -9.273  12.414  1.00  0.00     0.048 A 
HETATM   11  C   UNL     1      42.374  -7.047  11.904  1.00  0.00     0.262 A 
HETATM   12  C   UNL     1      41.623  -8.650  13.325  1.00  0.00     0.262 A 
HETATM   13  C   UNL     1      43.016 -10.577  12.335  1.00  0.00     0.020 A 
HETATM   14  O   UNL     1      41.003  -9.267  14.171  1.00  0.00    -0.267 OA
HETATM   15  N   UNL     1      41.582  -7.319  12.994  1.00  0.00    -0.275 N 
HETATM   16  C   UNL     1      43.946 -10.875  11.332  1.00  0.00     0.030 A 
HETATM   17  O   UNL     1      42.520  -6.013  11.279  1.00  0.00    -0.267 OA
BRANCH  15  18
HETATM   18  C   UNL     1      40.709  -6.373  13.614  1.00  0.00     0.096 A 
HETATM   19  C   UNL     1      40.903  -5.953  15.050  1.00  0.00     0.028 A 
HETATM   20  C   UNL     1      41.155  -4.972  13.945  1.00  0.00     0.028 A 
ENDBRANCH  15  18
ENDBRANCH   3   7
BRANCH   1  21
HETATM   21  C   UNL     1      43.865 -11.363   6.266  1.00  0.00     0.183 C 
BRANCH  21  22
HETATM   22  C   UNL     1      43.506 -12.799   6.323  1.00  0.00     0.047 A 
HETATM   23  N   UNL     1      43.284 -13.448   7.506  1.00  0.00    -0.280 N 
HETATM   24  N   UNL     1      42.853 -14.710   7.361  1.00  0.00    -0.178 NA
HETATM   25  H   UNL     1      43.398 -13.065   8.445  1.00  0.00     0.189 HD
HETATM   26  C   UNL     1      42.801 -14.895   6.035  1.00  0.00     0.064 A 
HETATM   27  C   UNL     1      43.223 -13.726   5.344  1.00  0.00     0.058 A 
BRANCH  26  28
HETATM   28  C   UNL     1      42.281 -16.194   5.437  1.00  0.00    -0.005 C 
HETATM   29  C   UNL     1      42.631 -16.328   3.938  1.00  0.00     0.021 C 
HETATM   30  C   UNL     1      40.747 -16.275   5.569  1.00  0.00     0.021 C 
HETATM   31  C   UNL     1      42.909 -17.390   6.183  1.00  0.00     0.021 C 
ENDBRANCH  26  28
ENDBRANCH  21  22
ENDBRANCH   1  21
TORSDOF 5
ENDMDL
MODEL 8
REMARK VINA RESULT:      -8.1      4.036      6.278
REMARK  5 active torsions:
REMARK  status: ('A' for Active; 'I' for Inactive)
REMARK    1  A    between atoms: C_2  and  C_3 
REMARK    2  A    between atoms: C_7  and  C_8 
REMARK    3  A    between atoms: C_8  and  N_9 
REMARK       I    between atoms: N_9  and  C_10 
REMARK       I    between atoms: C_10  and  N_11 
REMARK    4  A    between atoms: N_11  and  C_12 
REMARK    5  A    between atoms: N_18  and  C_19 
ROOT
HETATM    1  N   UNL     1      40.796 -11.909   3.008  1.00  0.00    -0.337 N 
HETATM    2  C   UNL     1      39.862 -12.307   3.914  1.00  0.00     0.321 C 
HETATM    3  N   UNL     1      39.958 -13.558   4.434  1.00  0.00    -0.309 N 
HETATM    4  O   UNL     1      38.966 -11.567   4.318  1.00  0.00    -0.247 OA
HETATM    5  H   UNL     1      41.688 -12.359   3.135  1.00  0.00     0.164 HD
HETATM    6  H   UNL     1      39.323 -13.654   5.219  1.00  0.00     0.170 HD
ENDROOT
BRANCH   3   7
HETATM    7  C   UNL     1      40.712 -14.699   4.105  1.00  0.00     0.037 A 
HETATM    8  C   UNL     1      41.534 -15.391   5.000  1.00  0.00     0.047 A 
HETATM    9  C   UNL     1      42.211 -16.501   4.519  1.00  0.00     0.050 A 
HETATM   10  C   UNL     1      42.112 -16.917   3.206  1.00  0.00     0.048 A 
HETATM   11  C   UNL     1      43.105 -17.431   5.207  1.00  0.00     0.262 A 
HETATM   12  C   UNL     1      42.940 -18.110   3.047  1.00  0.00     0.262 A 
HETATM   13  C   UNL     1      41.332 -16.246   2.291  1.00  0.00     0.020 A 
HETATM   14  O   UNL     1      43.014 -18.743   2.011  1.00  0.00    -0.267 OA
HETATM   15  N   UNL     1      43.535 -18.334   4.264  1.00  0.00    -0.275 N 
HETATM   16  C   UNL     1      40.636 -15.122   2.753  1.00  0.00     0.030 A 
HETATM   17  O   UNL     1      43.342 -17.371   6.400  1.00  0.00    -0.267 OA
BRANCH  15  18
HETATM   18  C   UNL     1      44.376 -19.455   4.542  1.00  0.00     0.096 A 
HETATM   19  C   UNL     1      43.978 -20.500   5.553  1.00  0.00     0.028 A 
HETATM   20  C   UNL     1      44.020 -20.849   4.097  1.00  0.00     0.028 A 
ENDBRANCH  15  18
ENDBRANCH   3   7
BRANCH   1  21
HETATM   21  C   UNL     1      40.898 -10.519   2.612  1.00  0.00     0.183 C 
BRANCH  21  22
HETATM   22  C   UNL     1      40.966 -10.361   1.141  1.00  0.00     0.047 A 
HETATM   23  N   UNL     1      41.981  -9.679   0.528  1.00  0.00    -0.280 N 
HETATM   24  N   UNL     1      41.945  -9.741  -0.811  1.00  0.00    -0.178 NA
HETATM   25  H   UNL     1      42.736  -9.166   0.984  1.00  0.00     0.189 HD
HETATM   26  C   UNL     1      40.861 -10.481  -1.083  1.00  0.00     0.064 A 
HETATM   27  C   UNL     1      40.205 -10.875   0.115  1.00  0.00     0.058 A 
BRANCH  26  28
HETATM   28  C   UNL     1      40.498 -10.858  -2.512  1.00  0.00    -0.005 C 
HETATM   29  C   UNL     1      41.210 -12.149  -2.974  1.00  0.00     0.021 C 
HETATM   30  C   UNL     1      40.894  -9.730  -3.486  1.00  0.00     0.021 C 
HETATM   31  C   UNL     1      38.976 -11.090  -2.610  1.00  0.00     0.021 C 
ENDBRANCH  26  28
ENDBRANCH  21  22
ENDBRANCH   1  21
TORSDOF 5
ENDMDL
MODEL 9
REMARK VINA RESULT:      -7.9      4.065     10.169
REMARK  5 active torsions:
REMARK  status: ('A' for Active; 'I' for Inactive)
REMARK    1  A    between atoms: C_2  and  C_3 
REMARK    2  A    between atoms: C_7  and  C_8 
REMARK    3  A    between atoms: C_8  and  N_9 
REMARK       I    between atoms: N_9  and  C_10 
REMARK       I    between atoms: C_10  and  N_11 
REMARK    4  A    between atoms: N_11  and  C_12 
REMARK    5  A    between atoms: N_18  and  C_19 
ROOT
HETATM    1  N   UNL     1      44.030 -10.740   6.424  1.00  0.00    -0.337 N 
HETATM    2  C   UNL     1      45.255 -10.884   6.997  1.00  0.00     0.321 C 
HETATM    3  N   UNL     1      45.432 -10.435   8.267  1.00  0.00    -0.309 N 
HETATM    4  O   UNL     1      46.192 -11.448   6.434  1.00  0.00    -0.247 OA
HETATM    5  H   UNL     1      43.277 -10.742   7.094  1.00  0.00     0.164 HD
HETATM    6  H   UNL     1      46.318 -10.770   8.630  1.00  0.00     0.170 HD
ENDROOT
BRANCH   3   7
HETATM    7  C   UNL     1      44.677  -9.622   9.131  1.00  0.00     0.037 A 
HETATM    8  C   UNL     1      44.055 -10.070  10.300  1.00  0.00     0.047 A 
HETATM    9  C   UNL     1      43.347  -9.140  11.045  1.00  0.00     0.050 A 
HETATM   10  C   UNL     1      43.229  -7.819  10.660  1.00  0.00     0.048 A 
HETATM   11  C   UNL     1      42.626  -9.295  12.308  1.00  0.00     0.262 A 
HETATM   12  C   UNL     1      42.433  -7.124  11.670  1.00  0.00     0.262 A 
HETATM   13  C   UNL     1      43.807  -7.347   9.503  1.00  0.00     0.020 A 
HETATM   14  O   UNL     1      42.202  -5.931  11.637  1.00  0.00    -0.267 OA
HETATM   15  N   UNL     1      42.072  -8.071  12.596  1.00  0.00    -0.275 N 
HETATM   16  C   UNL     1      44.529  -8.268   8.734  1.00  0.00     0.030 A 
HETATM   17  O   UNL     1      42.602 -10.335  12.940  1.00  0.00    -0.267 OA
BRANCH  15  18
HETATM   18  C   UNL     1      41.338  -7.776  13.786  1.00  0.00     0.096 A 
HETATM   19  C   UNL     1      41.744  -8.352  15.119  1.00  0.00     0.028 A 
HETATM   20  C   UNL     1      41.893  -6.883  14.866  1.00  0.00     0.028 A 
ENDBRANCH  15  18
ENDBRANCH   3   7
BRANCH   1  21
HETATM   21  C   UNL     1      43.707 -11.418   5.185  1.00  0.00     0.183 C 
BRANCH  21  22
HETATM   22  C   UNL     1      42.896 -12.636   5.410  1.00  0.00     0.047 A 
HETATM   23  N   UNL     1      41.803 -12.641   6.233  1.00  0.00    -0.280 N 
HETATM   24  N   UNL     1      41.122 -13.797   6.224  1.00  0.00    -0.178 NA
HETATM   25  H   UNL     1      41.470 -11.871   6.813  1.00  0.00     0.189 HD
HETATM   26  C   UNL     1      41.800 -14.578   5.372  1.00  0.00     0.064 A 
HETATM   27  C   UNL     1      42.934 -13.896   4.853  1.00  0.00     0.058 A 
BRANCH  26  28
HETATM   28  C   UNL     1      41.308 -15.974   5.015  1.00  0.00    -0.005 C 
HETATM   29  C   UNL     1      40.733 -16.040   3.583  1.00  0.00     0.021 C 
HETATM   30  C   UNL     1      40.198 -16.421   5.987  1.00  0.00     0.021 C 
HETATM   31  C   UNL     1      42.482 -16.970   5.106  1.00  0.00     0.021 C 
ENDBRANCH  26  28
ENDBRANCH  21  22
ENDBRANCH   1  21
TORSDOF 5
ENDMDL
MODEL 10
REMARK VINA RESULT:      -7.8      4.875      8.775
REMARK  5 active torsions:
REMARK  status: ('A' for Active; 'I' for Inactive)
REMARK    1  A    between atoms: C_2  and  C_3 
REMARK    2  A    between atoms: C_7  and  C_8 
REMARK    3  A    between atoms: C_8  and  N_9 
REMARK       I    between atoms: N_9  and  C_10 
REMARK       I    between atoms: C_10  and  N_11 
REMARK    4  A    between atoms: N_11  and  C_12 
REMARK    5  A    between atoms: N_18  and  C_19 
ROOT
HETATM    1  N   UNL     1      41.681 -14.905   0.672  1.00  0.00    -0.337 N 
HETATM    2  C   UNL     1      40.328 -15.039   0.622  1.00  0.00     0.321 C 
HETATM    3  N   UNL     1      39.630 -14.244  -0.231  1.00  0.00    -0.309 N 
HETATM    4  O   UNL     1      39.716 -15.881   1.277  1.00  0.00    -0.247 OA
HETATM    5  H   UNL     1      42.079 -14.587  -0.197  1.00  0.00     0.164 HD
HETATM    6  H   UNL     1      38.673 -14.573  -0.302  1.00  0.00     0.170 HD
ENDROOT
BRANCH   3   7
HETATM    7  C   UNL     1      39.949 -13.099  -0.983  1.00  0.00     0.037 A 
HETATM    8  C   UNL     1      40.700 -12.021  -0.505  1.00  0.00     0.047 A 
HETATM    9  C   UNL     1      40.930 -10.966  -1.375  1.00  0.00     0.050 A 
HETATM   10  C   UNL     1      40.430 -10.946  -2.663  1.00  0.00     0.048 A 
HETATM   11  C   UNL     1      41.690  -9.732  -1.181  1.00  0.00     0.262 A 
HETATM   12  C   UNL     1      40.866  -9.704  -3.296  1.00  0.00     0.262 A 
HETATM   13  C   UNL     1      39.666 -11.979  -3.158  1.00  0.00     0.020 A 
HETATM   14  O   UNL     1      40.628  -9.423  -4.456  1.00  0.00    -0.267 OA
HETATM   15  N   UNL     1      41.573  -9.011  -2.345  1.00  0.00    -0.275 N 
HETATM   16  C   UNL     1      39.422 -13.057  -2.299  1.00  0.00     0.030 A 
HETATM   17  O   UNL     1      42.313  -9.485  -0.165  1.00  0.00    -0.267 OA
BRANCH  15  18
HETATM   18  C   UNL     1      42.228  -7.766  -2.594  1.00  0.00     0.096 A 
HETATM   19  C   UNL     1      41.443  -6.492  -2.780  1.00  0.00     0.028 A 
HETATM   20  C   UNL     1      42.290  -6.675  -1.557  1.00  0.00     0.028 A 
ENDBRANCH  15  18
ENDBRANCH   3   7
BRANCH   1  21
HETATM   21  C   UNL     1      42.497 -15.884   1.361  1.00  0.00     0.183 C 
BRANCH  21  22
HETATM   22  C   UNL     1      42.808 -15.472   2.750  1.00  0.00     0.047 A 
HETATM   23  N   UNL     1      42.786 -14.162   3.143  1.00  0.00    -0.280 N 
HETATM   24  N   UNL     1      42.975 -13.987   4.459  1.00  0.00    -0.178 NA
HETATM   25  H   UNL     1      42.630 -13.347   2.549  1.00  0.00     0.189 HD
HETATM   26  C   UNL     1      43.136 -15.227   4.942  1.00  0.00     0.064 A 
HETATM   27  C   UNL     1      43.059 -16.190   3.898  1.00  0.00     0.058 A 
BRANCH  26  28
HETATM   28  C   UNL     1      43.305 -15.480   6.433  1.00  0.00    -0.005 C 
HETATM   29  C   UNL     1      44.537 -16.360   6.739  1.00  0.00     0.021 C 
HETATM   30  C   UNL     1      42.064 -16.194   7.004  1.00  0.00     0.021 C 
HETATM   31  C   UNL     1      43.486 -14.133   7.164  1.00  0.00     0.021 C 
ENDBRANCH  26  28
ENDBRANCH  21  22
ENDBRANCH   1  21
TORSDOF 5
ENDMDL
