MODEL 1
REMARK VINA RESULT:      -9.6      0.000      0.000
REMARK  7 active torsions:
REMARK  status: ('A' for Active; 'I' for Inactive)
REMARK    1  A    between atoms: O_2  and  C_3 
REMARK    2  A    between atoms: C_4  and  C_5 
REMARK    3  A    between atoms: N_10  and  C_12 
REMARK    4  A    between atoms: C_12  and  C_13 
REMARK       I    between atoms: C_13  and  N_14 
REMARK    5  A    between atoms: N_14  and  C_15 
REMARK    6  A    between atoms: C_15  and  C_16 
REMARK    7  A    between atoms: C_16  and  C_17 
ROOT
HETATM    1  C   UNL     1      41.979  -7.688   9.385  1.00  0.00     0.190 C 
HETATM    2  O   UNL     1      43.096  -7.540   8.486  1.00  0.00    -0.339 OA
HETATM    3  C   UNL     1      43.810  -8.670   8.235  1.00  0.00     0.077 A 
HETATM    4  C   UNL     1      43.264  -9.758   7.551  1.00  0.00     0.001 A 
HETATM    5  C   UNL     1      41.867  -9.716   7.019  1.00  0.00     0.276 C 
HETATM    6  N   UNL     1      40.796  -9.603   8.070  1.00  0.00    -0.056 N 
HETATM    7  H   UNL     1      40.994 -10.251   8.844  1.00  0.00     0.280 HD
HETATM    8  C   UNL     1      40.703  -8.209   8.678  1.00  0.00     0.273 C 
HETATM    9  C   UNL     1      45.148  -8.666   8.631  1.00  0.00     0.037 A 
HETATM   10  C   UNL     1      45.946  -9.780   8.395  1.00  0.00     0.003 A 
HETATM   11  C   UNL     1      45.411 -10.889   7.746  1.00  0.00     0.001 A 
HETATM   12  C   UNL     1      44.081 -10.878   7.320  1.00  0.00     0.012 A 
ENDROOT
BRANCH   6  13
HETATM   13  C   UNL     1      39.443 -10.066   7.515  1.00  0.00     0.337 C 
BRANCH  13  14
HETATM   14  C   UNL     1      39.581 -11.069   6.369  1.00  0.00     0.243 C 
HETATM   15  N   UNL     1      39.901 -12.341   6.765  1.00  0.00    -0.359 N 
HETATM   16  H   UNL     1      40.178 -12.522   7.730  1.00  0.00     0.162 HD
HETATM   17  O   UNL     1      39.422 -10.717   5.203  1.00  0.00    -0.272 OA
BRANCH  15  18
HETATM   18  C   UNL     1      40.339 -13.378   5.842  1.00  0.00     0.130 C 
BRANCH  18  19
HETATM   19  C   UNL     1      41.818 -13.216   5.482  1.00  0.00     0.098 C 
BRANCH  19  20
HETATM   20  C   UNL     1      42.481 -14.536   5.134  1.00  0.00     0.109 A 
HETATM   21  N   UNL     1      42.160 -15.183   4.053  1.00  0.00    -0.234 NA
HETATM   22  C   UNL     1      42.809 -16.410   3.807  1.00  0.00     0.074 A 
HETATM   23  C   UNL     1      43.737 -16.964   4.694  1.00  0.00     0.061 A 
HETATM   24  C   UNL     1      42.522 -17.100   2.626  1.00  0.00     0.032 A 
HETATM   25  C   UNL     1      44.031 -16.211   5.924  1.00  0.00     0.259 A 
HETATM   26  C   UNL     1      44.365 -18.183   4.424  1.00  0.00     0.019 A 
HETATM   27  O   UNL     1      44.810 -16.620   6.774  1.00  0.00    -0.267 OA
HETATM   28  N   UNL     1      43.370 -15.016   6.059  1.00  0.00    -0.311 N 
HETATM   29  H   UNL     1      43.587 -14.505   6.904  1.00  0.00     0.170 HD
HETATM   30  C   UNL     1      44.066 -18.861   3.243  1.00  0.00     0.001 A 
HETATM   31  C   UNL     1      43.146 -18.319   2.345  1.00  0.00     0.002 A 
ENDBRANCH  19  20
ENDBRANCH  18  19
ENDBRANCH  15  18
ENDBRANCH  13  14
ENDBRANCH   6  13
BRANCH   1  32
HETATM   32  C   UNL     1      42.277  -8.258  10.778  1.00  0.00     0.006 A 
HETATM   33  C   UNL     1      42.548  -7.387  11.858  1.00  0.00     0.077 A 
HETATM   34  C   UNL     1      42.800  -7.897  13.139  1.00  0.00     0.037 A 
HETATM   35  C   UNL     1      42.817  -9.272  13.361  1.00  0.00     0.003 A 
HETATM   36  C   UNL     1      42.578 -10.144  12.309  1.00  0.00     0.001 A 
HETATM   37  C   UNL     1      42.308  -9.643  11.033  1.00  0.00     0.012 A 
BRANCH  33  38
HETATM   38  O   UNL     1      42.504  -6.041  11.594  1.00  0.00    -0.355 OA
HETATM   39  C   UNL     1      41.477  -5.303  12.254  1.00  0.00     0.210 C 
ENDBRANCH  33  38
ENDBRANCH   1  32
TORSDOF 7
ENDMDL
MODEL 2
REMARK VINA RESULT:      -9.4      1.244      1.680
REMARK  7 active torsions:
REMARK  status: ('A' for Active; 'I' for Inactive)
REMARK    1  A    between atoms: O_2  and  C_3 
REMARK    2  A    between atoms: C_4  and  C_5 
REMARK    3  A    between atoms: N_10  and  C_12 
REMARK    4  A    between atoms: C_12  and  C_13 
REMARK       I    between atoms: C_13  and  N_14 
REMARK    5  A    between atoms: N_14  and  C_15 
REMARK    6  A    between atoms: C_15  and  C_16 
REMARK    7  A    between atoms: C_16  and  C_17 
ROOT
HETATM    1  C   UNL     1      41.809  -7.670   9.432  1.00  0.00     0.190 C 
HETATM    2  O   UNL     1      42.909  -7.488   8.519  1.00  0.00    -0.339 OA
HETATM    3  C   UNL     1      43.656  -8.595   8.261  1.00  0.00     0.077 A 
HETATM    4  C   UNL     1      43.136  -9.702   7.586  1.00  0.00     0.001 A 
HETATM    5  C   UNL     1      41.732  -9.705   7.071  1.00  0.00     0.276 C 
HETATM    6  N   UNL     1      40.671  -9.624   8.136  1.00  0.00    -0.056 N 
HETATM    7  H   UNL     1      40.900 -10.264   8.909  1.00  0.00     0.280 HD
HETATM    8  C   UNL     1      40.542  -8.233   8.743  1.00  0.00     0.273 C 
HETATM    9  C   UNL     1      44.997  -8.547   8.640  1.00  0.00     0.037 A 
HETATM   10  C   UNL     1      45.828  -9.635   8.396  1.00  0.00     0.003 A 
HETATM   11  C   UNL     1      45.321 -10.763   7.756  1.00  0.00     0.001 A 
HETATM   12  C   UNL     1      43.986 -10.795   7.347  1.00  0.00     0.012 A 
ENDROOT
BRANCH   6  13
HETATM   13  C   UNL     1      39.328 -10.132   7.598  1.00  0.00     0.337 C 
BRANCH  13  14
HETATM   14  C   UNL     1      39.482 -11.108   6.431  1.00  0.00     0.243 C 
HETATM   15  N   UNL     1      40.168 -12.253   6.737  1.00  0.00    -0.359 N 
HETATM   16  H   UNL     1      40.659 -12.333   7.628  1.00  0.00     0.162 HD
HETATM   17  O   UNL     1      39.024 -10.839   5.324  1.00  0.00    -0.272 OA
BRANCH  15  18
HETATM   18  C   UNL     1      40.659 -13.183   5.730  1.00  0.00     0.130 C 
BRANCH  18  19
HETATM   19  C   UNL     1      40.751 -14.607   6.284  1.00  0.00     0.098 C 
BRANCH  19  20
HETATM   20  C   UNL     1      41.394 -15.572   5.304  1.00  0.00     0.109 A 
HETATM   21  N   UNL     1      42.367 -16.352   5.671  1.00  0.00    -0.234 NA
HETATM   22  C   UNL     1      42.921 -17.209   4.700  1.00  0.00     0.074 A 
HETATM   23  C   UNL     1      42.497 -17.214   3.367  1.00  0.00     0.061 A 
HETATM   24  C   UNL     1      43.933 -18.095   5.080  1.00  0.00     0.032 A 
HETATM   25  C   UNL     1      41.422 -16.280   2.996  1.00  0.00     0.259 A 
HETATM   26  C   UNL     1      43.066 -18.075   2.425  1.00  0.00     0.019 A 
HETATM   27  O   UNL     1      40.995 -16.191   1.853  1.00  0.00    -0.267 OA
HETATM   28  N   UNL     1      40.929 -15.509   4.018  1.00  0.00    -0.311 N 
HETATM   29  H   UNL     1      40.186 -14.877   3.750  1.00  0.00     0.170 HD
HETATM   30  C   UNL     1      44.076 -18.952   2.819  1.00  0.00     0.001 A 
HETATM   31  C   UNL     1      44.508 -18.962   4.146  1.00  0.00     0.002 A 
ENDBRANCH  19  20
ENDBRANCH  18  19
ENDBRANCH  15  18
ENDBRANCH  13  14
ENDBRANCH   6  13
BRANCH   1  32
HETATM   32  C   UNL     1      42.142  -8.227  10.822  1.00  0.00     0.006 A 
HETATM   33  C   UNL     1      42.478  -7.348  11.877  1.00  0.00     0.077 A 
HETATM   34  C   UNL     1      42.763  -7.846  13.156  1.00  0.00     0.037 A 
HETATM   35  C   UNL     1      42.750  -9.217  13.400  1.00  0.00     0.003 A 
HETATM   36  C   UNL     1      42.446 -10.097  12.372  1.00  0.00     0.001 A 
HETATM   37  C   UNL     1      42.143  -9.608  11.099  1.00  0.00     0.012 A 
BRANCH  33  38
HETATM   38  O   UNL     1      42.463  -6.006  11.593  1.00  0.00    -0.355 OA
HETATM   39  C   UNL     1      42.240  -5.131  12.697  1.00  0.00     0.210 C 
ENDBRANCH  33  38
ENDBRANCH   1  32
TORSDOF 7
ENDMDL
MODEL 3
REMARK VINA RESULT:      -9.2      2.035      4.113
REMARK  7 active torsions:
REMARK  status: ('A' for Active; 'I' for Inactive)
REMARK    1  A    between atoms: O_2  and  C_3 
REMARK    2  A    between atoms: C_4  and  C_5 
REMARK    3  A    between atoms: N_10  and  C_12 
REMARK    4  A    between atoms: C_12  and  C_13 
REMARK       I    between atoms: C_13  and  N_14 
REMARK    5  A    between atoms: N_14  and  C_15 
REMARK    6  A    between atoms: C_15  and  C_16 
REMARK    7  A    between atoms: C_16  and  C_17 
ROOT
HETATM    1  C   UNL     1      43.308  -7.567   8.831  1.00  0.00     0.190 C 
HETATM    2  O   UNL     1      43.472  -7.200  10.215  1.00  0.00    -0.339 OA
HETATM    3  C   UNL     1      42.963  -8.073  11.126  1.00  0.00     0.077 A 
HETATM    4  C   UNL     1      43.481  -9.359  11.293  1.00  0.00     0.001 A 
HETATM    5  C   UNL     1      44.660  -9.828  10.501  1.00  0.00     0.276 C 
HETATM    6  N   UNL     1      44.427  -9.914   9.017  1.00  0.00    -0.056 N 
HETATM    7  H   UNL     1      43.517 -10.358   8.829  1.00  0.00     0.280 HD
HETATM    8  C   UNL     1      44.398  -8.551   8.337  1.00  0.00     0.273 C 
HETATM    9  C   UNL     1      41.938  -7.597  11.943  1.00  0.00     0.037 A 
HETATM   10  C   UNL     1      41.377  -8.426  12.908  1.00  0.00     0.003 A 
HETATM   11  C   UNL     1      41.854  -9.724  13.067  1.00  0.00     0.001 A 
HETATM   12  C   UNL     1      42.904 -10.187  12.270  1.00  0.00     0.012 A 
ENDROOT
BRANCH   6  13
HETATM   13  C   UNL     1      45.453 -10.848   8.363  1.00  0.00     0.337 C 
BRANCH  13  14
HETATM   14  C   UNL     1      44.877 -11.640   7.189  1.00  0.00     0.243 C 
HETATM   15  N   UNL     1      43.699 -12.285   7.463  1.00  0.00    -0.359 N 
HETATM   16  H   UNL     1      43.359 -12.342   8.424  1.00  0.00     0.162 HD
HETATM   17  O   UNL     1      45.462 -11.679   6.110  1.00  0.00    -0.272 OA
BRANCH  15  18
HETATM   18  C   UNL     1      43.122 -13.299   6.593  1.00  0.00     0.130 C 
BRANCH  18  19
HETATM   19  C   UNL     1      43.805 -14.655   6.787  1.00  0.00     0.098 C 
BRANCH  19  20
HETATM   20  C   UNL     1      43.588 -15.590   5.612  1.00  0.00     0.109 A 
HETATM   21  N   UNL     1      43.997 -16.822   5.650  1.00  0.00    -0.234 NA
HETATM   22  C   UNL     1      43.772 -17.624   4.513  1.00  0.00     0.074 A 
HETATM   23  C   UNL     1      43.175 -17.130   3.349  1.00  0.00     0.061 A 
HETATM   24  C   UNL     1      44.154 -18.968   4.548  1.00  0.00     0.032 A 
HETATM   25  C   UNL     1      42.770 -15.715   3.343  1.00  0.00     0.259 A 
HETATM   26  C   UNL     1      42.964 -17.948   2.235  1.00  0.00     0.019 A 
HETATM   27  O   UNL     1      42.260 -15.181   2.367  1.00  0.00    -0.267 OA
HETATM   28  N   UNL     1      43.006 -15.027   4.507  1.00  0.00    -0.311 N 
HETATM   29  H   UNL     1      42.717 -14.058   4.492  1.00  0.00     0.170 HD
HETATM   30  C   UNL     1      43.353 -19.285   2.284  1.00  0.00     0.001 A 
HETATM   31  C   UNL     1      43.946 -19.794   3.440  1.00  0.00     0.002 A 
ENDBRANCH  19  20
ENDBRANCH  18  19
ENDBRANCH  15  18
ENDBRANCH  13  14
ENDBRANCH   6  13
BRANCH   1  32
HETATM   32  C   UNL     1      41.877  -7.823   8.342  1.00  0.00     0.006 A 
HETATM   33  C   UNL     1      40.980  -6.742   8.178  1.00  0.00     0.077 A 
HETATM   34  C   UNL     1      39.676  -6.963   7.712  1.00  0.00     0.037 A 
HETATM   35  C   UNL     1      39.235  -8.254   7.432  1.00  0.00     0.003 A 
HETATM   36  C   UNL     1      40.092  -9.330   7.612  1.00  0.00     0.001 A 
HETATM   37  C   UNL     1      41.398  -9.116   8.058  1.00  0.00     0.012 A 
BRANCH  33  38
HETATM   38  O   UNL     1      41.465  -5.488   8.451  1.00  0.00    -0.355 OA
HETATM   39  C   UNL     1      41.039  -4.445   7.576  1.00  0.00     0.210 C 
ENDBRANCH  33  38
ENDBRANCH   1  32
TORSDOF 7
ENDMDL
MODEL 4
REMARK VINA RESULT:      -9.1      6.136      9.100
REMARK  7 active torsions:
REMARK  status: ('A' for Active; 'I' for Inactive)
REMARK    1  A    between atoms: O_2  and  C_3 
REMARK    2  A    between atoms: C_4  and  C_5 
REMARK    3  A    between atoms: N_10  and  C_12 
REMARK    4  A    between atoms: C_12  and  C_13 
REMARK       I    between atoms: C_13  and  N_14 
REMARK    5  A    between atoms: N_14  and  C_15 
REMARK    6  A    between atoms: C_15  and  C_16 
REMARK    7  A    between atoms: C_16  and  C_17 
ROOT
HETATM    1  C   UNL     1      38.527 -10.239   0.238  1.00  0.00     0.190 C 
HETATM    2  O   UNL     1      37.804 -11.297  -0.420  1.00  0.00    -0.339 OA
HETATM    3  C   UNL     1      38.562 -12.289  -0.961  1.00  0.00     0.077 A 
HETATM    4  C   UNL     1      39.326 -13.153  -0.173  1.00  0.00     0.001 A 
HETATM    5  C   UNL     1      39.313 -13.056   1.319  1.00  0.00     0.276 C 
HETATM    6  N   UNL     1      39.864 -11.769   1.871  1.00  0.00    -0.056 N 
HETATM    7  H   UNL     1      40.736 -11.522   1.382  1.00  0.00     0.280 HD
HETATM    8  C   UNL     1      38.914 -10.591   1.695  1.00  0.00     0.273 C 
HETATM    9  C   UNL     1      38.485 -12.452  -2.344  1.00  0.00     0.037 A 
HETATM   10  C   UNL     1      39.220 -13.455  -2.967  1.00  0.00     0.003 A 
HETATM   11  C   UNL     1      40.016 -14.305  -2.204  1.00  0.00     0.001 A 
HETATM   12  C   UNL     1      40.065 -14.161  -0.816  1.00  0.00     0.012 A 
ENDROOT
BRANCH   6  13
HETATM   13  C   UNL     1      40.279 -11.944   3.337  1.00  0.00     0.337 C 
BRANCH  13  14
HETATM   14  C   UNL     1      41.504 -12.844   3.507  1.00  0.00     0.243 C 
HETATM   15  N   UNL     1      42.376 -12.821   2.450  1.00  0.00    -0.359 N 
HETATM   16  H   UNL     1      42.111 -12.361   1.578  1.00  0.00     0.162 HD
HETATM   17  O   UNL     1      41.648 -13.524   4.518  1.00  0.00    -0.272 OA
BRANCH  15  18
HETATM   18  C   UNL     1      43.452 -13.786   2.280  1.00  0.00     0.130 C 
BRANCH  18  19
HETATM   19  C   UNL     1      42.933 -15.102   1.696  1.00  0.00     0.098 C 
BRANCH  19  20
HETATM   20  C   UNL     1      43.249 -16.296   2.579  1.00  0.00     0.109 A 
HETATM   21  N   UNL     1      43.232 -17.505   2.105  1.00  0.00    -0.234 NA
HETATM   22  C   UNL     1      43.522 -18.562   2.991  1.00  0.00     0.074 A 
HETATM   23  C   UNL     1      43.776 -18.356   4.351  1.00  0.00     0.061 A 
HETATM   24  C   UNL     1      43.561 -19.867   2.495  1.00  0.00     0.032 A 
HETATM   25  C   UNL     1      43.740 -16.971   4.845  1.00  0.00     0.259 A 
HETATM   26  C   UNL     1      44.060 -19.423   5.208  1.00  0.00     0.019 A 
HETATM   27  O   UNL     1      43.927 -16.687   6.021  1.00  0.00    -0.267 OA
HETATM   28  N   UNL     1      43.478 -16.012   3.899  1.00  0.00    -0.311 N 
HETATM   29  H   UNL     1      43.463 -15.063   4.251  1.00  0.00     0.170 HD
HETATM   30  C   UNL     1      44.094 -20.720   4.699  1.00  0.00     0.001 A 
HETATM   31  C   UNL     1      43.846 -20.941   3.343  1.00  0.00     0.002 A 
ENDBRANCH  19  20
ENDBRANCH  18  19
ENDBRANCH  15  18
ENDBRANCH  13  14
ENDBRANCH   6  13
BRANCH   1  32
HETATM   32  C   UNL     1      39.580  -9.493  -0.593  1.00  0.00     0.006 A 
HETATM   33  C   UNL     1      39.178  -8.641  -1.648  1.00  0.00     0.077 A 
HETATM   34  C   UNL     1      40.131  -7.939  -2.399  1.00  0.00     0.037 A 
HETATM   35  C   UNL     1      41.490  -8.094  -2.138  1.00  0.00     0.003 A 
HETATM   36  C   UNL     1      41.905  -8.944  -1.125  1.00  0.00     0.001 A 
HETATM   37  C   UNL     1      40.961  -9.634  -0.359  1.00  0.00     0.012 A 
BRANCH  33  38
HETATM   38  O   UNL     1      37.828  -8.509  -1.856  1.00  0.00    -0.355 OA
HETATM   39  C   UNL     1      37.344  -8.926  -3.132  1.00  0.00     0.210 C 
ENDBRANCH  33  38
ENDBRANCH   1  32
TORSDOF 7
ENDMDL
MODEL 5
REMARK VINA RESULT:      -9.1      2.777      9.838
REMARK  7 active torsions:
REMARK  status: ('A' for Active; 'I' for Inactive)
REMARK    1  A    between atoms: O_2  and  C_3 
REMARK    2  A    between atoms: C_4  and  C_5 
REMARK    3  A    between atoms: N_10  and  C_12 
REMARK    4  A    between atoms: C_12  and  C_13 
REMARK       I    between atoms: C_13  and  N_14 
REMARK    5  A    between atoms: N_14  and  C_15 
REMARK    6  A    between atoms: C_15  and  C_16 
REMARK    7  A    between atoms: C_16  and  C_17 
ROOT
HETATM    1  C   UNL     1      41.307 -12.883   4.859  1.00  0.00     0.190 C 
HETATM    2  O   UNL     1      40.953 -13.683   6.003  1.00  0.00    -0.339 OA
HETATM    3  C   UNL     1      41.787 -14.720   6.285  1.00  0.00     0.077 A 
HETATM    4  C   UNL     1      43.107 -14.521   6.696  1.00  0.00     0.001 A 
HETATM    5  C   UNL     1      43.658 -13.144   6.891  1.00  0.00     0.276 C 
HETATM    6  N   UNL     1      43.728 -12.312   5.639  1.00  0.00    -0.056 N 
HETATM    7  H   UNL     1      44.106 -12.874   4.864  1.00  0.00     0.280 HD
HETATM    8  C   UNL     1      42.366 -11.801   5.186  1.00  0.00     0.273 C 
HETATM    9  C   UNL     1      41.240 -16.001   6.214  1.00  0.00     0.037 A 
HETATM   10  C   UNL     1      42.028 -17.110   6.503  1.00  0.00     0.003 A 
HETATM   11  C   UNL     1      43.357 -16.935   6.880  1.00  0.00     0.001 A 
HETATM   12  C   UNL     1      43.892 -15.650   6.984  1.00  0.00     0.012 A 
ENDROOT
BRANCH   6  13
HETATM   13  C   UNL     1      44.731 -11.165   5.809  1.00  0.00     0.337 C 
BRANCH  13  14
HETATM   14  C   UNL     1      44.944 -10.770   7.271  1.00  0.00     0.243 C 
HETATM   15  N   UNL     1      43.856 -10.189   7.866  1.00  0.00    -0.359 N 
HETATM   16  H   UNL     1      43.052  -9.911   7.302  1.00  0.00     0.162 HD
HETATM   17  O   UNL     1      46.024 -10.963   7.823  1.00  0.00    -0.272 OA
BRANCH  15  18
HETATM   18  C   UNL     1      43.917  -9.501   9.147  1.00  0.00     0.130 C 
BRANCH  18  19
HETATM   19  C   UNL     1      43.783 -10.481  10.314  1.00  0.00     0.098 C 
BRANCH  19  20
HETATM   20  C   UNL     1      43.064  -9.874  11.505  1.00  0.00     0.109 A 
HETATM   21  N   UNL     1      43.580  -8.882  12.166  1.00  0.00    -0.234 NA
HETATM   22  C   UNL     1      42.858  -8.383  13.269  1.00  0.00     0.074 A 
HETATM   23  C   UNL     1      41.649  -8.942  13.694  1.00  0.00     0.061 A 
HETATM   24  C   UNL     1      43.365  -7.282  13.965  1.00  0.00     0.032 A 
HETATM   25  C   UNL     1      41.131 -10.092  12.936  1.00  0.00     0.259 A 
HETATM   26  C   UNL     1      40.954  -8.427  14.792  1.00  0.00     0.019 A 
HETATM   27  O   UNL     1      40.094 -10.666  13.240  1.00  0.00    -0.267 OA
HETATM   28  N   UNL     1      41.892 -10.485  11.863  1.00  0.00    -0.311 N 
HETATM   29  H   UNL     1      41.521 -11.271  11.347  1.00  0.00     0.170 HD
HETATM   30  C   UNL     1      41.474  -7.330  15.478  1.00  0.00     0.001 A 
HETATM   31  C   UNL     1      42.678  -6.758  15.064  1.00  0.00     0.002 A 
ENDBRANCH  19  20
ENDBRANCH  18  19
ENDBRANCH  15  18
ENDBRANCH  13  14
ENDBRANCH   6  13
BRANCH   1  32
HETATM   32  C   UNL     1      41.460 -13.613   3.518  1.00  0.00     0.006 A 
HETATM   33  C   UNL     1      40.345 -13.769   2.664  1.00  0.00     0.077 A 
HETATM   34  C   UNL     1      40.479 -14.416   1.427  1.00  0.00     0.037 A 
HETATM   35  C   UNL     1      41.708 -14.942   1.035  1.00  0.00     0.003 A 
HETATM   36  C   UNL     1      42.808 -14.821   1.870  1.00  0.00     0.001 A 
HETATM   37  C   UNL     1      42.687 -14.162   3.096  1.00  0.00     0.012 A 
BRANCH  33  38
HETATM   38  O   UNL     1      39.160 -13.221   3.086  1.00  0.00    -0.355 OA
HETATM   39  C   UNL     1      38.640 -12.156   2.292  1.00  0.00     0.210 C 
ENDBRANCH  33  38
ENDBRANCH   1  32
TORSDOF 7
ENDMDL
MODEL 6
REMARK VINA RESULT:      -8.9      5.432      9.003
REMARK  7 active torsions:
REMARK  status: ('A' for Active; 'I' for Inactive)
REMARK    1  A    between atoms: O_2  and  C_3 
REMARK    2  A    between atoms: C_4  and  C_5 
REMARK    3  A    between atoms: N_10  and  C_12 
REMARK    4  A    between atoms: C_12  and  C_13 
REMARK       I    between atoms: C_13  and  N_14 
REMARK    5  A    between atoms: N_14  and  C_15 
REMARK    6  A    between atoms: C_15  and  C_16 
REMARK    7  A    between atoms: C_16  and  C_17 
ROOT
HETATM    1  C   UNL     1      40.962 -14.811   5.252  1.00  0.00     0.190 C 
HETATM    2  O   UNL     1      41.319 -13.761   6.172  1.00  0.00    -0.339 OA
HETATM    3  C   UNL     1      42.400 -13.010   5.827  1.00  0.00     0.077 A 
HETATM    4  C   UNL     1      42.399 -12.178   4.706  1.00  0.00     0.001 A 
HETATM    5  C   UNL     1      41.183 -12.036   3.848  1.00  0.00     0.276 C 
HETATM    6  N   UNL     1      40.761 -13.295   3.141  1.00  0.00    -0.056 N 
HETATM    7  H   UNL     1      41.583 -13.761   2.733  1.00  0.00     0.280 HD
HETATM    8  C   UNL     1      40.099 -14.307   4.069  1.00  0.00     0.273 C 
HETATM    9  C   UNL     1      43.494 -13.056   6.691  1.00  0.00     0.037 A 
HETATM   10  C   UNL     1      44.631 -12.304   6.413  1.00  0.00     0.003 A 
HETATM   11  C   UNL     1      44.664 -11.494   5.280  1.00  0.00     0.001 A 
HETATM   12  C   UNL     1      43.554 -11.424   4.436  1.00  0.00     0.012 A 
ENDROOT
BRANCH   6  13
HETATM   13  C   UNL     1      39.868 -12.966   1.939  1.00  0.00     0.337 C 
BRANCH  13  14
HETATM   14  C   UNL     1      40.175 -13.828   0.713  1.00  0.00     0.243 C 
HETATM   15  N   UNL     1      39.304 -13.660  -0.331  1.00  0.00    -0.359 N 
HETATM   16  H   UNL     1      38.446 -13.124  -0.200  1.00  0.00     0.162 HD
HETATM   17  O   UNL     1      41.128 -14.603   0.713  1.00  0.00    -0.272 OA
BRANCH  15  18
HETATM   18  C   UNL     1      39.246 -14.558  -1.475  1.00  0.00     0.130 C 
BRANCH  18  19
HETATM   19  C   UNL     1      39.998 -13.980  -2.677  1.00  0.00     0.098 C 
BRANCH  19  20
HETATM   20  C   UNL     1      40.062 -12.464  -2.650  1.00  0.00     0.109 A 
HETATM   21  N   UNL     1      41.019 -11.844  -2.027  1.00  0.00    -0.234 NA
HETATM   22  C   UNL     1      41.001 -10.435  -2.035  1.00  0.00     0.074 A 
HETATM   23  C   UNL     1      39.979  -9.697  -2.641  1.00  0.00     0.061 A 
HETATM   24  C   UNL     1      42.046  -9.743  -1.418  1.00  0.00     0.032 A 
HETATM   25  C   UNL     1      38.896 -10.450  -3.295  1.00  0.00     0.259 A 
HETATM   26  C   UNL     1      39.986  -8.299  -2.633  1.00  0.00     0.019 A 
HETATM   27  O   UNL     1      37.946  -9.900  -3.834  1.00  0.00    -0.267 OA
HETATM   28  N   UNL     1      39.020 -11.816  -3.257  1.00  0.00    -0.311 N 
HETATM   29  H   UNL     1      38.273 -12.321  -3.717  1.00  0.00     0.170 HD
HETATM   30  C   UNL     1      41.035  -7.624  -2.011  1.00  0.00     0.001 A 
HETATM   31  C   UNL     1      42.064  -8.345  -1.405  1.00  0.00     0.002 A 
ENDBRANCH  19  20
ENDBRANCH  18  19
ENDBRANCH  15  18
ENDBRANCH  13  14
ENDBRANCH   6  13
BRANCH   1  32
HETATM   32  C   UNL     1      42.045 -15.847   4.922  1.00  0.00     0.006 A 
HETATM   33  C   UNL     1      42.635 -16.609   5.956  1.00  0.00     0.077 A 
HETATM   34  C   UNL     1      43.610 -17.573   5.663  1.00  0.00     0.037 A 
HETATM   35  C   UNL     1      44.035 -17.773   4.351  1.00  0.00     0.003 A 
HETATM   36  C   UNL     1      43.485 -17.017   3.326  1.00  0.00     0.001 A 
HETATM   37  C   UNL     1      42.500 -16.067   3.608  1.00  0.00     0.012 A 
BRANCH  33  38
HETATM   38  O   UNL     1      42.174 -16.389   7.229  1.00  0.00    -0.355 OA
HETATM   39  C   UNL     1      43.156 -16.037   8.203  1.00  0.00     0.210 C 
ENDBRANCH  33  38
ENDBRANCH   1  32
TORSDOF 7
ENDMDL
MODEL 7
REMARK VINA RESULT:      -8.8      2.742      9.102
REMARK  7 active torsions:
REMARK  status: ('A' for Active; 'I' for Inactive)
REMARK    1  A    between atoms: O_2  and  C_3 
REMARK    2  A    between atoms: C_4  and  C_5 
REMARK    3  A    between atoms: N_10  and  C_12 
REMARK    4  A    between atoms: C_12  and  C_13 
REMARK       I    between atoms: C_13  and  N_14 
REMARK    5  A    between atoms: N_14  and  C_15 
REMARK    6  A    between atoms: C_15  and  C_16 
REMARK    7  A    between atoms: C_16  and  C_17 
ROOT
HETATM    1  C   UNL     1      43.079 -12.982   4.348  1.00  0.00     0.190 C 
HETATM    2  O   UNL     1      43.293 -13.267   2.951  1.00  0.00    -0.339 OA
HETATM    3  C   UNL     1      42.179 -13.289   2.171  1.00  0.00     0.077 A 
HETATM    4  C   UNL     1      41.417 -12.143   1.932  1.00  0.00     0.001 A 
HETATM    5  C   UNL     1      41.819 -10.816   2.492  1.00  0.00     0.276 C 
HETATM    6  N   UNL     1      41.804 -10.736   3.994  1.00  0.00    -0.056 N 
HETATM    7  H   UNL     1      40.946 -11.170   4.361  1.00  0.00     0.280 HD
HETATM    8  C   UNL     1      42.975 -11.465   4.641  1.00  0.00     0.273 C 
HETATM    9  C   UNL     1      41.868 -14.502   1.557  1.00  0.00     0.037 A 
HETATM   10  C   UNL     1      40.752 -14.598   0.733  1.00  0.00     0.003 A 
HETATM   11  C   UNL     1      39.959 -13.476   0.510  1.00  0.00     0.001 A 
HETATM   12  C   UNL     1      40.291 -12.254   1.099  1.00  0.00     0.012 A 
ENDROOT
BRANCH   6  13
HETATM   13  C   UNL     1      41.726  -9.275   4.456  1.00  0.00     0.337 C 
BRANCH  13  14
HETATM   14  C   UNL     1      41.421  -9.137   5.948  1.00  0.00     0.243 C 
HETATM   15  N   UNL     1      40.086  -9.141   6.258  1.00  0.00    -0.359 N 
HETATM   16  H   UNL     1      39.389  -9.076   5.515  1.00  0.00     0.162 HD
HETATM   17  O   UNL     1      42.329  -9.020   6.767  1.00  0.00    -0.272 OA
BRANCH  15  18
HETATM   18  C   UNL     1      39.567  -8.757   7.562  1.00  0.00     0.130 C 
BRANCH  18  19
HETATM   19  C   UNL     1      39.383  -9.975   8.470  1.00  0.00     0.098 C 
BRANCH  19  20
HETATM   20  C   UNL     1      39.935  -9.749   9.866  1.00  0.00     0.109 A 
HETATM   21  N   UNL     1      41.027  -9.070  10.054  1.00  0.00    -0.234 NA
HETATM   22  C   UNL     1      41.484  -8.916  11.378  1.00  0.00     0.074 A 
HETATM   23  C   UNL     1      40.837  -9.501  12.472  1.00  0.00     0.061 A 
HETATM   24  C   UNL     1      42.625  -8.146  11.613  1.00  0.00     0.032 A 
HETATM   25  C   UNL     1      39.629 -10.297  12.198  1.00  0.00     0.259 A 
HETATM   26  C   UNL     1      41.312  -9.332  13.775  1.00  0.00     0.019 A 
HETATM   27  O   UNL     1      39.004 -10.867  13.082  1.00  0.00    -0.267 OA
HETATM   28  N   UNL     1      39.250 -10.363  10.881  1.00  0.00    -0.311 N 
HETATM   29  H   UNL     1      38.415 -10.906  10.708  1.00  0.00     0.170 HD
HETATM   30  C   UNL     1      42.454  -8.563  13.993  1.00  0.00     0.001 A 
HETATM   31  C   UNL     1      43.109  -7.969  12.913  1.00  0.00     0.002 A 
ENDBRANCH  19  20
ENDBRANCH  18  19
ENDBRANCH  15  18
ENDBRANCH  13  14
ENDBRANCH   6  13
BRANCH   1  32
HETATM   32  C   UNL     1      42.111 -13.898   5.106  1.00  0.00     0.006 A 
HETATM   33  C   UNL     1      42.404 -15.273   5.253  1.00  0.00     0.077 A 
HETATM   34  C   UNL     1      41.536 -16.115   5.963  1.00  0.00     0.037 A 
HETATM   35  C   UNL     1      40.355 -15.615   6.509  1.00  0.00     0.003 A 
HETATM   36  C   UNL     1      40.038 -14.274   6.353  1.00  0.00     0.001 A 
HETATM   37  C   UNL     1      40.907 -13.425   5.663  1.00  0.00     0.012 A 
BRANCH  33  38
HETATM   38  O   UNL     1      43.585 -15.716   4.713  1.00  0.00    -0.355 OA
HETATM   39  C   UNL     1      43.512 -16.905   3.929  1.00  0.00     0.210 C 
ENDBRANCH  33  38
ENDBRANCH   1  32
TORSDOF 7
ENDMDL
MODEL 8
REMARK VINA RESULT:      -8.8      4.185      8.858
REMARK  7 active torsions:
REMARK  status: ('A' for Active; 'I' for Inactive)
REMARK    1  A    between atoms: O_2  and  C_3 
REMARK    2  A    between atoms: C_4  and  C_5 
REMARK    3  A    between atoms: N_10  and  C_12 
REMARK    4  A    between atoms: C_12  and  C_13 
REMARK       I    between atoms: C_13  and  N_14 
REMARK    5  A    between atoms: N_14  and  C_15 
REMARK    6  A    between atoms: C_15  and  C_16 
REMARK    7  A    between atoms: C_16  and  C_17 
ROOT
HETATM    1  C   UNL     1      39.311 -12.609   0.569  1.00  0.00     0.190 C 
HETATM    2  O   UNL     1      39.630 -13.758   1.377  1.00  0.00    -0.339 OA
HETATM    3  C   UNL     1      40.947 -13.938   1.664  1.00  0.00     0.077 A 
HETATM    4  C   UNL     1      41.662 -13.042   2.462  1.00  0.00     0.001 A 
HETATM    5  C   UNL     1      40.996 -11.856   3.083  1.00  0.00     0.276 C 
HETATM    6  N   UNL     1      40.468 -10.845   2.100  1.00  0.00    -0.056 N 
HETATM    7  H   UNL     1      41.167 -10.672   1.365  1.00  0.00     0.280 HD
HETATM    8  C   UNL     1      39.197 -11.305   1.396  1.00  0.00     0.273 C 
HETATM    9  C   UNL     1      41.540 -15.103   1.180  1.00  0.00     0.037 A 
HETATM   10  C   UNL     1      42.881 -15.363   1.445  1.00  0.00     0.003 A 
HETATM   11  C   UNL     1      43.621 -14.465   2.209  1.00  0.00     0.001 A 
HETATM   12  C   UNL     1      43.016 -13.315   2.721  1.00  0.00     0.012 A 
ENDROOT
BRANCH   6  13
HETATM   13  C   UNL     1      40.275  -9.483   2.778  1.00  0.00     0.337 C 
BRANCH  13  14
HETATM   14  C   UNL     1      39.608  -9.589   4.150  1.00  0.00     0.243 C 
HETATM   15  N   UNL     1      40.474  -9.821   5.186  1.00  0.00    -0.359 N 
HETATM   16  H   UNL     1      41.447 -10.063   4.994  1.00  0.00     0.162 HD
HETATM   17  O   UNL     1      38.390  -9.481   4.266  1.00  0.00    -0.272 OA
BRANCH  15  18
HETATM   18  C   UNL     1      40.040 -10.220   6.516  1.00  0.00     0.130 C 
BRANCH  18  19
HETATM   19  C   UNL     1      39.496 -11.651   6.521  1.00  0.00     0.098 C 
BRANCH  19  20
HETATM   20  C   UNL     1      40.579 -12.687   6.285  1.00  0.00     0.109 A 
HETATM   21  N   UNL     1      40.294 -13.857   5.797  1.00  0.00    -0.234 NA
HETATM   22  C   UNL     1      41.354 -14.769   5.621  1.00  0.00     0.074 A 
HETATM   23  C   UNL     1      42.670 -14.478   5.991  1.00  0.00     0.061 A 
HETATM   24  C   UNL     1      41.083 -16.015   5.048  1.00  0.00     0.032 A 
HETATM   25  C   UNL     1      42.930 -13.154   6.580  1.00  0.00     0.259 A 
HETATM   26  C   UNL     1      43.702 -15.402   5.805  1.00  0.00     0.019 A 
HETATM   27  O   UNL     1      44.042 -12.810   6.957  1.00  0.00    -0.267 OA
HETATM   28  N   UNL     1      41.840 -12.328   6.683  1.00  0.00    -0.311 N 
HETATM   29  H   UNL     1      42.034 -11.419   7.082  1.00  0.00     0.170 HD
HETATM   30  C   UNL     1      43.415 -16.642   5.235  1.00  0.00     0.001 A 
HETATM   31  C   UNL     1      42.107 -16.947   4.857  1.00  0.00     0.002 A 
ENDBRANCH  19  20
ENDBRANCH  18  19
ENDBRANCH  15  18
ENDBRANCH  13  14
ENDBRANCH   6  13
BRANCH   1  32
HETATM   32  C   UNL     1      40.007 -12.501  -0.794  1.00  0.00     0.006 A 
HETATM   33  C   UNL     1      39.798 -13.495  -1.778  1.00  0.00     0.077 A 
HETATM   34  C   UNL     1      40.412 -13.394  -3.034  1.00  0.00     0.037 A 
HETATM   35  C   UNL     1      41.263 -12.329  -3.322  1.00  0.00     0.003 A 
HETATM   36  C   UNL     1      41.501 -11.358  -2.360  1.00  0.00     0.001 A 
HETATM   37  C   UNL     1      40.878 -11.441  -1.113  1.00  0.00     0.012 A 
BRANCH  33  38
HETATM   38  O   UNL     1      38.939 -14.515  -1.455  1.00  0.00    -0.355 OA
HETATM   39  C   UNL     1      38.575 -15.392  -2.519  1.00  0.00     0.210 C 
ENDBRANCH  33  38
ENDBRANCH   1  32
TORSDOF 7
ENDMDL
MODEL 9
REMARK VINA RESULT:      -8.8      3.538      9.678
REMARK  7 active torsions:
REMARK  status: ('A' for Active; 'I' for Inactive)
REMARK    1  A    between atoms: O_2  and  C_3 
REMARK    2  A    between atoms: C_4  and  C_5 
REMARK    3  A    between atoms: N_10  and  C_12 
REMARK    4  A    between atoms: C_12  and  C_13 
REMARK       I    between atoms: C_13  and  N_14 
REMARK    5  A    between atoms: N_14  and  C_15 
REMARK    6  A    between atoms: C_15  and  C_16 
REMARK    7  A    between atoms: C_16  and  C_17 
ROOT
HETATM    1  C   UNL     1      39.509 -12.496   2.731  1.00  0.00     0.190 C 
HETATM    2  O   UNL     1      39.566 -13.810   3.319  1.00  0.00    -0.339 OA
HETATM    3  C   UNL     1      40.613 -14.589   2.935  1.00  0.00     0.077 A 
HETATM    4  C   UNL     1      41.933 -14.269   3.256  1.00  0.00     0.001 A 
HETATM    5  C   UNL     1      42.261 -13.067   4.083  1.00  0.00     0.276 C 
HETATM    6  N   UNL     1      41.902 -11.750   3.448  1.00  0.00    -0.056 N 
HETATM    7  H   UNL     1      42.192 -11.745   2.461  1.00  0.00     0.280 HD
HETATM    8  C   UNL     1      40.404 -11.468   3.466  1.00  0.00     0.273 C 
HETATM    9  C   UNL     1      40.300 -15.770   2.262  1.00  0.00     0.037 A 
HETATM   10  C   UNL     1      41.316 -16.625   1.851  1.00  0.00     0.003 A 
HETATM   11  C   UNL     1      42.643 -16.307   2.129  1.00  0.00     0.001 A 
HETATM   12  C   UNL     1      42.951 -15.141   2.833  1.00  0.00     0.012 A 
ENDROOT
BRANCH   6  13
HETATM   13  C   UNL     1      42.698 -10.607   4.090  1.00  0.00     0.337 C 
BRANCH  13  14
HETATM   14  C   UNL     1      43.225 -10.955   5.482  1.00  0.00     0.243 C 
HETATM   15  N   UNL     1      44.548 -11.308   5.516  1.00  0.00    -0.359 N 
HETATM   16  H   UNL     1      45.056 -11.473   4.646  1.00  0.00     0.162 HD
HETATM   17  O   UNL     1      42.484 -10.921   6.461  1.00  0.00    -0.272 OA
BRANCH  15  18
HETATM   18  C   UNL     1      45.181 -11.928   6.671  1.00  0.00     0.130 C 
BRANCH  18  19
HETATM   19  C   UNL     1      46.038 -10.923   7.445  1.00  0.00     0.098 C 
BRANCH  19  20
HETATM   20  C   UNL     1      45.250 -10.190   8.515  1.00  0.00     0.109 A 
HETATM   21  N   UNL     1      44.787 -10.816   9.555  1.00  0.00    -0.234 NA
HETATM   22  C   UNL     1      44.053 -10.068  10.498  1.00  0.00     0.074 A 
HETATM   23  C   UNL     1      43.773  -8.708  10.328  1.00  0.00     0.061 A 
HETATM   24  C   UNL     1      43.589 -10.706  11.651  1.00  0.00     0.032 A 
HETATM   25  C   UNL     1      44.284  -8.058   9.111  1.00  0.00     0.259 A 
HETATM   26  C   UNL     1      43.042  -7.991  11.279  1.00  0.00     0.019 A 
HETATM   27  O   UNL     1      44.075  -6.879   8.858  1.00  0.00    -0.267 OA
HETATM   28  N   UNL     1      45.010  -8.864   8.270  1.00  0.00    -0.311 N 
HETATM   29  H   UNL     1      45.362  -8.402   7.441  1.00  0.00     0.170 HD
HETATM   30  C   UNL     1      42.584  -8.642  12.424  1.00  0.00     0.001 A 
HETATM   31  C   UNL     1      42.858  -9.998  12.609  1.00  0.00     0.002 A 
ENDBRANCH  19  20
ENDBRANCH  18  19
ENDBRANCH  15  18
ENDBRANCH  13  14
ENDBRANCH   6  13
BRANCH   1  32
HETATM   32  C   UNL     1      39.488 -12.419   1.199  1.00  0.00     0.006 A 
HETATM   33  C   UNL     1      38.352 -11.909   0.530  1.00  0.00     0.077 A 
HETATM   34  C   UNL     1      38.331 -11.815  -0.869  1.00  0.00     0.037 A 
HETATM   35  C   UNL     1      39.418 -12.250  -1.623  1.00  0.00     0.003 A 
HETATM   36  C   UNL     1      40.532 -12.777  -0.986  1.00  0.00     0.001 A 
HETATM   37  C   UNL     1      40.568 -12.857   0.408  1.00  0.00     0.012 A 
BRANCH  33  38
HETATM   38  O   UNL     1      37.312 -11.478   1.315  1.00  0.00    -0.355 OA
HETATM   39  C   UNL     1      36.539 -10.397   0.798  1.00  0.00     0.210 C 
ENDBRANCH  33  38
ENDBRANCH   1  32
TORSDOF 7
ENDMDL
MODEL 10
REMARK VINA RESULT:      -8.6      3.644     10.214
REMARK  7 active torsions:
REMARK  status: ('A' for Active; 'I' for Inactive)
REMARK    1  A    between atoms: O_2  and  C_3 
REMARK    2  A    between atoms: C_4  and  C_5 
REMARK    3  A    between atoms: N_10  and  C_12 
REMARK    4  A    between atoms: C_12  and  C_13 
REMARK       I    between atoms: C_13  and  N_14 
REMARK    5  A    between atoms: N_14  and  C_15 
REMARK    6  A    between atoms: C_15  and  C_16 
REMARK    7  A    between atoms: C_16  and  C_17 
ROOT
HETATM    1  C   UNL     1      39.210 -12.509   2.287  1.00  0.00     0.190 C 
HETATM    2  O   UNL     1      39.415 -13.936   2.284  1.00  0.00    -0.339 OA
HETATM    3  C   UNL     1      40.699 -14.353   2.450  1.00  0.00     0.077 A 
HETATM    4  C   UNL     1      41.399 -14.146   3.640  1.00  0.00     0.001 A 
HETATM    5  C   UNL     1      40.751 -13.488   4.816  1.00  0.00     0.276 C 
HETATM    6  N   UNL     1      40.343 -12.057   4.591  1.00  0.00    -0.056 N 
HETATM    7  H   UNL     1      41.100 -11.547   4.115  1.00  0.00     0.280 HD
HETATM    8  C   UNL     1      39.104 -11.921   3.716  1.00  0.00     0.273 C 
HETATM    9  C   UNL     1      41.266 -15.067   1.394  1.00  0.00     0.037 A 
HETATM   10  C   UNL     1      42.570 -15.539   1.496  1.00  0.00     0.003 A 
HETATM   11  C   UNL     1      43.299 -15.312   2.661  1.00  0.00     0.001 A 
HETATM   12  C   UNL     1      42.717 -14.627   3.729  1.00  0.00     0.012 A 
ENDROOT
BRANCH   6  13
HETATM   13  C   UNL     1      40.171 -11.328   5.929  1.00  0.00     0.337 C 
BRANCH  13  14
HETATM   14  C   UNL     1      41.396 -10.500   6.321  1.00  0.00     0.243 C 
HETATM   15  N   UNL     1      41.509 -10.255   7.664  1.00  0.00    -0.359 N 
HETATM   16  H   UNL     1      40.736 -10.479   8.292  1.00  0.00     0.162 HD
HETATM   17  O   UNL     1      42.180 -10.098   5.466  1.00  0.00    -0.272 OA
BRANCH  15  18
HETATM   18  C   UNL     1      42.431  -9.277   8.222  1.00  0.00     0.130 C 
BRANCH  18  19
HETATM   19  C   UNL     1      43.258  -9.878   9.362  1.00  0.00     0.098 C 
BRANCH  19  20
HETATM   20  C   UNL     1      42.726  -9.496  10.731  1.00  0.00     0.109 A 
HETATM   21  N   UNL     1      43.361  -8.651  11.487  1.00  0.00    -0.234 NA
HETATM   22  C   UNL     1      42.811  -8.359  12.751  1.00  0.00     0.074 A 
HETATM   23  C   UNL     1      41.648  -8.973  13.227  1.00  0.00     0.061 A 
HETATM   24  C   UNL     1      43.446  -7.414  13.561  1.00  0.00     0.032 A 
HETATM   25  C   UNL     1      40.992  -9.955  12.349  1.00  0.00     0.259 A 
HETATM   26  C   UNL     1      41.125  -8.664  14.486  1.00  0.00     0.019 A 
HETATM   27  O   UNL     1      39.984 -10.563  12.681  1.00  0.00    -0.267 OA
HETATM   28  N   UNL     1      41.589 -10.149  11.129  1.00  0.00    -0.311 N 
HETATM   29  H   UNL     1      41.124 -10.820  10.532  1.00  0.00     0.170 HD
HETATM   30  C   UNL     1      41.771  -7.721  15.284  1.00  0.00     0.001 A 
HETATM   31  C   UNL     1      42.930  -7.096  14.821  1.00  0.00     0.002 A 
ENDBRANCH  19  20
ENDBRANCH  18  19
ENDBRANCH  15  18
ENDBRANCH  13  14
ENDBRANCH   6  13
BRANCH   1  32
HETATM   32  C   UNL     1      40.004 -11.689   1.262  1.00  0.00     0.006 A 
HETATM   33  C   UNL     1      39.804 -11.898  -0.121  1.00  0.00     0.077 A 
HETATM   34  C   UNL     1      40.509 -11.139  -1.066  1.00  0.00     0.037 A 
HETATM   35  C   UNL     1      41.440 -10.188  -0.656  1.00  0.00     0.003 A 
HETATM   36  C   UNL     1      41.669  -9.986   0.697  1.00  0.00     0.001 A 
HETATM   37  C   UNL     1      40.957 -10.726   1.645  1.00  0.00     0.012 A 
BRANCH  33  38
HETATM   38  O   UNL     1      38.865 -12.834  -0.477  1.00  0.00    -0.355 OA
HETATM   39  C   UNL     1      37.898 -12.422  -1.441  1.00  0.00     0.210 C 
ENDBRANCH  33  38
ENDBRANCH   1  32
TORSDOF 7
ENDMDL
