MODEL 1
REMARK VINA RESULT:     -10.1      0.000      0.000
REMARK  7 active torsions:
REMARK  status: ('A' for Active; 'I' for Inactive)
REMARK    1  A    between atoms: C_2  and  C_3 
REMARK    2  A    between atoms: C_7  and  N_8 
REMARK    3  A    between atoms: C_10  and  C_11 
REMARK    4  A    between atoms: C_17  and  N_18 
REMARK       I    between atoms: N_18  and  C_19 
REMARK    5  A    between atoms: C_19  and  C_20 
REMARK    6  A    between atoms: C_20  and  O_21 
REMARK    7  A    between atoms: O_21  and  C_22 
ROOT
HETATM    1  N   UNL     1      41.219 -15.457   2.408  1.00  0.00    -0.044 N 
HETATM    2  N   UNL     1      41.291 -15.298   1.052  1.00  0.00    -0.148 NA
HETATM    3  C   UNL     1      40.420 -14.320   0.784  1.00  0.00     0.115 A 
HETATM    4  C   UNL     1      39.795 -13.830   1.947  1.00  0.00     0.087 A 
HETATM    5  C   UNL     1      40.272 -14.610   2.975  1.00  0.00     0.152 A 
ENDROOT
BRANCH   5   6
HETATM    6  N   UNL     1      39.917 -14.392   4.296  1.00  0.00    -0.309 N 
HETATM    7  C   UNL     1      40.257 -13.249   5.094  1.00  0.00     0.247 C 
HETATM    8  O   UNL     1      39.556 -13.083   6.083  1.00  0.00    -0.271 OA
HETATM    9  H   UNL     1      39.402 -15.110   4.793  1.00  0.00     0.170 HD
BRANCH   7  10
HETATM   10  C   UNL     1      41.526 -12.466   4.812  1.00  0.00     0.278 C 
BRANCH  10  11
HETATM   11  O   UNL     1      42.557 -13.039   5.613  1.00  0.00    -0.342 OA
BRANCH  11  12
HETATM   12  C   UNL     1      43.369 -12.167   6.286  1.00  0.00     0.070 A 
HETATM   13  C   UNL     1      42.734 -11.008   6.741  1.00  0.00     0.049 A 
HETATM   14  C   UNL     1      43.442 -10.019   7.448  1.00  0.00    -0.023 A 
HETATM   15  C   UNL     1      44.817 -10.209   7.705  1.00  0.00    -0.026 A 
HETATM   16  C   UNL     1      42.814  -8.848   7.903  1.00  0.00     0.012 A 
HETATM   17  C   UNL     1      45.442 -11.379   7.250  1.00  0.00     0.015 A 
HETATM   18  C   UNL     1      45.528  -9.225   8.412  1.00  0.00     0.012 A 
HETATM   19  C   UNL     1      44.725 -12.353   6.547  1.00  0.00     0.037 A 
HETATM   20  C   UNL     1      44.890  -8.067   8.857  1.00  0.00     0.001 A 
HETATM   21  C   UNL     1      43.534  -7.879   8.603  1.00  0.00     0.001 A 
ENDBRANCH  11  12
ENDBRANCH  10  11
ENDBRANCH   7  10
ENDBRANCH   5   6
BRANCH   1  22
HETATM   22  C   UNL     1      42.129 -16.331   3.031  1.00  0.00     0.732 A 
HETATM   23  N   UNL     1      42.270 -17.494   2.334  1.00  0.00    -0.152 N 
HETATM   24  C   UNL     1      43.146 -18.455   2.720  1.00  0.00     0.268 A 
HETATM   25  H   UNL     1      41.776 -17.621   1.455  1.00  0.00     0.188 HD
HETATM   26  C   UNL     1      43.837 -18.203   4.017  1.00  0.00     0.035 A 
HETATM   27  O   UNL     1      43.348 -19.455   2.043  1.00  0.00    -0.267 OA
HETATM   28  C   UNL     1      43.591 -17.026   4.633  1.00  0.00     0.061 A 
HETATM   29  N   UNL     1      42.749 -16.052   4.130  1.00  0.00    -0.067 NA
HETATM   30  C   UNL     1      44.222 -16.640   5.948  1.00  0.00     0.072 C 
BRANCH  26  31
HETATM   31  C   UNL     1      44.708 -19.326   4.520  1.00  0.00     0.042 C 
HETATM   32  C   UNL     1      43.936 -20.304   5.393  1.00  0.00     0.010 C 
ENDBRANCH  26  31
ENDBRANCH   1  22
BRANCH   3  33
HETATM   33  C   UNL     1      40.159 -13.825  -0.598  1.00  0.00     0.105 A 
HETATM   34  O   UNL     1      40.635 -12.642  -1.092  1.00  0.00    -0.320 OA
HETATM   35  C   UNL     1      40.173 -12.522  -2.363  1.00  0.00     0.142 A 
HETATM   36  C   UNL     1      39.421 -13.619  -2.708  1.00  0.00     0.027 A 
HETATM   37  C   UNL     1      39.409 -14.460  -1.569  1.00  0.00     0.041 A 
ENDBRANCH   3  33
TORSDOF 7
ENDMDL
MODEL 2
REMARK VINA RESULT:     -10.0      2.707      6.839
REMARK  7 active torsions:
REMARK  status: ('A' for Active; 'I' for Inactive)
REMARK    1  A    between atoms: C_2  and  C_3 
REMARK    2  A    between atoms: C_7  and  N_8 
REMARK    3  A    between atoms: C_10  and  C_11 
REMARK    4  A    between atoms: C_17  and  N_18 
REMARK       I    between atoms: N_18  and  C_19 
REMARK    5  A    between atoms: C_19  and  C_20 
REMARK    6  A    between atoms: C_20  and  O_21 
REMARK    7  A    between atoms: O_21  and  C_22 
ROOT
HETATM    1  N   UNL     1      41.212 -11.795   1.320  1.00  0.00    -0.044 N 
HETATM    2  N   UNL     1      41.615 -10.725   0.571  1.00  0.00    -0.148 NA
HETATM    3  C   UNL     1      40.965 -10.869  -0.589  1.00  0.00     0.115 A 
HETATM    4  C   UNL     1      40.134 -12.006  -0.598  1.00  0.00     0.087 A 
HETATM    5  C   UNL     1      40.349 -12.624   0.611  1.00  0.00     0.152 A 
ENDROOT
BRANCH   5   6
HETATM    6  N   UNL     1      39.660 -13.765   0.992  1.00  0.00    -0.309 N 
HETATM    7  C   UNL     1      40.237 -14.989   1.472  1.00  0.00     0.247 C 
HETATM    8  O   UNL     1      39.468 -15.716   2.085  1.00  0.00    -0.271 OA
HETATM    9  H   UNL     1      38.652 -13.789   0.893  1.00  0.00     0.170 HD
BRANCH   7  10
HETATM   10  C   UNL     1      41.632 -15.401   1.041  1.00  0.00     0.278 C 
BRANCH  10  11
HETATM   11  O   UNL     1      42.518 -15.058   2.104  1.00  0.00    -0.342 OA
BRANCH  11  12
HETATM   12  C   UNL     1      42.929 -16.081   2.915  1.00  0.00     0.070 A 
HETATM   13  C   UNL     1      42.978 -17.335   2.299  1.00  0.00     0.049 A 
HETATM   14  C   UNL     1      43.381 -18.480   3.009  1.00  0.00    -0.023 A 
HETATM   15  C   UNL     1      43.747 -18.355   4.366  1.00  0.00    -0.026 A 
HETATM   16  C   UNL     1      43.427 -19.745   2.400  1.00  0.00     0.012 A 
HETATM   17  C   UNL     1      43.699 -17.091   4.973  1.00  0.00     0.015 A 
HETATM   18  C   UNL     1      44.150 -19.496   5.079  1.00  0.00     0.012 A 
HETATM   19  C   UNL     1      43.295 -15.961   4.255  1.00  0.00     0.037 A 
HETATM   20  C   UNL     1      44.191 -20.745   4.460  1.00  0.00     0.001 A 
HETATM   21  C   UNL     1      43.829 -20.870   3.122  1.00  0.00     0.001 A 
ENDBRANCH  11  12
ENDBRANCH  10  11
ENDBRANCH   7  10
ENDBRANCH   5   6
BRANCH   1  22
HETATM   22  C   UNL     1      41.616 -11.863   2.667  1.00  0.00     0.732 A 
HETATM   23  N   UNL     1      42.953 -11.636   2.804  1.00  0.00    -0.152 N 
HETATM   24  C   UNL     1      43.548 -11.590   4.023  1.00  0.00     0.268 A 
HETATM   25  H   UNL     1      43.515 -11.410   1.988  1.00  0.00     0.188 HD
HETATM   26  C   UNL     1      42.665 -11.931   5.175  1.00  0.00     0.035 A 
HETATM   27  O   UNL     1      44.727 -11.289   4.155  1.00  0.00    -0.267 OA
HETATM   28  C   UNL     1      41.362 -12.169   4.910  1.00  0.00     0.061 A 
HETATM   29  N   UNL     1      40.808 -12.109   3.644  1.00  0.00    -0.067 NA
HETATM   30  C   UNL     1      40.358 -12.524   5.978  1.00  0.00     0.072 C 
BRANCH  26  31
HETATM   31  C   UNL     1      43.348 -12.016   6.516  1.00  0.00     0.042 C 
HETATM   32  C   UNL     1      43.854 -13.419   6.814  1.00  0.00     0.010 C 
ENDBRANCH  26  31
ENDBRANCH   1  22
BRANCH   3  33
HETATM   33  C   UNL     1      41.123  -9.918  -1.726  1.00  0.00     0.105 A 
HETATM   34  O   UNL     1      41.807  -8.736  -1.650  1.00  0.00    -0.320 OA
HETATM   35  C   UNL     1      41.711  -8.136  -2.864  1.00  0.00     0.142 A 
HETATM   36  C   UNL     1      40.992  -8.920  -3.733  1.00  0.00     0.027 A 
HETATM   37  C   UNL     1      40.609 -10.069  -3.000  1.00  0.00     0.041 A 
ENDBRANCH   3  33
TORSDOF 7
ENDMDL
MODEL 3
REMARK VINA RESULT:      -9.8      3.052      8.097
REMARK  7 active torsions:
REMARK  status: ('A' for Active; 'I' for Inactive)
REMARK    1  A    between atoms: C_2  and  C_3 
REMARK    2  A    between atoms: C_7  and  N_8 
REMARK    3  A    between atoms: C_10  and  C_11 
REMARK    4  A    between atoms: C_17  and  N_18 
REMARK       I    between atoms: N_18  and  C_19 
REMARK    5  A    between atoms: C_19  and  C_20 
REMARK    6  A    between atoms: C_20  and  O_21 
REMARK    7  A    between atoms: O_21  and  C_22 
ROOT
HETATM    1  N   UNL     1      41.960 -11.387   1.642  1.00  0.00    -0.044 N 
HETATM    2  N   UNL     1      42.608 -10.908   2.746  1.00  0.00    -0.148 NA
HETATM    3  C   UNL     1      43.075 -12.002   3.357  1.00  0.00     0.115 A 
HETATM    4  C   UNL     1      42.755 -13.182   2.658  1.00  0.00     0.087 A 
HETATM    5  C   UNL     1      41.987 -12.777   1.591  1.00  0.00     0.152 A 
ENDROOT
BRANCH   5   6
HETATM    6  N   UNL     1      41.518 -13.665   0.636  1.00  0.00    -0.309 N 
HETATM    7  C   UNL     1      40.281 -14.390   0.681  1.00  0.00     0.247 C 
HETATM    8  O   UNL     1      39.896 -14.820  -0.398  1.00  0.00    -0.271 OA
HETATM    9  H   UNL     1      42.101 -13.879  -0.165  1.00  0.00     0.170 HD
BRANCH   7  10
HETATM   10  C   UNL     1      39.652 -14.755   2.012  1.00  0.00     0.278 C 
BRANCH  10  11
HETATM   11  O   UNL     1      39.986 -16.117   2.274  1.00  0.00    -0.342 OA
BRANCH  11  12
HETATM   12  C   UNL     1      41.087 -16.339   3.057  1.00  0.00     0.070 A 
HETATM   13  C   UNL     1      40.929 -15.994   4.403  1.00  0.00     0.049 A 
HETATM   14  C   UNL     1      41.975 -16.166   5.326  1.00  0.00    -0.023 A 
HETATM   15  C   UNL     1      43.203 -16.702   4.883  1.00  0.00    -0.026 A 
HETATM   16  C   UNL     1      41.828 -15.816   6.679  1.00  0.00     0.012 A 
HETATM   17  C   UNL     1      43.349 -17.050   3.532  1.00  0.00     0.015 A 
HETATM   18  C   UNL     1      44.251 -16.875   5.802  1.00  0.00     0.012 A 
HETATM   19  C   UNL     1      42.299 -16.872   2.625  1.00  0.00     0.037 A 
HETATM   20  C   UNL     1      44.089 -16.524   7.142  1.00  0.00     0.001 A 
HETATM   21  C   UNL     1      42.879 -15.994   7.580  1.00  0.00     0.001 A 
ENDBRANCH  11  12
ENDBRANCH  10  11
ENDBRANCH   7  10
ENDBRANCH   5   6
BRANCH   1  22
HETATM   22  C   UNL     1      41.467 -10.464   0.700  1.00  0.00     0.732 A 
HETATM   23  N   UNL     1      40.108 -10.519   0.604  1.00  0.00    -0.152 N 
HETATM   24  C   UNL     1      39.415  -9.671  -0.198  1.00  0.00     0.268 A 
HETATM   25  H   UNL     1      39.582 -11.146   1.205  1.00  0.00     0.188 HD
HETATM   26  C   UNL     1      40.248  -8.777  -1.051  1.00  0.00     0.035 A 
HETATM   27  O   UNL     1      38.191  -9.651  -0.211  1.00  0.00    -0.267 OA
HETATM   28  C   UNL     1      41.589  -8.837  -0.889  1.00  0.00     0.061 A 
HETATM   29  N   UNL     1      42.221  -9.668   0.018  1.00  0.00    -0.067 NA
HETATM   30  C   UNL     1      42.550  -7.989  -1.685  1.00  0.00     0.072 C 
BRANCH  26  31
HETATM   31  C   UNL     1      39.492  -7.930  -2.042  1.00  0.00     0.042 C 
HETATM   32  C   UNL     1      39.332  -8.624  -3.386  1.00  0.00     0.010 C 
ENDBRANCH  26  31
ENDBRANCH   1  22
BRANCH   3  33
HETATM   33  C   UNL     1      43.844 -11.949   4.633  1.00  0.00     0.105 A 
HETATM   34  O   UNL     1      44.948 -11.166   4.833  1.00  0.00    -0.320 OA
HETATM   35  C   UNL     1      45.387 -11.403   6.095  1.00  0.00     0.142 A 
HETATM   36  C   UNL     1      44.573 -12.313   6.726  1.00  0.00     0.027 A 
HETATM   37  C   UNL     1      43.578 -12.668   5.783  1.00  0.00     0.041 A 
ENDBRANCH   3  33
TORSDOF 7
ENDMDL
MODEL 4
REMARK VINA RESULT:      -9.6      2.964      7.603
REMARK  7 active torsions:
REMARK  status: ('A' for Active; 'I' for Inactive)
REMARK    1  A    between atoms: C_2  and  C_3 
REMARK    2  A    between atoms: C_7  and  N_8 
REMARK    3  A    between atoms: C_10  and  C_11 
REMARK    4  A    between atoms: C_17  and  N_18 
REMARK       I    between atoms: N_18  and  C_19 
REMARK    5  A    between atoms: C_19  and  C_20 
REMARK    6  A    between atoms: C_20  and  O_21 
REMARK    7  A    between atoms: O_21  and  C_22 
ROOT
HETATM    1  N   UNL     1      39.451 -11.829   3.801  1.00  0.00    -0.044 N 
HETATM    2  N   UNL     1      39.356 -10.465   3.797  1.00  0.00    -0.148 NA
HETATM    3  C   UNL     1      39.318 -10.130   5.091  1.00  0.00     0.115 A 
HETATM    4  C   UNL     1      39.403 -11.254   5.935  1.00  0.00     0.087 A 
HETATM    5  C   UNL     1      39.427 -12.342   5.094  1.00  0.00     0.152 A 
ENDROOT
BRANCH   5   6
HETATM    6  N   UNL     1      39.558 -13.638   5.565  1.00  0.00    -0.309 N 
HETATM    7  C   UNL     1      40.702 -14.193   6.230  1.00  0.00     0.247 C 
HETATM    8  O   UNL     1      40.481 -15.209   6.875  1.00  0.00    -0.271 OA
HETATM    9  H   UNL     1      38.807 -14.300   5.402  1.00  0.00     0.170 HD
BRANCH   7  10
HETATM   10  C   UNL     1      42.091 -13.651   5.949  1.00  0.00     0.278 C 
BRANCH  10  11
HETATM   11  O   UNL     1      42.493 -14.167   4.681  1.00  0.00    -0.342 OA
BRANCH  11  12
HETATM   12  C   UNL     1      42.975 -15.447   4.664  1.00  0.00     0.070 A 
HETATM   13  C   UNL     1      42.647 -16.182   3.521  1.00  0.00     0.049 A 
HETATM   14  C   UNL     1      43.073 -17.513   3.363  1.00  0.00    -0.023 A 
HETATM   15  C   UNL     1      43.851 -18.111   4.379  1.00  0.00    -0.026 A 
HETATM   16  C   UNL     1      42.743 -18.262   2.222  1.00  0.00     0.012 A 
HETATM   17  C   UNL     1      44.179 -17.363   5.518  1.00  0.00     0.015 A 
HETATM   18  C   UNL     1      44.278 -19.440   4.226  1.00  0.00     0.012 A 
HETATM   19  C   UNL     1      43.747 -16.040   5.661  1.00  0.00     0.037 A 
HETATM   20  C   UNL     1      43.943 -20.171   3.086  1.00  0.00     0.001 A 
HETATM   21  C   UNL     1      43.175 -19.582   2.084  1.00  0.00     0.001 A 
ENDBRANCH  11  12
ENDBRANCH  10  11
ENDBRANCH   7  10
ENDBRANCH   5   6
BRANCH   1  22
HETATM   22  C   UNL     1      39.652 -12.492   2.576  1.00  0.00     0.732 A 
HETATM   23  N   UNL     1      39.726 -11.616   1.535  1.00  0.00    -0.152 N 
HETATM   24  C   UNL     1      39.981 -12.034   0.269  1.00  0.00     0.268 A 
HETATM   25  H   UNL     1      39.677 -10.616   1.708  1.00  0.00     0.188 HD
HETATM   26  C   UNL     1      40.043 -13.512   0.086  1.00  0.00     0.035 A 
HETATM   27  O   UNL     1      40.147 -11.243  -0.651  1.00  0.00    -0.267 OA
HETATM   28  C   UNL     1      39.923 -14.280   1.191  1.00  0.00     0.061 A 
HETATM   29  N   UNL     1      39.753 -13.775   2.467  1.00  0.00    -0.067 NA
HETATM   30  C   UNL     1      39.967 -15.787   1.152  1.00  0.00     0.072 C 
BRANCH  26  31
HETATM   31  C   UNL     1      40.189 -13.987  -1.337  1.00  0.00     0.042 C 
HETATM   32  C   UNL     1      38.843 -14.249  -1.996  1.00  0.00     0.010 C 
ENDBRANCH  26  31
ENDBRANCH   1  22
BRANCH   3  33
HETATM   33  C   UNL     1      39.197  -8.719   5.557  1.00  0.00     0.105 A 
HETATM   34  O   UNL     1      38.151  -8.241   6.298  1.00  0.00    -0.320 OA
HETATM   35  C   UNL     1      38.377  -6.919   6.507  1.00  0.00     0.142 A 
HETATM   36  C   UNL     1      39.563  -6.535   5.930  1.00  0.00     0.027 A 
HETATM   37  C   UNL     1      40.093  -7.695   5.314  1.00  0.00     0.041 A 
ENDBRANCH   3  33
TORSDOF 7
ENDMDL
MODEL 5
REMARK VINA RESULT:      -9.5      1.353      5.752
REMARK  7 active torsions:
REMARK  status: ('A' for Active; 'I' for Inactive)
REMARK    1  A    between atoms: C_2  and  C_3 
REMARK    2  A    between atoms: C_7  and  N_8 
REMARK    3  A    between atoms: C_10  and  C_11 
REMARK    4  A    between atoms: C_17  and  N_18 
REMARK       I    between atoms: N_18  and  C_19 
REMARK    5  A    between atoms: C_19  and  C_20 
REMARK    6  A    between atoms: C_20  and  O_21 
REMARK    7  A    between atoms: O_21  and  C_22 
ROOT
HETATM    1  N   UNL     1      40.992 -14.778   1.729  1.00  0.00    -0.044 N 
HETATM    2  N   UNL     1      41.898 -15.802   1.719  1.00  0.00    -0.148 NA
HETATM    3  C   UNL     1      41.951 -16.212   2.991  1.00  0.00     0.115 A 
HETATM    4  C   UNL     1      41.081 -15.481   3.823  1.00  0.00     0.087 A 
HETATM    5  C   UNL     1      40.517 -14.525   3.012  1.00  0.00     0.152 A 
ENDROOT
BRANCH   5   6
HETATM    6  N   UNL     1      39.558 -13.636   3.471  1.00  0.00    -0.309 N 
HETATM    7  C   UNL     1      39.753 -12.243   3.757  1.00  0.00     0.247 C 
HETATM    8  O   UNL     1      38.729 -11.575   3.793  1.00  0.00    -0.271 OA
HETATM    9  H   UNL     1      38.626 -13.979   3.677  1.00  0.00     0.170 HD
BRANCH   7  10
HETATM   10  C   UNL     1      41.115 -11.731   4.188  1.00  0.00     0.278 C 
BRANCH  10  11
HETATM   11  O   UNL     1      41.364 -12.251   5.492  1.00  0.00    -0.342 OA
BRANCH  11  12
HETATM   12  C   UNL     1      42.543 -11.886   6.084  1.00  0.00     0.070 A 
HETATM   13  C   UNL     1      42.509 -10.657   6.749  1.00  0.00     0.049 A 
HETATM   14  C   UNL     1      43.646 -10.151   7.404  1.00  0.00    -0.023 A 
HETATM   15  C   UNL     1      44.840 -10.905   7.390  1.00  0.00    -0.026 A 
HETATM   16  C   UNL     1      43.623  -8.914   8.069  1.00  0.00     0.012 A 
HETATM   17  C   UNL     1      44.861 -12.139   6.725  1.00  0.00     0.015 A 
HETATM   18  C   UNL     1      45.978 -10.403   8.042  1.00  0.00     0.012 A 
HETATM   19  C   UNL     1      43.722 -12.629   6.077  1.00  0.00     0.037 A 
HETATM   20  C   UNL     1      45.940  -9.173   8.699  1.00  0.00     0.001 A 
HETATM   21  C   UNL     1      44.763  -8.429   8.712  1.00  0.00     0.001 A 
ENDBRANCH  11  12
ENDBRANCH  10  11
ENDBRANCH   7  10
ENDBRANCH   5   6
BRANCH   1  22
HETATM   22  C   UNL     1      40.602 -14.214   0.500  1.00  0.00     0.732 A 
HETATM   23  N   UNL     1      41.017 -12.921   0.385  1.00  0.00    -0.152 N 
HETATM   24  C   UNL     1      40.805 -12.202  -0.747  1.00  0.00     0.268 A 
HETATM   25  H   UNL     1      41.573 -12.499   1.123  1.00  0.00     0.188 HD
HETATM   26  C   UNL     1      39.984 -12.882  -1.788  1.00  0.00     0.035 A 
HETATM   27  O   UNL     1      41.263 -11.076  -0.892  1.00  0.00    -0.267 OA
HETATM   28  C   UNL     1      39.602 -14.155  -1.546  1.00  0.00     0.061 A 
HETATM   29  N   UNL     1      39.934 -14.856  -0.400  1.00  0.00    -0.067 NA
HETATM   30  C   UNL     1      38.770 -14.962  -2.512  1.00  0.00     0.072 C 
BRANCH  26  31
HETATM   31  C   UNL     1      39.629 -12.043  -2.990  1.00  0.00     0.042 C 
HETATM   32  C   UNL     1      38.336 -11.267  -2.787  1.00  0.00     0.010 C 
ENDBRANCH  26  31
ENDBRANCH   1  22
BRANCH   3  33
HETATM   33  C   UNL     1      42.840 -17.318   3.447  1.00  0.00     0.105 A 
HETATM   34  O   UNL     1      43.188 -17.536   4.752  1.00  0.00    -0.320 OA
HETATM   35  C   UNL     1      44.022 -18.606   4.773  1.00  0.00     0.142 A 
HETATM   36  C   UNL     1      44.205 -19.099   3.504  1.00  0.00     0.027 A 
HETATM   37  C   UNL     1      43.446 -18.267   2.647  1.00  0.00     0.041 A 
ENDBRANCH   3  33
TORSDOF 7
ENDMDL
MODEL 6
REMARK VINA RESULT:      -9.4      1.207      2.159
REMARK  7 active torsions:
REMARK  status: ('A' for Active; 'I' for Inactive)
REMARK    1  A    between atoms: C_2  and  C_3 
REMARK    2  A    between atoms: C_7  and  N_8 
REMARK    3  A    between atoms: C_10  and  C_11 
REMARK    4  A    between atoms: C_17  and  N_18 
REMARK       I    between atoms: N_18  and  C_19 
REMARK    5  A    between atoms: C_19  and  C_20 
REMARK    6  A    between atoms: C_20  and  O_21 
REMARK    7  A    between atoms: O_21  and  C_22 
ROOT
HETATM    1  N   UNL     1      41.421 -15.886   2.453  1.00  0.00    -0.044 N 
HETATM    2  N   UNL     1      41.583 -15.414   1.180  1.00  0.00    -0.148 NA
HETATM    3  C   UNL     1      40.793 -14.337   1.122  1.00  0.00     0.115 A 
HETATM    4  C   UNL     1      40.133 -14.094   2.342  1.00  0.00     0.087 A 
HETATM    5  C   UNL     1      40.498 -15.131   3.168  1.00  0.00     0.152 A 
ENDROOT
BRANCH   5   6
HETATM    6  N   UNL     1      40.080 -15.210   4.487  1.00  0.00    -0.309 N 
HETATM    7  C   UNL     1      40.538 -14.396   5.577  1.00  0.00     0.247 C 
HETATM    8  O   UNL     1      39.798 -14.375   6.551  1.00  0.00    -0.271 OA
HETATM    9  H   UNL     1      39.417 -15.930   4.751  1.00  0.00     0.170 HD
BRANCH   7  10
HETATM   10  C   UNL     1      41.936 -13.807   5.561  1.00  0.00     0.278 C 
BRANCH  10  11
HETATM   11  O   UNL     1      41.813 -12.449   5.142  1.00  0.00    -0.342 OA
BRANCH  11  12
HETATM   12  C   UNL     1      42.320 -11.498   5.985  1.00  0.00     0.070 A 
HETATM   13  C   UNL     1      43.704 -11.557   6.171  1.00  0.00     0.049 A 
HETATM   14  C   UNL     1      44.366 -10.644   7.011  1.00  0.00    -0.023 A 
HETATM   15  C   UNL     1      43.615  -9.648   7.672  1.00  0.00    -0.026 A 
HETATM   16  C   UNL     1      45.756 -10.700   7.210  1.00  0.00     0.012 A 
HETATM   17  C   UNL     1      42.227  -9.594   7.474  1.00  0.00     0.015 A 
HETATM   18  C   UNL     1      44.271  -8.734   8.512  1.00  0.00     0.012 A 
HETATM   19  C   UNL     1      41.583 -10.510   6.636  1.00  0.00     0.037 A 
HETATM   20  C   UNL     1      45.652  -8.802   8.699  1.00  0.00     0.001 A 
HETATM   21  C   UNL     1      46.394  -9.785   8.048  1.00  0.00     0.001 A 
ENDBRANCH  11  12
ENDBRANCH  10  11
ENDBRANCH   7  10
ENDBRANCH   5   6
BRANCH   1  22
HETATM   22  C   UNL     1      42.236 -16.951   2.883  1.00  0.00     0.732 A 
HETATM   23  N   UNL     1      42.834 -16.677   4.077  1.00  0.00    -0.152 N 
HETATM   24  C   UNL     1      43.614 -17.590   4.709  1.00  0.00     0.268 A 
HETATM   25  H   UNL     1      42.632 -15.805   4.557  1.00  0.00     0.188 HD
HETATM   26  C   UNL     1      43.868 -18.847   3.949  1.00  0.00     0.035 A 
HETATM   27  O   UNL     1      44.071 -17.385   5.826  1.00  0.00    -0.267 OA
HETATM   28  C   UNL     1      43.244 -18.990   2.759  1.00  0.00     0.061 A 
HETATM   29  N   UNL     1      42.388 -18.047   2.218  1.00  0.00    -0.067 NA
HETATM   30  C   UNL     1      43.409 -20.209   1.886  1.00  0.00     0.072 C 
BRANCH  26  31
HETATM   31  C   UNL     1      44.841 -19.807   4.583  1.00  0.00     0.042 C 
HETATM   32  C   UNL     1      44.141 -20.859   5.430  1.00  0.00     0.010 C 
ENDBRANCH  26  31
ENDBRANCH   1  22
BRANCH   3  33
HETATM   33  C   UNL     1      40.646 -13.508  -0.108  1.00  0.00     0.105 A 
HETATM   34  O   UNL     1      40.198 -13.987  -1.309  1.00  0.00    -0.320 OA
HETATM   35  C   UNL     1      40.225 -12.955  -2.190  1.00  0.00     0.142 A 
HETATM   36  C   UNL     1      40.665 -11.807  -1.574  1.00  0.00     0.027 A 
HETATM   37  C   UNL     1      40.939 -12.163  -0.232  1.00  0.00     0.041 A 
ENDBRANCH   3  33
TORSDOF 7
ENDMDL
MODEL 7
REMARK VINA RESULT:      -9.3      2.786      4.626
REMARK  7 active torsions:
REMARK  status: ('A' for Active; 'I' for Inactive)
REMARK    1  A    between atoms: C_2  and  C_3 
REMARK    2  A    between atoms: C_7  and  N_8 
REMARK    3  A    between atoms: C_10  and  C_11 
REMARK    4  A    between atoms: C_17  and  N_18 
REMARK       I    between atoms: N_18  and  C_19 
REMARK    5  A    between atoms: C_19  and  C_20 
REMARK    6  A    between atoms: C_20  and  O_21 
REMARK    7  A    between atoms: O_21  and  C_22 
ROOT
HETATM    1  N   UNL     1      41.155 -15.492   2.384  1.00  0.00    -0.044 N 
HETATM    2  N   UNL     1      41.195 -15.370   1.023  1.00  0.00    -0.148 NA
HETATM    3  C   UNL     1      40.317 -14.400   0.750  1.00  0.00     0.115 A 
HETATM    4  C   UNL     1      39.720 -13.878   1.913  1.00  0.00     0.087 A 
HETATM    5  C   UNL     1      40.221 -14.629   2.950  1.00  0.00     0.152 A 
ENDROOT
BRANCH   5   6
HETATM    6  N   UNL     1      39.897 -14.375   4.273  1.00  0.00    -0.309 N 
HETATM    7  C   UNL     1      40.136 -13.155   4.991  1.00  0.00     0.247 C 
HETATM    8  O   UNL     1      39.461 -13.011   6.001  1.00  0.00    -0.271 OA
HETATM    9  H   UNL     1      39.488 -15.116   4.831  1.00  0.00     0.170 HD
BRANCH   7  10
HETATM   10  C   UNL     1      41.294 -12.253   4.608  1.00  0.00     0.278 C 
BRANCH  10  11
HETATM   11  O   UNL     1      40.780 -10.927   4.516  1.00  0.00    -0.342 OA
BRANCH  11  12
HETATM   12  C   UNL     1      40.241 -10.559   3.313  1.00  0.00     0.070 A 
HETATM   13  C   UNL     1      41.176 -10.269   2.316  1.00  0.00     0.049 A 
HETATM   14  C   UNL     1      40.769  -9.876   1.028  1.00  0.00    -0.023 A 
HETATM   15  C   UNL     1      39.390  -9.779   0.742  1.00  0.00    -0.026 A 
HETATM   16  C   UNL     1      41.702  -9.577   0.021  1.00  0.00     0.012 A 
HETATM   17  C   UNL     1      38.461 -10.077   1.749  1.00  0.00     0.015 A 
HETATM   18  C   UNL     1      38.979  -9.387  -0.543  1.00  0.00     0.012 A 
HETATM   19  C   UNL     1      38.880 -10.466   3.025  1.00  0.00     0.037 A 
HETATM   20  C   UNL     1      39.918  -9.093  -1.533  1.00  0.00     0.001 A 
HETATM   21  C   UNL     1      41.278  -9.188  -1.251  1.00  0.00     0.001 A 
ENDBRANCH  11  12
ENDBRANCH  10  11
ENDBRANCH   7  10
ENDBRANCH   5   6
BRANCH   1  22
HETATM   22  C   UNL     1      42.079 -16.349   3.010  1.00  0.00     0.732 A 
HETATM   23  N   UNL     1      42.230 -17.516   2.323  1.00  0.00    -0.152 N 
HETATM   24  C   UNL     1      43.121 -18.463   2.713  1.00  0.00     0.268 A 
HETATM   25  H   UNL     1      41.732 -17.658   1.449  1.00  0.00     0.188 HD
HETATM   26  C   UNL     1      43.817 -18.190   4.002  1.00  0.00     0.035 A 
HETATM   27  O   UNL     1      43.330 -19.466   2.043  1.00  0.00    -0.267 OA
HETATM   28  C   UNL     1      43.560 -17.011   4.609  1.00  0.00     0.061 A 
HETATM   29  N   UNL     1      42.702 -16.052   4.102  1.00  0.00    -0.067 NA
HETATM   30  C   UNL     1      44.194 -16.605   5.917  1.00  0.00     0.072 C 
BRANCH  26  31
HETATM   31  C   UNL     1      44.705 -19.297   4.511  1.00  0.00     0.042 C 
HETATM   32  C   UNL     1      43.946 -20.289   5.380  1.00  0.00     0.010 C 
ENDBRANCH  26  31
ENDBRANCH   1  22
BRANCH   3  33
HETATM   33  C   UNL     1      40.023 -13.944  -0.639  1.00  0.00     0.105 A 
HETATM   34  O   UNL     1      39.199 -14.605  -1.507  1.00  0.00    -0.320 OA
HETATM   35  C   UNL     1      39.199 -13.909  -2.672  1.00  0.00     0.142 A 
HETATM   36  C   UNL     1      39.996 -12.795  -2.568  1.00  0.00     0.027 A 
HETATM   37  C   UNL     1      40.531 -12.817  -1.257  1.00  0.00     0.041 A 
ENDBRANCH   3  33
TORSDOF 7
ENDMDL
MODEL 8
REMARK VINA RESULT:      -9.1      4.183      9.730
REMARK  7 active torsions:
REMARK  status: ('A' for Active; 'I' for Inactive)
REMARK    1  A    between atoms: C_2  and  C_3 
REMARK    2  A    between atoms: C_7  and  N_8 
REMARK    3  A    between atoms: C_10  and  C_11 
REMARK    4  A    between atoms: C_17  and  N_18 
REMARK       I    between atoms: N_18  and  C_19 
REMARK    5  A    between atoms: C_19  and  C_20 
REMARK    6  A    between atoms: C_20  and  O_21 
REMARK    7  A    between atoms: O_21  and  C_22 
ROOT
HETATM    1  N   UNL     1      42.162  -9.513   8.520  1.00  0.00    -0.044 N 
HETATM    2  N   UNL     1      41.559  -9.159   9.695  1.00  0.00    -0.148 NA
HETATM    3  C   UNL     1      42.573  -8.985  10.549  1.00  0.00     0.115 A 
HETATM    4  C   UNL     1      43.825  -9.203   9.943  1.00  0.00     0.087 A 
HETATM    5  C   UNL     1      43.544  -9.600   8.657  1.00  0.00     0.152 A 
ENDROOT
BRANCH   5   6
HETATM    6  N   UNL     1      44.538  -9.862   7.728  1.00  0.00    -0.309 N 
HETATM    7  C   UNL     1      44.632 -11.016   6.880  1.00  0.00     0.247 C 
HETATM    8  O   UNL     1      45.355 -10.881   5.903  1.00  0.00    -0.271 OA
HETATM    9  H   UNL     1      45.315  -9.216   7.643  1.00  0.00     0.170 HD
BRANCH   7  10
HETATM   10  C   UNL     1      44.037 -12.341   7.319  1.00  0.00     0.278 C 
BRANCH  10  11
HETATM   11  O   UNL     1      42.988 -12.652   6.404  1.00  0.00    -0.342 OA
BRANCH  11  12
HETATM   12  C   UNL     1      43.048 -13.875   5.793  1.00  0.00     0.070 A 
HETATM   13  C   UNL     1      43.003 -13.835   4.396  1.00  0.00     0.049 A 
HETATM   14  C   UNL     1      43.055 -15.014   3.631  1.00  0.00    -0.023 A 
HETATM   15  C   UNL     1      43.160 -16.257   4.291  1.00  0.00    -0.026 A 
HETATM   16  C   UNL     1      43.003 -14.984   2.228  1.00  0.00     0.012 A 
HETATM   17  C   UNL     1      43.211 -16.286   5.692  1.00  0.00     0.015 A 
HETATM   18  C   UNL     1      43.212 -17.438   3.532  1.00  0.00     0.012 A 
HETATM   19  C   UNL     1      43.157 -15.104   6.440  1.00  0.00     0.037 A 
HETATM   20  C   UNL     1      43.161 -17.392   2.138  1.00  0.00     0.001 A 
HETATM   21  C   UNL     1      43.056 -16.166   1.487  1.00  0.00     0.001 A 
ENDBRANCH  11  12
ENDBRANCH  10  11
ENDBRANCH   7  10
ENDBRANCH   5   6
BRANCH   1  22
HETATM   22  C   UNL     1      41.365  -9.636   7.367  1.00  0.00     0.732 A 
HETATM   23  N   UNL     1      40.260 -10.401   7.596  1.00  0.00    -0.152 N 
HETATM   24  C   UNL     1      39.319 -10.599   6.639  1.00  0.00     0.268 A 
HETATM   25  H   UNL     1      40.081 -10.767   8.527  1.00  0.00     0.188 HD
HETATM   26  C   UNL     1      39.644 -10.034   5.299  1.00  0.00     0.035 A 
HETATM   27  O   UNL     1      38.279 -11.202   6.871  1.00  0.00    -0.267 OA
HETATM   28  C   UNL     1      40.786  -9.321   5.186  1.00  0.00     0.061 A 
HETATM   29  N   UNL     1      41.656  -9.085   6.235  1.00  0.00    -0.067 NA
HETATM   30  C   UNL     1      41.238  -8.692   3.891  1.00  0.00     0.072 C 
BRANCH  26  31
HETATM   31  C   UNL     1      38.670 -10.366   4.197  1.00  0.00     0.042 C 
HETATM   32  C   UNL     1      39.074 -11.617   3.432  1.00  0.00     0.010 C 
ENDBRANCH  26  31
ENDBRANCH   1  22
BRANCH   3  33
HETATM   33  C   UNL     1      42.371  -8.602  11.976  1.00  0.00     0.105 A 
HETATM   34  O   UNL     1      41.173  -8.688  12.632  1.00  0.00    -0.320 OA
HETATM   35  C   UNL     1      41.372  -8.232  13.895  1.00  0.00     0.142 A 
HETATM   36  C   UNL     1      42.686  -7.869  14.075  1.00  0.00     0.027 A 
HETATM   37  C   UNL     1      43.331  -8.105  12.837  1.00  0.00     0.041 A 
ENDBRANCH   3  33
TORSDOF 7
ENDMDL
MODEL 9
REMARK VINA RESULT:      -9.0      2.131      8.024
REMARK  7 active torsions:
REMARK  status: ('A' for Active; 'I' for Inactive)
REMARK    1  A    between atoms: C_2  and  C_3 
REMARK    2  A    between atoms: C_7  and  N_8 
REMARK    3  A    between atoms: C_10  and  C_11 
REMARK    4  A    between atoms: C_17  and  N_18 
REMARK       I    between atoms: N_18  and  C_19 
REMARK    5  A    between atoms: C_19  and  C_20 
REMARK    6  A    between atoms: C_20  and  O_21 
REMARK    7  A    between atoms: O_21  and  C_22 
ROOT
HETATM    1  N   UNL     1      42.966 -12.918   5.470  1.00  0.00    -0.044 N 
HETATM    2  N   UNL     1      44.106 -12.421   6.038  1.00  0.00    -0.148 NA
HETATM    3  C   UNL     1      43.724 -11.267   6.596  1.00  0.00     0.115 A 
HETATM    4  C   UNL     1      42.350 -11.016   6.413  1.00  0.00     0.087 A 
HETATM    5  C   UNL     1      41.889 -12.053   5.636  1.00  0.00     0.152 A 
ENDROOT
BRANCH   5   6
HETATM    6  N   UNL     1      40.555 -12.178   5.284  1.00  0.00    -0.309 N 
HETATM    7  C   UNL     1      40.012 -12.098   3.957  1.00  0.00     0.247 C 
HETATM    8  O   UNL     1      38.900 -12.590   3.825  1.00  0.00    -0.271 OA
HETATM    9  H   UNL     1      39.861 -12.295   6.013  1.00  0.00     0.170 HD
BRANCH   7  10
HETATM   10  C   UNL     1      40.706 -11.270   2.892  1.00  0.00     0.278 C 
BRANCH  10  11
HETATM   11  O   UNL     1      41.067 -12.160   1.838  1.00  0.00    -0.342 OA
BRANCH  11  12
HETATM   12  C   UNL     1      40.202 -12.244   0.781  1.00  0.00     0.070 A 
HETATM   13  C   UNL     1      40.236 -13.458   0.090  1.00  0.00     0.049 A 
HETATM   14  C   UNL     1      39.403 -13.689  -1.019  1.00  0.00    -0.023 A 
HETATM   15  C   UNL     1      38.515 -12.674  -1.435  1.00  0.00    -0.026 A 
HETATM   16  C   UNL     1      39.435 -14.904  -1.724  1.00  0.00     0.012 A 
HETATM   17  C   UNL     1      38.485 -11.461  -0.732  1.00  0.00     0.015 A 
HETATM   18  C   UNL     1      37.681 -12.900  -2.543  1.00  0.00     0.012 A 
HETATM   19  C   UNL     1      39.320 -11.246   0.370  1.00  0.00     0.037 A 
HETATM   20  C   UNL     1      37.724 -14.112  -3.232  1.00  0.00     0.001 A 
HETATM   21  C   UNL     1      38.601 -15.113  -2.823  1.00  0.00     0.001 A 
ENDBRANCH  11  12
ENDBRANCH  10  11
ENDBRANCH   7  10
ENDBRANCH   5   6
BRANCH   1  22
HETATM   22  C   UNL     1      43.002 -14.209   4.911  1.00  0.00     0.732 A 
HETATM   23  N   UNL     1      42.928 -14.173   3.551  1.00  0.00    -0.152 N 
HETATM   24  C   UNL     1      43.009 -15.301   2.801  1.00  0.00     0.268 A 
HETATM   25  H   UNL     1      42.896 -13.279   3.068  1.00  0.00     0.188 HD
HETATM   26  C   UNL     1      43.054 -16.576   3.573  1.00  0.00     0.035 A 
HETATM   27  O   UNL     1      43.044 -15.263   1.579  1.00  0.00    -0.267 OA
HETATM   28  C   UNL     1      43.090 -16.485   4.921  1.00  0.00     0.061 A 
HETATM   29  N   UNL     1      43.094 -15.289   5.614  1.00  0.00    -0.067 NA
HETATM   30  C   UNL     1      43.138 -17.693   5.824  1.00  0.00     0.072 C 
BRANCH  26  31
HETATM   31  C   UNL     1      43.007 -17.838   2.750  1.00  0.00     0.042 C 
HETATM   32  C   UNL     1      44.269 -18.672   2.905  1.00  0.00     0.010 C 
ENDBRANCH  26  31
ENDBRANCH   1  22
BRANCH   3  33
HETATM   33  C   UNL     1      44.667 -10.370   7.323  1.00  0.00     0.105 A 
HETATM   34  O   UNL     1      44.288  -9.239   7.992  1.00  0.00    -0.320 OA
HETATM   35  C   UNL     1      45.414  -8.676   8.500  1.00  0.00     0.142 A 
HETATM   36  C   UNL     1      46.516  -9.435   8.187  1.00  0.00     0.027 A 
HETATM   37  C   UNL     1      46.035 -10.527   7.425  1.00  0.00     0.041 A 
ENDBRANCH   3  33
TORSDOF 7
ENDMDL
MODEL 10
REMARK VINA RESULT:      -9.0      2.541      7.533
REMARK  7 active torsions:
REMARK  status: ('A' for Active; 'I' for Inactive)
REMARK    1  A    between atoms: C_2  and  C_3 
REMARK    2  A    between atoms: C_7  and  N_8 
REMARK    3  A    between atoms: C_10  and  C_11 
REMARK    4  A    between atoms: C_17  and  N_18 
REMARK       I    between atoms: N_18  and  C_19 
REMARK    5  A    between atoms: C_19  and  C_20 
REMARK    6  A    between atoms: C_20  and  O_21 
REMARK    7  A    between atoms: O_21  and  C_22 
ROOT
HETATM    1  N   UNL     1      42.494 -12.723   5.954  1.00  0.00    -0.044 N 
HETATM    2  N   UNL     1      43.199 -13.499   5.076  1.00  0.00    -0.148 NA
HETATM    3  C   UNL     1      42.270 -14.253   4.478  1.00  0.00     0.115 A 
HETATM    4  C   UNL     1      40.971 -13.966   4.942  1.00  0.00     0.087 A 
HETATM    5  C   UNL     1      41.136 -13.026   5.932  1.00  0.00     0.152 A 
ENDROOT
BRANCH   5   6
HETATM    6  N   UNL     1      40.063 -12.457   6.599  1.00  0.00    -0.309 N 
HETATM    7  C   UNL     1      39.159 -11.473   6.076  1.00  0.00     0.247 C 
HETATM    8  O   UNL     1      38.095 -11.381   6.673  1.00  0.00    -0.271 OA
HETATM    9  H   UNL     1      39.897 -12.705   7.567  1.00  0.00     0.170 HD
BRANCH   7  10
HETATM   10  C   UNL     1      39.617 -10.502   5.004  1.00  0.00     0.278 C 
BRANCH  10  11
HETATM   11  O   UNL     1      38.585 -10.445   4.022  1.00  0.00    -0.342 OA
BRANCH  11  12
HETATM   12  C   UNL     1      38.899 -10.910   2.774  1.00  0.00     0.070 A 
HETATM   13  C   UNL     1      39.147 -12.284   2.705  1.00  0.00     0.049 A 
HETATM   14  C   UNL     1      39.483 -12.905   1.489  1.00  0.00    -0.023 A 
HETATM   15  C   UNL     1      39.565 -12.121   0.317  1.00  0.00    -0.026 A 
HETATM   16  C   UNL     1      39.740 -14.283   1.412  1.00  0.00     0.012 A 
HETATM   17  C   UNL     1      39.308 -10.745   0.396  1.00  0.00     0.015 A 
HETATM   18  C   UNL     1      39.900 -12.737  -0.900  1.00  0.00     0.012 A 
HETATM   19  C   UNL     1      38.976 -10.142   1.613  1.00  0.00     0.037 A 
HETATM   20  C   UNL     1      40.152 -14.107  -0.961  1.00  0.00     0.001 A 
HETATM   21  C   UNL     1      40.073 -14.880   0.195  1.00  0.00     0.001 A 
ENDBRANCH  11  12
ENDBRANCH  10  11
ENDBRANCH   7  10
ENDBRANCH   5   6
BRANCH   1  22
HETATM   22  C   UNL     1      43.176 -11.709   6.651  1.00  0.00     0.732 A 
HETATM   23  N   UNL     1      44.523 -11.916   6.653  1.00  0.00    -0.152 N 
HETATM   24  C   UNL     1      45.381 -11.026   7.214  1.00  0.00     0.268 A 
HETATM   25  H   UNL     1      44.915 -12.708   6.152  1.00  0.00     0.188 HD
HETATM   26  C   UNL     1      44.738  -9.888   7.931  1.00  0.00     0.035 A 
HETATM   27  O   UNL     1      46.594 -11.158   7.130  1.00  0.00    -0.267 OA
HETATM   28  C   UNL     1      43.390  -9.807   7.886  1.00  0.00     0.061 A 
HETATM   29  N   UNL     1      42.584 -10.708   7.215  1.00  0.00    -0.067 NA
HETATM   30  C   UNL     1      42.611  -8.708   8.566  1.00  0.00     0.072 C 
BRANCH  26  31
HETATM   31  C   UNL     1      45.678  -8.970   8.672  1.00  0.00     0.042 C 
HETATM   32  C   UNL     1      45.778  -9.322  10.148  1.00  0.00     0.010 C 
ENDBRANCH  26  31
ENDBRANCH   1  22
BRANCH   3  33
HETATM   33  C   UNL     1      42.601 -15.272   3.442  1.00  0.00     0.105 A 
HETATM   34  O   UNL     1      42.335 -16.608   3.567  1.00  0.00    -0.320 OA
HETATM   35  C   UNL     1      42.799 -17.217   2.446  1.00  0.00     0.142 A 
HETATM   36  C   UNL     1      43.345 -16.294   1.586  1.00  0.00     0.027 A 
HETATM   37  C   UNL     1      43.220 -15.038   2.229  1.00  0.00     0.041 A 
ENDBRANCH   3  33
TORSDOF 7
ENDMDL
