MODEL 1
REMARK VINA RESULT:     -10.1      0.000      0.000
REMARK  6 active torsions:
REMARK  status: ('A' for Active; 'I' for Inactive)
REMARK    1  A    between atoms: C_2  and  O_3 
REMARK    2  A    between atoms: C_2  and  C_4 
REMARK    3  A    between atoms: C_6  and  N_7 
REMARK       I    between atoms: N_7  and  C_8 
REMARK    4  A    between atoms: C_8  and  C_9 
REMARK    5  A    between atoms: C_12  and  C_13 
REMARK    6  A    between atoms: C_18  and  C_19 
ROOT
HETATM    1  C   UNL     1      41.058 -14.428   3.540  1.00  0.00     0.096 C 
HETATM    2  C   UNL     1      41.955 -15.328   4.085  1.00  0.00     0.138 C 
HETATM    3  N   UNL     1      42.442 -14.728   5.225  1.00  0.00    -0.240 N 
HETATM    4  C   UNL     1      43.439 -15.317   6.104  1.00  0.00     0.221 C 
HETATM    5  C   UNL     1      43.597 -16.822   5.815  1.00  0.00     0.066 C 
HETATM    6  C   UNL     1      43.626 -17.072   4.303  1.00  0.00     0.118 C 
HETATM    7  N   UNL     1      42.386 -16.562   3.703  1.00  0.00    -0.365 N 
HETATM    8  N   UNL     1      42.070 -13.446   5.351  1.00  0.00    -0.181 NA
HETATM    9  C   UNL     1      41.202 -13.276   4.350  1.00  0.00     0.160 C 
HETATM   10  H   UNL     1      42.342 -16.794   2.707  1.00  0.00     0.161 HD
ENDROOT
BRANCH   1  11
HETATM   11  C   UNL     1      40.185 -14.571   2.385  1.00  0.00     0.261 C 
HETATM   12  N   UNL     1      40.324 -13.549   1.465  1.00  0.00    -0.323 N 
HETATM   13  H   UNL     1      41.069 -12.890   1.659  1.00  0.00     0.169 HD
HETATM   14  O   UNL     1      39.449 -15.545   2.280  1.00  0.00    -0.267 OA
BRANCH  12  15
HETATM   15  C   UNL     1      39.630 -13.376   0.251  1.00  0.00     0.035 A 
HETATM   16  C   UNL     1      39.527 -14.359  -0.736  1.00  0.00     0.039 A 
HETATM   17  C   UNL     1      38.826 -14.117  -1.931  1.00  0.00    -0.028 A 
HETATM   18  C   UNL     1      38.232 -12.863  -2.127  1.00  0.00     0.010 A 
HETATM   19  C   UNL     1      38.318 -11.881  -1.142  1.00  0.00     0.003 A 
HETATM   20  C   UNL     1      39.010 -12.138   0.042  1.00  0.00     0.029 A 
BRANCH  17  21
HETATM   21  C   UNL     1      38.756 -15.194  -2.993  1.00  0.00     0.147 C 
HETATM   22  C   UNL     1      37.901 -14.771  -4.179  1.00  0.00     0.044 C 
BRANCH  21  23
HETATM   23  O   UNL     1      38.223 -16.399  -2.446  1.00  0.00    -0.391 OA
HETATM   24  H   UNL     1      38.707 -17.133  -2.862  1.00  0.00     0.210 HD
ENDBRANCH  21  23
ENDBRANCH  17  21
ENDBRANCH  12  15
ENDBRANCH   1  11
BRANCH   4  25
HETATM   25  C   UNL     1      43.091 -15.116   7.563  1.00  0.00     0.409 C 
HETATM   26  F   UNL     1      43.707 -15.983   8.391  1.00  0.00    -0.169 F 
HETATM   27  F   UNL     1      43.357 -13.860   7.988  1.00  0.00    -0.169 F 
HETATM   28  F   UNL     1      41.755 -15.310   7.741  1.00  0.00    -0.169 F 
ENDBRANCH   4  25
BRANCH   6  29
HETATM   29  C   UNL     1      43.776 -18.544   3.974  1.00  0.00    -0.035 A 
HETATM   30  C   UNL     1      44.072 -19.490   4.970  1.00  0.00     0.009 A 
HETATM   31  C   UNL     1      44.220 -20.840   4.650  1.00  0.00     0.001 A 
HETATM   32  C   UNL     1      44.070 -21.264   3.331  1.00  0.00     0.000 A 
HETATM   33  C   UNL     1      43.770 -20.339   2.333  1.00  0.00     0.001 A 
HETATM   34  C   UNL     1      43.624 -18.987   2.652  1.00  0.00     0.009 A 
ENDBRANCH   6  29
TORSDOF 6
ENDMDL
MODEL 2
REMARK VINA RESULT:      -9.8      1.339      2.227
REMARK  6 active torsions:
REMARK  status: ('A' for Active; 'I' for Inactive)
REMARK    1  A    between atoms: C_2  and  O_3 
REMARK    2  A    between atoms: C_2  and  C_4 
REMARK    3  A    between atoms: C_6  and  N_7 
REMARK       I    between atoms: N_7  and  C_8 
REMARK    4  A    between atoms: C_8  and  C_9 
REMARK    5  A    between atoms: C_12  and  C_13 
REMARK    6  A    between atoms: C_18  and  C_19 
ROOT
HETATM    1  C   UNL     1      41.000 -14.398   2.572  1.00  0.00     0.096 C 
HETATM    2  C   UNL     1      41.866 -15.193   3.300  1.00  0.00     0.138 C 
HETATM    3  N   UNL     1      42.284 -14.419   4.359  1.00  0.00    -0.240 N 
HETATM    4  C   UNL     1      43.230 -14.853   5.374  1.00  0.00     0.221 C 
HETATM    5  C   UNL     1      43.407 -16.383   5.331  1.00  0.00     0.066 C 
HETATM    6  C   UNL     1      43.525 -16.864   3.880  1.00  0.00     0.118 C 
HETATM    7  N   UNL     1      42.321 -16.466   3.139  1.00  0.00    -0.365 N 
HETATM    8  N   UNL     1      41.903 -13.137   4.263  1.00  0.00    -0.181 NA
HETATM    9  C   UNL     1      41.094 -13.133   3.200  1.00  0.00     0.160 C 
HETATM   10  H   UNL     1      42.335 -16.850   2.190  1.00  0.00     0.161 HD
ENDROOT
BRANCH   1  11
HETATM   11  C   UNL     1      40.196 -14.727   1.405  1.00  0.00     0.261 C 
HETATM   12  N   UNL     1      40.068 -13.678   0.514  1.00  0.00    -0.323 N 
HETATM   13  H   UNL     1      40.618 -12.855   0.734  1.00  0.00     0.169 HD
HETATM   14  O   UNL     1      39.736 -15.854   1.266  1.00  0.00    -0.267 OA
BRANCH  12  15
HETATM   15  C   UNL     1      39.356 -13.654  -0.700  1.00  0.00     0.035 A 
HETATM   16  C   UNL     1      38.626 -12.553  -1.156  1.00  0.00     0.039 A 
HETATM   17  C   UNL     1      37.928 -12.600  -2.375  1.00  0.00    -0.028 A 
HETATM   18  C   UNL     1      37.966 -13.778  -3.134  1.00  0.00     0.010 A 
HETATM   19  C   UNL     1      38.701 -14.875  -2.695  1.00  0.00     0.003 A 
HETATM   20  C   UNL     1      39.396 -14.812  -1.486  1.00  0.00     0.029 A 
BRANCH  17  21
HETATM   21  C   UNL     1      37.124 -11.399  -2.828  1.00  0.00     0.147 C 
HETATM   22  C   UNL     1      36.751 -10.490  -1.666  1.00  0.00     0.044 C 
BRANCH  21  23
HETATM   23  O   UNL     1      35.930 -11.819  -3.487  1.00  0.00    -0.391 OA
HETATM   24  H   UNL     1      36.203 -12.214  -4.333  1.00  0.00     0.210 HD
ENDBRANCH  21  23
ENDBRANCH  17  21
ENDBRANCH  12  15
ENDBRANCH   1  11
BRANCH   4  25
HETATM   25  C   UNL     1      42.797 -14.433   6.762  1.00  0.00     0.409 C 
HETATM   26  F   UNL     1      43.262 -13.223   7.132  1.00  0.00    -0.169 F 
HETATM   27  F   UNL     1      41.452 -14.435   6.904  1.00  0.00    -0.169 F 
HETATM   28  F   UNL     1      43.284 -15.318   7.675  1.00  0.00    -0.169 F 
ENDBRANCH   4  25
BRANCH   6  29
HETATM   29  C   UNL     1      43.697 -18.367   3.793  1.00  0.00    -0.035 A 
HETATM   30  C   UNL     1      43.497 -19.057   2.585  1.00  0.00     0.009 A 
HETATM   31  C   UNL     1      43.648 -20.443   2.522  1.00  0.00     0.001 A 
HETATM   32  C   UNL     1      44.003 -21.157   3.665  1.00  0.00     0.000 A 
HETATM   33  C   UNL     1      44.210 -20.487   4.869  1.00  0.00     0.001 A 
HETATM   34  C   UNL     1      44.058 -19.100   4.933  1.00  0.00     0.009 A 
ENDBRANCH   6  29
TORSDOF 6
ENDMDL
MODEL 3
REMARK VINA RESULT:      -9.6      4.381      7.965
REMARK  6 active torsions:
REMARK  status: ('A' for Active; 'I' for Inactive)
REMARK    1  A    between atoms: C_2  and  O_3 
REMARK    2  A    between atoms: C_2  and  C_4 
REMARK    3  A    between atoms: C_6  and  N_7 
REMARK       I    between atoms: N_7  and  C_8 
REMARK    4  A    between atoms: C_8  and  C_9 
REMARK    5  A    between atoms: C_12  and  C_13 
REMARK    6  A    between atoms: C_18  and  C_19 
ROOT
HETATM    1  C   UNL     1      40.737 -12.223   4.137  1.00  0.00     0.096 C 
HETATM    2  C   UNL     1      40.890 -13.436   3.490  1.00  0.00     0.138 C 
HETATM    3  N   UNL     1      40.105 -13.361   2.361  1.00  0.00    -0.240 N 
HETATM    4  C   UNL     1      39.946 -14.435   1.395  1.00  0.00     0.221 C 
HETATM    5  C   UNL     1      41.040 -15.503   1.587  1.00  0.00     0.066 C 
HETATM    6  C   UNL     1      41.236 -15.800   3.077  1.00  0.00     0.118 C 
HETATM    7  N   UNL     1      41.602 -14.561   3.775  1.00  0.00    -0.365 N 
HETATM    8  N   UNL     1      39.321 -12.273   2.331  1.00  0.00    -0.181 NA
HETATM    9  C   UNL     1      39.731 -11.566   3.389  1.00  0.00     0.160 C 
HETATM   10  H   UNL     1      41.824 -14.748   4.757  1.00  0.00     0.161 HD
ENDROOT
BRANCH   1  11
HETATM   11  C   UNL     1      41.399 -11.717   5.329  1.00  0.00     0.261 C 
HETATM   12  N   UNL     1      42.776 -11.834   5.282  1.00  0.00    -0.323 N 
HETATM   13  H   UNL     1      43.153 -12.166   4.401  1.00  0.00     0.169 HD
HETATM   14  O   UNL     1      40.746 -11.213   6.235  1.00  0.00    -0.267 OA
BRANCH  12  15
HETATM   15  C   UNL     1      43.711 -11.455   6.264  1.00  0.00     0.035 A 
HETATM   16  C   UNL     1      43.370 -11.103   7.573  1.00  0.00     0.039 A 
HETATM   17  C   UNL     1      44.355 -10.724   8.503  1.00  0.00    -0.028 A 
HETATM   18  C   UNL     1      45.696 -10.695   8.096  1.00  0.00     0.010 A 
HETATM   19  C   UNL     1      46.047 -11.056   6.798  1.00  0.00     0.003 A 
HETATM   20  C   UNL     1      45.060 -11.438   5.888  1.00  0.00     0.029 A 
BRANCH  17  21
HETATM   21  C   UNL     1      43.950 -10.322   9.906  1.00  0.00     0.147 C 
HETATM   22  C   UNL     1      45.045  -9.538  10.613  1.00  0.00     0.044 C 
BRANCH  21  23
HETATM   23  O   UNL     1      43.635 -11.477  10.682  1.00  0.00    -0.391 OA
HETATM   24  H   UNL     1      44.476 -11.818  11.029  1.00  0.00     0.210 HD
ENDBRANCH  21  23
ENDBRANCH  17  21
ENDBRANCH  12  15
ENDBRANCH   1  11
BRANCH   4  25
HETATM   25  C   UNL     1      39.986 -13.921  -0.028  1.00  0.00     0.409 C 
HETATM   26  F   UNL     1      38.895 -13.210  -0.378  1.00  0.00    -0.169 F 
HETATM   27  F   UNL     1      41.082 -13.167  -0.273  1.00  0.00    -0.169 F 
HETATM   28  F   UNL     1      40.040 -14.974  -0.889  1.00  0.00    -0.169 F 
ENDBRANCH   4  25
BRANCH   6  29
HETATM   29  C   UNL     1      42.308 -16.846   3.311  1.00  0.00    -0.035 A 
HETATM   30  C   UNL     1      43.086 -16.847   4.481  1.00  0.00     0.009 A 
HETATM   31  C   UNL     1      44.078 -17.809   4.677  1.00  0.00     0.001 A 
HETATM   32  C   UNL     1      44.304 -18.784   3.708  1.00  0.00     0.000 A 
HETATM   33  C   UNL     1      43.537 -18.800   2.544  1.00  0.00     0.001 A 
HETATM   34  C   UNL     1      42.545 -17.837   2.346  1.00  0.00     0.009 A 
ENDBRANCH   6  29
TORSDOF 6
ENDMDL
MODEL 4
REMARK VINA RESULT:      -9.1      4.699      7.948
REMARK  6 active torsions:
REMARK  status: ('A' for Active; 'I' for Inactive)
REMARK    1  A    between atoms: C_2  and  O_3 
REMARK    2  A    between atoms: C_2  and  C_4 
REMARK    3  A    between atoms: C_6  and  N_7 
REMARK       I    between atoms: N_7  and  C_8 
REMARK    4  A    between atoms: C_8  and  C_9 
REMARK    5  A    between atoms: C_12  and  C_13 
REMARK    6  A    between atoms: C_18  and  C_19 
ROOT
HETATM    1  C   UNL     1      40.623 -12.604   4.342  1.00  0.00     0.096 C 
HETATM    2  C   UNL     1      40.830 -13.739   3.580  1.00  0.00     0.138 C 
HETATM    3  N   UNL     1      40.104 -13.553   2.424  1.00  0.00    -0.240 N 
HETATM    4  C   UNL     1      40.015 -14.520   1.343  1.00  0.00     0.221 C 
HETATM    5  C   UNL     1      41.115 -15.590   1.480  1.00  0.00     0.066 C 
HETATM    6  C   UNL     1      41.238 -16.042   2.939  1.00  0.00     0.118 C 
HETATM    7  N   UNL     1      41.545 -14.880   3.783  1.00  0.00    -0.365 N 
HETATM    8  N   UNL     1      39.304 -12.477   2.467  1.00  0.00    -0.181 NA
HETATM    9  C   UNL     1      39.646 -11.882   3.614  1.00  0.00     0.160 C 
HETATM   10  H   UNL     1      41.718 -15.167   4.750  1.00  0.00     0.161 HD
ENDROOT
BRANCH   1  11
HETATM   11  C   UNL     1      41.213 -12.219   5.615  1.00  0.00     0.261 C 
HETATM   12  N   UNL     1      41.227 -10.852   5.820  1.00  0.00    -0.323 N 
HETATM   13  H   UNL     1      40.749 -10.303   5.114  1.00  0.00     0.169 HD
HETATM   14  O   UNL     1      41.605 -13.073   6.400  1.00  0.00    -0.267 OA
BRANCH  12  15
HETATM   15  C   UNL     1      41.730 -10.148   6.932  1.00  0.00     0.035 A 
HETATM   16  C   UNL     1      43.090 -10.031   7.231  1.00  0.00     0.039 A 
HETATM   17  C   UNL     1      43.525  -9.321   8.364  1.00  0.00    -0.028 A 
HETATM   18  C   UNL     1      42.569  -8.733   9.204  1.00  0.00     0.010 A 
HETATM   19  C   UNL     1      41.213  -8.833   8.906  1.00  0.00     0.003 A 
HETATM   20  C   UNL     1      40.796  -9.534   7.774  1.00  0.00     0.029 A 
BRANCH  17  21
HETATM   21  C   UNL     1      45.005  -9.235   8.676  1.00  0.00     0.147 C 
HETATM   22  C   UNL     1      45.296  -9.518  10.142  1.00  0.00     0.044 C 
BRANCH  21  23
HETATM   23  O   UNL     1      45.508  -7.942   8.346  1.00  0.00    -0.391 OA
HETATM   24  H   UNL     1      45.875  -8.006   7.448  1.00  0.00     0.210 HD
ENDBRANCH  21  23
ENDBRANCH  17  21
ENDBRANCH  12  15
ENDBRANCH   1  11
BRANCH   4  25
HETATM   25  C   UNL     1      40.121 -13.857  -0.013  1.00  0.00     0.409 C 
HETATM   26  F   UNL     1      40.410 -14.713  -1.014  1.00  0.00    -0.169 F 
HETATM   27  F   UNL     1      38.998 -13.180  -0.344  1.00  0.00    -0.169 F 
HETATM   28  F   UNL     1      41.131 -12.945   0.006  1.00  0.00    -0.169 F 
ENDBRANCH   4  25
BRANCH   6  29
HETATM   29  C   UNL     1      42.314 -17.094   3.119  1.00  0.00    -0.035 A 
HETATM   30  C   UNL     1      42.497 -18.121   2.178  1.00  0.00     0.009 A 
HETATM   31  C   UNL     1      43.485 -19.090   2.363  1.00  0.00     0.001 A 
HETATM   32  C   UNL     1      44.304 -19.043   3.489  1.00  0.00     0.000 A 
HETATM   33  C   UNL     1      44.138 -18.027   4.429  1.00  0.00     0.001 A 
HETATM   34  C   UNL     1      43.150 -17.058   4.246  1.00  0.00     0.009 A 
ENDBRANCH   6  29
TORSDOF 6
ENDMDL
MODEL 5
REMARK VINA RESULT:      -9.1      1.996      2.467
REMARK  6 active torsions:
REMARK  status: ('A' for Active; 'I' for Inactive)
REMARK    1  A    between atoms: C_2  and  O_3 
REMARK    2  A    between atoms: C_2  and  C_4 
REMARK    3  A    between atoms: C_6  and  N_7 
REMARK       I    between atoms: N_7  and  C_8 
REMARK    4  A    between atoms: C_8  and  C_9 
REMARK    5  A    between atoms: C_12  and  C_13 
REMARK    6  A    between atoms: C_18  and  C_19 
ROOT
HETATM    1  C   UNL     1      41.962 -13.831   2.647  1.00  0.00     0.096 C 
HETATM    2  C   UNL     1      42.535 -14.829   3.414  1.00  0.00     0.138 C 
HETATM    3  N   UNL     1      42.806 -14.255   4.636  1.00  0.00    -0.240 N 
HETATM    4  C   UNL     1      43.440 -14.944   5.747  1.00  0.00     0.221 C 
HETATM    5  C   UNL     1      43.423 -16.468   5.522  1.00  0.00     0.066 C 
HETATM    6  C   UNL     1      43.794 -16.794   4.071  1.00  0.00     0.118 C 
HETATM    7  N   UNL     1      42.846 -16.132   3.167  1.00  0.00    -0.365 N 
HETATM    8  N   UNL     1      42.624 -12.926   4.650  1.00  0.00    -0.181 NA
HETATM    9  C   UNL     1      42.078 -12.675   3.457  1.00  0.00     0.160 C 
HETATM   10  H   UNL     1      43.019 -16.403   2.195  1.00  0.00     0.161 HD
ENDROOT
BRANCH   1  11
HETATM   11  C   UNL     1      41.399 -13.896   1.308  1.00  0.00     0.261 C 
HETATM   12  N   UNL     1      40.911 -12.684   0.859  1.00  0.00    -0.323 N 
HETATM   13  H   UNL     1      41.086 -11.893   1.470  1.00  0.00     0.169 HD
HETATM   14  O   UNL     1      41.421 -14.946   0.676  1.00  0.00    -0.267 OA
BRANCH  12  15
HETATM   15  C   UNL     1      40.297 -12.400  -0.376  1.00  0.00     0.035 A 
HETATM   16  C   UNL     1      40.766 -11.441  -1.278  1.00  0.00     0.039 A 
HETATM   17  C   UNL     1      40.099 -11.200  -2.493  1.00  0.00    -0.028 A 
HETATM   18  C   UNL     1      38.942 -11.934  -2.788  1.00  0.00     0.010 A 
HETATM   19  C   UNL     1      38.475 -12.901  -1.901  1.00  0.00     0.003 A 
HETATM   20  C   UNL     1      39.152 -13.135  -0.703  1.00  0.00     0.029 A 
BRANCH  17  21
HETATM   21  C   UNL     1      40.617 -10.135  -3.437  1.00  0.00     0.147 C 
HETATM   22  C   UNL     1      41.300  -8.997  -2.694  1.00  0.00     0.044 C 
BRANCH  21  23
HETATM   23  O   UNL     1      39.549  -9.602  -4.218  1.00  0.00    -0.391 OA
HETATM   24  H   UNL     1      39.088  -8.955  -3.657  1.00  0.00     0.210 HD
ENDBRANCH  21  23
ENDBRANCH  17  21
ENDBRANCH  12  15
ENDBRANCH   1  11
BRANCH   4  25
HETATM   25  C   UNL     1      42.770 -14.620   7.065  1.00  0.00     0.409 C 
HETATM   26  F   UNL     1      43.325 -13.577   7.714  1.00  0.00    -0.169 F 
HETATM   27  F   UNL     1      41.446 -14.379   6.924  1.00  0.00    -0.169 F 
HETATM   28  F   UNL     1      42.881 -15.686   7.904  1.00  0.00    -0.169 F 
ENDBRANCH   4  25
BRANCH   6  29
HETATM   29  C   UNL     1      43.786 -18.286   3.805  1.00  0.00    -0.035 A 
HETATM   30  C   UNL     1      44.114 -19.210   4.811  1.00  0.00     0.009 A 
HETATM   31  C   UNL     1      44.113 -20.581   4.548  1.00  0.00     0.001 A 
HETATM   32  C   UNL     1      43.781 -21.046   3.277  1.00  0.00     0.000 A 
HETATM   33  C   UNL     1      43.448 -20.143   2.270  1.00  0.00     0.001 A 
HETATM   34  C   UNL     1      43.449 -18.771   2.532  1.00  0.00     0.009 A 
ENDBRANCH   6  29
TORSDOF 6
ENDMDL
MODEL 6
REMARK VINA RESULT:      -8.9      3.581      8.077
REMARK  6 active torsions:
REMARK  status: ('A' for Active; 'I' for Inactive)
REMARK    1  A    between atoms: C_2  and  O_3 
REMARK    2  A    between atoms: C_2  and  C_4 
REMARK    3  A    between atoms: C_6  and  N_7 
REMARK       I    between atoms: N_7  and  C_8 
REMARK    4  A    between atoms: C_8  and  C_9 
REMARK    5  A    between atoms: C_12  and  C_13 
REMARK    6  A    between atoms: C_18  and  C_19 
ROOT
HETATM    1  C   UNL     1      42.491 -13.301   2.368  1.00  0.00     0.096 C 
HETATM    2  C   UNL     1      41.490 -12.851   1.526  1.00  0.00     0.138 C 
HETATM    3  N   UNL     1      41.334 -11.512   1.809  1.00  0.00    -0.240 N 
HETATM    4  C   UNL     1      40.362 -10.643   1.168  1.00  0.00     0.221 C 
HETATM    5  C   UNL     1      39.802 -11.302  -0.107  1.00  0.00     0.066 C 
HETATM    6  C   UNL     1      39.495 -12.781   0.150  1.00  0.00     0.118 C 
HETATM    7  N   UNL     1      40.721 -13.463   0.584  1.00  0.00    -0.365 N 
HETATM    8  N   UNL     1      42.022 -11.115   2.890  1.00  0.00    -0.181 NA
HETATM    9  C   UNL     1      42.751 -12.189   3.206  1.00  0.00     0.160 C 
HETATM   10  H   UNL     1      40.563 -14.470   0.679  1.00  0.00     0.161 HD
ENDROOT
BRANCH   1  11
HETATM   11  C   UNL     1      43.126 -14.607   2.442  1.00  0.00     0.261 C 
HETATM   12  N   UNL     1      42.796 -15.312   3.584  1.00  0.00    -0.323 N 
HETATM   13  H   UNL     1      42.093 -14.879   4.173  1.00  0.00     0.169 HD
HETATM   14  O   UNL     1      43.842 -15.001   1.530  1.00  0.00    -0.267 OA
BRANCH  12  15
HETATM   15  C   UNL     1      43.240 -16.592   3.971  1.00  0.00     0.035 A 
HETATM   16  C   UNL     1      43.354 -17.675   3.096  1.00  0.00     0.039 A 
HETATM   17  C   UNL     1      43.795 -18.931   3.550  1.00  0.00    -0.028 A 
HETATM   18  C   UNL     1      44.114 -19.088   4.906  1.00  0.00     0.010 A 
HETATM   19  C   UNL     1      44.015 -18.011   5.783  1.00  0.00     0.003 A 
HETATM   20  C   UNL     1      43.584 -16.768   5.316  1.00  0.00     0.029 A 
BRANCH  17  21
HETATM   21  C   UNL     1      43.883 -20.092   2.582  1.00  0.00     0.147 C 
HETATM   22  C   UNL     1      42.646 -20.198   1.703  1.00  0.00     0.044 C 
BRANCH  21  23
HETATM   23  O   UNL     1      44.051 -21.319   3.292  1.00  0.00    -0.391 OA
HETATM   24  H   UNL     1      43.209 -21.801   3.219  1.00  0.00     0.210 HD
ENDBRANCH  21  23
ENDBRANCH  17  21
ENDBRANCH  12  15
ENDBRANCH   1  11
BRANCH   4  25
HETATM   25  C   UNL     1      40.956  -9.295   0.822  1.00  0.00     0.409 C 
HETATM   26  F   UNL     1      40.278  -8.634  -0.138  1.00  0.00    -0.169 F 
HETATM   27  F   UNL     1      41.063  -8.486   1.901  1.00  0.00    -0.169 F 
HETATM   28  F   UNL     1      42.218  -9.466   0.340  1.00  0.00    -0.169 F 
ENDBRANCH   4  25
BRANCH   6  29
HETATM   29  C   UNL     1      38.944 -13.469  -1.083  1.00  0.00    -0.035 A 
HETATM   30  C   UNL     1      39.424 -14.724  -1.496  1.00  0.00     0.009 A 
HETATM   31  C   UNL     1      38.915 -15.340  -2.640  1.00  0.00     0.001 A 
HETATM   32  C   UNL     1      37.919 -14.712  -3.385  1.00  0.00     0.000 A 
HETATM   33  C   UNL     1      37.430 -13.470  -2.986  1.00  0.00     0.001 A 
HETATM   34  C   UNL     1      37.938 -12.852  -1.842  1.00  0.00     0.009 A 
ENDBRANCH   6  29
TORSDOF 6
ENDMDL
MODEL 7
REMARK VINA RESULT:      -8.7      4.774      7.902
REMARK  6 active torsions:
REMARK  status: ('A' for Active; 'I' for Inactive)
REMARK    1  A    between atoms: C_2  and  O_3 
REMARK    2  A    between atoms: C_2  and  C_4 
REMARK    3  A    between atoms: C_6  and  N_7 
REMARK       I    between atoms: N_7  and  C_8 
REMARK    4  A    between atoms: C_8  and  C_9 
REMARK    5  A    between atoms: C_12  and  C_13 
REMARK    6  A    between atoms: C_18  and  C_19 
ROOT
HETATM    1  C   UNL     1      40.150 -12.525   4.252  1.00  0.00     0.096 C 
HETATM    2  C   UNL     1      40.487 -13.635   3.498  1.00  0.00     0.138 C 
HETATM    3  N   UNL     1      39.850 -13.475   2.288  1.00  0.00    -0.240 N 
HETATM    4  C   UNL     1      39.909 -14.429   1.194  1.00  0.00     0.221 C 
HETATM    5  C   UNL     1      41.056 -15.434   1.411  1.00  0.00     0.066 C 
HETATM    6  C   UNL     1      41.084 -15.900   2.871  1.00  0.00     0.118 C 
HETATM    7  N   UNL     1      41.250 -14.734   3.749  1.00  0.00    -0.365 N 
HETATM    8  N   UNL     1      38.986 -12.449   2.274  1.00  0.00    -0.181 NA
HETATM    9  C   UNL     1      39.195 -11.852   3.451  1.00  0.00     0.160 C 
HETATM   10  H   UNL     1      41.359 -15.026   4.724  1.00  0.00     0.161 HD
ENDROOT
BRANCH   1  11
HETATM   11  C   UNL     1      40.607 -12.126   5.573  1.00  0.00     0.261 C 
HETATM   12  N   UNL     1      40.577 -10.758   5.773  1.00  0.00    -0.323 N 
HETATM   13  H   UNL     1      40.158 -10.220   5.021  1.00  0.00     0.169 HD
HETATM   14  O   UNL     1      40.939 -12.970   6.397  1.00  0.00    -0.267 OA
BRANCH  12  15
HETATM   15  C   UNL     1      40.958 -10.042   6.924  1.00  0.00     0.035 A 
HETATM   16  C   UNL     1      40.092  -9.743   7.980  1.00  0.00     0.039 A 
HETATM   17  C   UNL     1      40.536  -9.014   9.097  1.00  0.00    -0.028 A 
HETATM   18  C   UNL     1      41.867  -8.578   9.138  1.00  0.00     0.010 A 
HETATM   19  C   UNL     1      42.740  -8.882   8.096  1.00  0.00     0.003 A 
HETATM   20  C   UNL     1      42.288  -9.613   6.997  1.00  0.00     0.029 A 
BRANCH  17  21
HETATM   21  C   UNL     1      39.566  -8.684  10.213  1.00  0.00     0.147 C 
HETATM   22  C   UNL     1      39.939  -9.374  11.516  1.00  0.00     0.044 C 
BRANCH  21  23
HETATM   23  O   UNL     1      38.241  -9.068   9.850  1.00  0.00    -0.391 OA
HETATM   24  H   UNL     1      38.233  -9.162   8.882  1.00  0.00     0.210 HD
ENDBRANCH  21  23
ENDBRANCH  17  21
ENDBRANCH  12  15
ENDBRANCH   1  11
BRANCH   4  25
HETATM   25  C   UNL     1      40.087 -13.741  -0.143  1.00  0.00     0.409 C 
HETATM   26  F   UNL     1      38.952 -13.199  -0.628  1.00  0.00    -0.169 F 
HETATM   27  F   UNL     1      41.036 -12.778  -0.104  1.00  0.00    -0.169 F 
HETATM   28  F   UNL     1      40.496 -14.650  -1.070  1.00  0.00    -0.169 F 
ENDBRANCH   4  25
BRANCH   6  29
HETATM   29  C   UNL     1      42.203 -16.889   3.130  1.00  0.00    -0.035 A 
HETATM   30  C   UNL     1      42.477 -17.934   2.232  1.00  0.00     0.009 A 
HETATM   31  C   UNL     1      43.503 -18.845   2.490  1.00  0.00     0.001 A 
HETATM   32  C   UNL     1      44.270 -18.721   3.646  1.00  0.00     0.000 A 
HETATM   33  C   UNL     1      44.014 -17.686   4.544  1.00  0.00     0.001 A 
HETATM   34  C   UNL     1      42.987 -16.775   4.288  1.00  0.00     0.009 A 
ENDBRANCH   6  29
TORSDOF 6
ENDMDL
MODEL 8
REMARK VINA RESULT:      -8.6      2.623      4.983
REMARK  6 active torsions:
REMARK  status: ('A' for Active; 'I' for Inactive)
REMARK    1  A    between atoms: C_2  and  O_3 
REMARK    2  A    between atoms: C_2  and  C_4 
REMARK    3  A    between atoms: C_6  and  N_7 
REMARK       I    between atoms: N_7  and  C_8 
REMARK    4  A    between atoms: C_8  and  C_9 
REMARK    5  A    between atoms: C_12  and  C_13 
REMARK    6  A    between atoms: C_18  and  C_19 
ROOT
HETATM    1  C   UNL     1      41.538 -14.376   3.546  1.00  0.00     0.096 C 
HETATM    2  C   UNL     1      42.252 -14.167   4.713  1.00  0.00     0.138 C 
HETATM    3  N   UNL     1      42.331 -15.395   5.329  1.00  0.00    -0.240 N 
HETATM    4  C   UNL     1      42.980 -15.635   6.608  1.00  0.00     0.221 C 
HETATM    5  C   UNL     1      43.877 -14.443   6.992  1.00  0.00     0.066 C 
HETATM    6  C   UNL     1      43.157 -13.121   6.704  1.00  0.00     0.118 C 
HETATM    7  N   UNL     1      42.807 -13.060   5.279  1.00  0.00    -0.365 N 
HETATM    8  N   UNL     1      41.569 -16.332   4.746  1.00  0.00    -0.181 NA
HETATM    9  C   UNL     1      41.118 -15.724   3.645  1.00  0.00     0.160 C 
HETATM   10  H   UNL     1      42.403 -12.150   5.042  1.00  0.00     0.161 HD
ENDROOT
BRANCH   1  11
HETATM   11  C   UNL     1      41.230 -13.450   2.467  1.00  0.00     0.261 C 
HETATM   12  N   UNL     1      40.083 -13.783   1.772  1.00  0.00    -0.323 N 
HETATM   13  H   UNL     1      39.556 -14.561   2.153  1.00  0.00     0.169 HD
HETATM   14  O   UNL     1      41.938 -12.470   2.269  1.00  0.00    -0.267 OA
BRANCH  12  15
HETATM   15  C   UNL     1      39.510 -13.112   0.674  1.00  0.00     0.035 A 
HETATM   16  C   UNL     1      39.603 -13.557  -0.648  1.00  0.00     0.039 A 
HETATM   17  C   UNL     1      39.016 -12.834  -1.700  1.00  0.00    -0.028 A 
HETATM   18  C   UNL     1      38.335 -11.644  -1.408  1.00  0.00     0.010 A 
HETATM   19  C   UNL     1      38.226 -11.199  -0.093  1.00  0.00     0.003 A 
HETATM   20  C   UNL     1      38.807 -11.932   0.943  1.00  0.00     0.029 A 
BRANCH  17  21
HETATM   21  C   UNL     1      39.158 -13.329  -3.124  1.00  0.00     0.147 C 
HETATM   22  C   UNL     1      38.371 -14.609  -3.365  1.00  0.00     0.044 C 
BRANCH  21  23
HETATM   23  O   UNL     1      40.530 -13.565  -3.434  1.00  0.00    -0.391 OA
HETATM   24  H   UNL     1      40.725 -13.060  -4.243  1.00  0.00     0.210 HD
ENDBRANCH  21  23
ENDBRANCH  17  21
ENDBRANCH  12  15
ENDBRANCH   1  11
BRANCH   4  25
HETATM   25  C   UNL     1      43.804 -16.904   6.590  1.00  0.00     0.409 C 
HETATM   26  F   UNL     1      43.101 -18.011   6.901  1.00  0.00    -0.169 F 
HETATM   27  F   UNL     1      44.413 -17.106   5.400  1.00  0.00    -0.169 F 
HETATM   28  F   UNL     1      44.794 -16.813   7.521  1.00  0.00    -0.169 F 
ENDBRANCH   4  25
BRANCH   6  29
HETATM   29  C   UNL     1      44.009 -11.921   7.065  1.00  0.00    -0.035 A 
HETATM   30  C   UNL     1      45.373 -11.864   6.733  1.00  0.00     0.009 A 
HETATM   31  C   UNL     1      46.147 -10.757   7.084  1.00  0.00     0.001 A 
HETATM   32  C   UNL     1      45.568  -9.690   7.767  1.00  0.00     0.000 A 
HETATM   33  C   UNL     1      44.215  -9.728   8.099  1.00  0.00     0.001 A 
HETATM   34  C   UNL     1      43.439 -10.836   7.750  1.00  0.00     0.009 A 
ENDBRANCH   6  29
TORSDOF 6
ENDMDL
MODEL 9
REMARK VINA RESULT:      -8.4      4.562      8.400
REMARK  6 active torsions:
REMARK  status: ('A' for Active; 'I' for Inactive)
REMARK    1  A    between atoms: C_2  and  O_3 
REMARK    2  A    between atoms: C_2  and  C_4 
REMARK    3  A    between atoms: C_6  and  N_7 
REMARK       I    between atoms: N_7  and  C_8 
REMARK    4  A    between atoms: C_8  and  C_9 
REMARK    5  A    between atoms: C_12  and  C_13 
REMARK    6  A    between atoms: C_18  and  C_19 
ROOT
HETATM    1  C   UNL     1      43.537 -12.158   6.106  1.00  0.00     0.096 C 
HETATM    2  C   UNL     1      42.936 -11.056   6.686  1.00  0.00     0.138 C 
HETATM    3  N   UNL     1      43.779 -10.658   7.699  1.00  0.00    -0.240 N 
HETATM    4  C   UNL     1      43.523  -9.541   8.594  1.00  0.00     0.221 C 
HETATM    5  C   UNL     1      42.402  -8.645   8.034  1.00  0.00     0.066 C 
HETATM    6  C   UNL     1      41.255  -9.505   7.491  1.00  0.00     0.118 C 
HETATM    7  N   UNL     1      41.771 -10.395   6.443  1.00  0.00    -0.365 N 
HETATM    8  N   UNL     1      44.775 -11.526   7.934  1.00  0.00    -0.181 NA
HETATM    9  C   UNL     1      44.649 -12.415   6.944  1.00  0.00     0.160 C 
HETATM   10  H   UNL     1      41.009 -10.918   6.003  1.00  0.00     0.161 HD
ENDROOT
BRANCH   1  11
HETATM   11  C   UNL     1      43.137 -12.928   4.939  1.00  0.00     0.261 C 
HETATM   12  N   UNL     1      43.087 -14.290   5.173  1.00  0.00    -0.323 N 
HETATM   13  H   UNL     1      43.241 -14.570   6.136  1.00  0.00     0.169 HD
HETATM   14  O   UNL     1      42.849 -12.363   3.891  1.00  0.00    -0.267 OA
BRANCH  12  15
HETATM   15  C   UNL     1      42.749 -15.313   4.266  1.00  0.00     0.035 A 
HETATM   16  C   UNL     1      43.524 -16.457   4.056  1.00  0.00     0.039 A 
HETATM   17  C   UNL     1      43.134 -17.437   3.126  1.00  0.00    -0.028 A 
HETATM   18  C   UNL     1      41.950 -17.249   2.399  1.00  0.00     0.010 A 
HETATM   19  C   UNL     1      41.164 -16.119   2.612  1.00  0.00     0.003 A 
HETATM   20  C   UNL     1      41.560 -15.158   3.543  1.00  0.00     0.029 A 
BRANCH  17  21
HETATM   21  C   UNL     1      44.010 -18.652   2.902  1.00  0.00     0.147 C 
HETATM   22  C   UNL     1      43.275 -19.754   2.153  1.00  0.00     0.044 C 
BRANCH  21  23
HETATM   23  O   UNL     1      44.472 -19.169   4.149  1.00  0.00    -0.391 OA
HETATM   24  H   UNL     1      45.200 -19.780   3.944  1.00  0.00     0.210 HD
ENDBRANCH  21  23
ENDBRANCH  17  21
ENDBRANCH  12  15
ENDBRANCH   1  11
BRANCH   4  25
HETATM   25  C   UNL     1      44.766  -8.710   8.826  1.00  0.00     0.409 C 
HETATM   26  F   UNL     1      45.434  -9.037   9.950  1.00  0.00    -0.169 F 
HETATM   27  F   UNL     1      45.628  -8.771   7.785  1.00  0.00    -0.169 F 
HETATM   28  F   UNL     1      44.417  -7.402   8.963  1.00  0.00    -0.169 F 
ENDBRANCH   4  25
BRANCH   6  29
HETATM   29  C   UNL     1      40.130  -8.660   6.926  1.00  0.00    -0.035 A 
HETATM   30  C   UNL     1      39.807  -7.409   7.478  1.00  0.00     0.009 A 
HETATM   31  C   UNL     1      38.761  -6.648   6.955  1.00  0.00     0.001 A 
HETATM   32  C   UNL     1      38.026  -7.125   5.872  1.00  0.00     0.000 A 
HETATM   33  C   UNL     1      38.338  -8.362   5.310  1.00  0.00     0.001 A 
HETATM   34  C   UNL     1      39.384  -9.125   5.833  1.00  0.00     0.009 A 
ENDBRANCH   6  29
TORSDOF 6
ENDMDL
MODEL 10
REMARK VINA RESULT:      -8.3      6.290      8.611
REMARK  6 active torsions:
REMARK  status: ('A' for Active; 'I' for Inactive)
REMARK    1  A    between atoms: C_2  and  O_3 
REMARK    2  A    between atoms: C_2  and  C_4 
REMARK    3  A    between atoms: C_6  and  N_7 
REMARK       I    between atoms: N_7  and  C_8 
REMARK    4  A    between atoms: C_8  and  C_9 
REMARK    5  A    between atoms: C_12  and  C_13 
REMARK    6  A    between atoms: C_18  and  C_19 
ROOT
HETATM    1  C   UNL     1      40.446 -10.519  -0.961  1.00  0.00     0.096 C 
HETATM    2  C   UNL     1      40.282 -11.858  -0.658  1.00  0.00     0.138 C 
HETATM    3  N   UNL     1      39.232 -12.294  -1.435  1.00  0.00    -0.240 N 
HETATM    4  C   UNL     1      38.700 -13.646  -1.417  1.00  0.00     0.221 C 
HETATM    5  C   UNL     1      39.681 -14.606  -0.718  1.00  0.00     0.066 C 
HETATM    6  C   UNL     1      40.243 -13.959   0.553  1.00  0.00     0.118 C 
HETATM    7  N   UNL     1      40.918 -12.704   0.200  1.00  0.00    -0.365 N 
HETATM    8  N   UNL     1      38.593 -11.300  -2.069  1.00  0.00    -0.181 NA
HETATM    9  C   UNL     1      39.351 -10.230  -1.811  1.00  0.00     0.160 C 
HETATM   10  H   UNL     1      41.378 -12.295   1.018  1.00  0.00     0.161 HD
ENDROOT
BRANCH   1  11
HETATM   11  C   UNL     1      41.459  -9.580  -0.505  1.00  0.00     0.261 C 
HETATM   12  N   UNL     1      41.491  -8.410  -1.241  1.00  0.00    -0.323 N 
HETATM   13  H   UNL     1      40.757  -8.314  -1.933  1.00  0.00     0.169 HD
HETATM   14  O   UNL     1      42.158  -9.844   0.466  1.00  0.00    -0.267 OA
BRANCH  12  15
HETATM   15  C   UNL     1      42.349  -7.306  -1.074  1.00  0.00     0.035 A 
HETATM   16  C   UNL     1      42.317  -6.451   0.031  1.00  0.00     0.039 A 
HETATM   17  C   UNL     1      43.196  -5.359   0.130  1.00  0.00    -0.028 A 
HETATM   18  C   UNL     1      44.111  -5.129  -0.907  1.00  0.00     0.010 A 
HETATM   19  C   UNL     1      44.160  -5.983  -2.006  1.00  0.00     0.003 A 
HETATM   20  C   UNL     1      43.286  -7.067  -2.087  1.00  0.00     0.029 A 
BRANCH  17  21
HETATM   21  C   UNL     1      43.118  -4.436   1.328  1.00  0.00     0.147 C 
HETATM   22  C   UNL     1      43.405  -2.990   0.954  1.00  0.00     0.044 C 
BRANCH  21  23
HETATM   23  O   UNL     1      44.045  -4.846   2.333  1.00  0.00    -0.391 OA
HETATM   24  H   UNL     1      43.644  -5.605   2.789  1.00  0.00     0.210 HD
ENDBRANCH  21  23
ENDBRANCH  17  21
ENDBRANCH  12  15
ENDBRANCH   1  11
BRANCH   4  25
HETATM   25  C   UNL     1      38.406 -14.152  -2.813  1.00  0.00     0.409 C 
HETATM   26  F   UNL     1      37.177 -13.825  -3.260  1.00  0.00    -0.169 F 
HETATM   27  F   UNL     1      39.316 -13.726  -3.718  1.00  0.00    -0.169 F 
HETATM   28  F   UNL     1      38.459 -15.513  -2.821  1.00  0.00    -0.169 F 
ENDBRANCH   4  25
BRANCH   6  29
HETATM   29  C   UNL     1      41.217 -14.871   1.271  1.00  0.00    -0.035 A 
HETATM   30  C   UNL     1      42.577 -14.537   1.394  1.00  0.00     0.009 A 
HETATM   31  C   UNL     1      43.465 -15.393   2.048  1.00  0.00     0.001 A 
HETATM   32  C   UNL     1      43.006 -16.591   2.590  1.00  0.00     0.000 A 
HETATM   33  C   UNL     1      41.659 -16.934   2.482  1.00  0.00     0.001 A 
HETATM   34  C   UNL     1      40.770 -16.079   1.827  1.00  0.00     0.009 A 
ENDBRANCH   6  29
TORSDOF 6
ENDMDL
