MODEL 1
REMARK VINA RESULT:      -8.4      0.000      0.000
REMARK  8 active torsions:
REMARK  status: ('A' for Active; 'I' for Inactive)
REMARK    1  A    between atoms: C_2  and  C_3 
REMARK    2  A    between atoms: C_6  and  N_7 
REMARK    3  A    between atoms: N_7  and  S_8 
REMARK    4  A    between atoms: S_8  and  C_9 
REMARK    5  A    between atoms: C_15  and  C_16 
REMARK       I    between atoms: C_16  and  N_17 
REMARK    6  A    between atoms: N_17  and  C_18 
REMARK    7  A    between atoms: C_18  and  C_19 
REMARK    8  A    between atoms: C_19  and  O_20 
ROOT
HETATM    1  C   UNL     1      43.874 -11.146   5.568  1.00  0.00     0.081 A 
HETATM    2  C   UNL     1      43.063 -10.705   6.615  1.00  0.00     0.043 A 
HETATM    3  C   UNL     1      43.639 -10.475   7.868  1.00  0.00     0.043 A 
HETATM    4  C   UNL     1      45.018 -10.650   8.074  1.00  0.00     0.046 A 
HETATM    5  N   UNL     1      45.563 -10.435   9.345  1.00  0.00    -0.364 N 
HETATM    6  C   UNL     1      44.786  -9.953  10.369  1.00  0.00     0.109 A 
HETATM    7  C   UNL     1      43.460  -9.736  10.307  1.00  0.00     0.098 A 
HETATM    8  C   UNL     1      42.791 -10.034   9.008  1.00  0.00     0.201 A 
HETATM    9  O   UNL     1      41.576  -9.927   8.864  1.00  0.00    -0.286 OA
HETATM   10  C   UNL     1      45.812 -11.103   7.014  1.00  0.00     0.032 A 
HETATM   11  C   UNL     1      45.245 -11.343   5.757  1.00  0.00     0.027 A 
HETATM   12  H   UNL     1      46.572 -10.406   9.453  1.00  0.00     0.165 HD
ENDROOT
BRANCH   1  13
HETATM   13  S   UNL     1      43.147 -11.390   3.961  1.00  0.00     0.263 S 
HETATM   14  O   UNL     1      44.197 -11.796   3.051  1.00  0.00    -0.200 OA
HETATM   15  O   UNL     1      42.328 -10.228   3.689  1.00  0.00    -0.200 OA
BRANCH  13  16
HETATM   16  N   UNL     1      42.086 -12.673   4.224  1.00  0.00    -0.281 N 
HETATM   17  H   UNL     1      41.392 -12.468   4.941  1.00  0.00     0.179 HD
BRANCH  16  18
HETATM   18  C   UNL     1      42.567 -14.006   4.125  1.00  0.00     0.042 A 
HETATM   19  C   UNL     1      42.545 -14.662   2.897  1.00  0.00     0.030 A 
HETATM   20  C   UNL     1      43.018 -15.974   2.800  1.00  0.00     0.010 A 
HETATM   21  C   UNL     1      43.530 -16.638   3.925  1.00  0.00    -0.055 A 
HETATM   22  C   UNL     1      43.525 -15.969   5.158  1.00  0.00     0.010 A 
HETATM   23  C   UNL     1      43.042 -14.662   5.258  1.00  0.00     0.030 A 
BRANCH  21  24
HETATM   24  C   UNL     1      44.073 -18.056   3.848  1.00  0.00     0.010 C 
HETATM   25  C   UNL     1      43.451 -18.858   2.701  1.00  0.00     0.015 C 
HETATM   26  C   UNL     1      43.896 -18.783   5.182  1.00  0.00     0.015 C 
ENDBRANCH  21  24
ENDBRANCH  16  18
ENDBRANCH  13  16
ENDBRANCH   1  13
BRANCH   7  27
HETATM   27  C   UNL     1      42.765  -9.236  11.528  1.00  0.00     0.257 C 
HETATM   28  N   UNL     1      41.889 -10.113  12.111  1.00  0.00    -0.355 N 
HETATM   29  H   UNL     1      41.670 -10.984  11.625  1.00  0.00     0.162 HD
HETATM   30  O   UNL     1      42.975  -8.110  11.973  1.00  0.00    -0.267 OA
BRANCH  28  31
HETATM   31  C   UNL     1      41.092  -9.765  13.271  1.00  0.00     0.149 C 
BRANCH  31  32
HETATM   32  C   UNL     1      39.605 -10.064  13.071  1.00  0.00     0.186 C 
BRANCH  32  33
HETATM   33  O   UNL     1      39.336 -11.405  13.495  1.00  0.00    -0.394 OA
HETATM   34  C   UNL     1      38.549 -12.105  12.540  1.00  0.00     0.201 C 
ENDBRANCH  32  33
ENDBRANCH  31  32
ENDBRANCH  28  31
ENDBRANCH   7  27
TORSDOF 8
ENDMDL
MODEL 2
REMARK VINA RESULT:      -8.3      2.014      2.852
REMARK  8 active torsions:
REMARK  status: ('A' for Active; 'I' for Inactive)
REMARK    1  A    between atoms: C_2  and  C_3 
REMARK    2  A    between atoms: C_6  and  N_7 
REMARK    3  A    between atoms: N_7  and  S_8 
REMARK    4  A    between atoms: S_8  and  C_9 
REMARK    5  A    between atoms: C_15  and  C_16 
REMARK       I    between atoms: C_16  and  N_17 
REMARK    6  A    between atoms: N_17  and  C_18 
REMARK    7  A    between atoms: C_18  and  C_19 
REMARK    8  A    between atoms: C_19  and  O_20 
ROOT
HETATM    1  C   UNL     1      42.316 -11.896   3.919  1.00  0.00     0.081 A 
HETATM    2  C   UNL     1      42.870 -12.023   5.194  1.00  0.00     0.043 A 
HETATM    3  C   UNL     1      42.779 -10.948   6.084  1.00  0.00     0.043 A 
HETATM    4  C   UNL     1      42.112  -9.764   5.721  1.00  0.00     0.046 A 
HETATM    5  N   UNL     1      42.056  -8.695   6.623  1.00  0.00    -0.364 N 
HETATM    6  C   UNL     1      42.553  -8.826   7.897  1.00  0.00     0.109 A 
HETATM    7  C   UNL     1      43.205  -9.901   8.374  1.00  0.00     0.098 A 
HETATM    8  C   UNL     1      43.387 -11.047   7.437  1.00  0.00     0.201 A 
HETATM    9  O   UNL     1      44.020 -12.051   7.754  1.00  0.00    -0.286 OA
HETATM   10  C   UNL     1      41.573  -9.653   4.435  1.00  0.00     0.032 A 
HETATM   11  C   UNL     1      41.665 -10.720   3.535  1.00  0.00     0.027 A 
HETATM   12  H   UNL     1      41.444  -7.911   6.425  1.00  0.00     0.165 HD
ENDROOT
BRANCH   1  13
HETATM   13  S   UNL     1      42.390 -13.284   2.806  1.00  0.00     0.263 S 
HETATM   14  O   UNL     1      43.773 -13.485   2.432  1.00  0.00    -0.200 OA
HETATM   15  O   UNL     1      41.365 -13.076   1.806  1.00  0.00    -0.200 OA
BRANCH  13  16
HETATM   16  N   UNL     1      41.864 -14.562   3.771  1.00  0.00    -0.281 N 
HETATM   17  H   UNL     1      41.638 -14.271   4.721  1.00  0.00     0.179 HD
BRANCH  16  18
HETATM   18  C   UNL     1      42.432 -15.852   3.589  1.00  0.00     0.042 A 
HETATM   19  C   UNL     1      43.298 -16.370   4.548  1.00  0.00     0.030 A 
HETATM   20  C   UNL     1      43.858 -17.639   4.369  1.00  0.00     0.010 A 
HETATM   21  C   UNL     1      43.548 -18.407   3.236  1.00  0.00    -0.055 A 
HETATM   22  C   UNL     1      42.690 -17.860   2.270  1.00  0.00     0.010 A 
HETATM   23  C   UNL     1      42.140 -16.587   2.444  1.00  0.00     0.030 A 
BRANCH  21  24
HETATM   24  C   UNL     1      44.121 -19.798   3.023  1.00  0.00     0.010 C 
HETATM   25  C   UNL     1      43.546 -20.485   1.781  1.00  0.00     0.015 C 
HETATM   26  C   UNL     1      43.926 -20.665   4.268  1.00  0.00     0.015 C 
ENDBRANCH  21  24
ENDBRANCH  16  18
ENDBRANCH  13  16
ENDBRANCH   1  13
BRANCH   7  27
HETATM   27  C   UNL     1      43.705  -9.862   9.779  1.00  0.00     0.257 C 
HETATM   28  N   UNL     1      43.020 -10.644  10.671  1.00  0.00    -0.355 N 
HETATM   29  H   UNL     1      42.157 -11.098  10.366  1.00  0.00     0.162 HD
HETATM   30  O   UNL     1      44.669  -9.173  10.101  1.00  0.00    -0.267 OA
BRANCH  28  31
HETATM   31  C   UNL     1      43.340 -10.679  12.085  1.00  0.00     0.149 C 
BRANCH  31  32
HETATM   32  C   UNL     1      42.357  -9.866  12.928  1.00  0.00     0.186 C 
BRANCH  32  33
HETATM   33  O   UNL     1      41.083  -9.847  12.274  1.00  0.00    -0.394 OA
HETATM   34  C   UNL     1      40.066 -10.401  13.098  1.00  0.00     0.201 C 
ENDBRANCH  32  33
ENDBRANCH  31  32
ENDBRANCH  28  31
ENDBRANCH   7  27
TORSDOF 8
ENDMDL
MODEL 3
REMARK VINA RESULT:      -8.2      6.170      9.630
REMARK  8 active torsions:
REMARK  status: ('A' for Active; 'I' for Inactive)
REMARK    1  A    between atoms: C_2  and  C_3 
REMARK    2  A    between atoms: C_6  and  N_7 
REMARK    3  A    between atoms: N_7  and  S_8 
REMARK    4  A    between atoms: S_8  and  C_9 
REMARK    5  A    between atoms: C_15  and  C_16 
REMARK       I    between atoms: C_16  and  N_17 
REMARK    6  A    between atoms: N_17  and  C_18 
REMARK    7  A    between atoms: C_18  and  C_19 
REMARK    8  A    between atoms: C_19  and  O_20 
ROOT
HETATM    1  C   UNL     1      40.840 -14.341   3.166  1.00  0.00     0.081 A 
HETATM    2  C   UNL     1      40.890 -13.281   2.259  1.00  0.00     0.043 A 
HETATM    3  C   UNL     1      40.403 -13.474   0.963  1.00  0.00     0.043 A 
HETATM    4  C   UNL     1      39.840 -14.703   0.577  1.00  0.00     0.046 A 
HETATM    5  N   UNL     1      39.381 -14.875  -0.734  1.00  0.00    -0.364 N 
HETATM    6  C   UNL     1      39.378 -13.826  -1.619  1.00  0.00     0.109 A 
HETATM    7  C   UNL     1      39.878 -12.600  -1.380  1.00  0.00     0.098 A 
HETATM    8  C   UNL     1      40.471 -12.369  -0.032  1.00  0.00     0.201 A 
HETATM    9  O   UNL     1      41.008 -11.306   0.268  1.00  0.00    -0.286 OA
HETATM   10  C   UNL     1      39.809 -15.756   1.498  1.00  0.00     0.032 A 
HETATM   11  C   UNL     1      40.300 -15.576   2.796  1.00  0.00     0.027 A 
HETATM   12  H   UNL     1      38.834 -15.698  -0.964  1.00  0.00     0.165 HD
ENDROOT
BRANCH   1  13
HETATM   13  S   UNL     1      41.415 -14.077   4.830  1.00  0.00     0.263 S 
HETATM   14  O   UNL     1      40.655 -14.939   5.709  1.00  0.00    -0.200 OA
HETATM   15  O   UNL     1      41.459 -12.645   5.038  1.00  0.00    -0.200 OA
BRANCH  13  16
HETATM   16  N   UNL     1      43.016 -14.599   4.757  1.00  0.00    -0.281 N 
HETATM   17  H   UNL     1      43.656 -13.865   4.459  1.00  0.00     0.179 HD
BRANCH  16  18
HETATM   18  C   UNL     1      43.297 -15.931   4.350  1.00  0.00     0.042 A 
HETATM   19  C   UNL     1      43.510 -16.919   5.309  1.00  0.00     0.030 A 
HETATM   20  C   UNL     1      43.786 -18.229   4.908  1.00  0.00     0.010 A 
HETATM   21  C   UNL     1      43.839 -18.569   3.547  1.00  0.00    -0.055 A 
HETATM   22  C   UNL     1      43.643 -17.557   2.597  1.00  0.00     0.010 A 
HETATM   23  C   UNL     1      43.378 -16.244   2.996  1.00  0.00     0.030 A 
BRANCH  21  24
HETATM   24  C   UNL     1      44.114 -19.989   3.081  1.00  0.00     0.010 C 
HETATM   25  C   UNL     1      43.310 -20.361   1.832  1.00  0.00     0.015 C 
HETATM   26  C   UNL     1      43.868 -20.992   4.209  1.00  0.00     0.015 C 
ENDBRANCH  21  24
ENDBRANCH  16  18
ENDBRANCH  13  16
ENDBRANCH   1  13
BRANCH   7  27
HETATM   27  C   UNL     1      39.818 -11.584  -2.469  1.00  0.00     0.257 C 
HETATM   28  N   UNL     1      40.940 -10.813  -2.621  1.00  0.00    -0.355 N 
HETATM   29  H   UNL     1      41.683 -10.885  -1.925  1.00  0.00     0.162 HD
HETATM   30  O   UNL     1      38.822 -11.457  -3.178  1.00  0.00    -0.267 OA
BRANCH  28  31
HETATM   31  C   UNL     1      41.025  -9.742  -3.596  1.00  0.00     0.149 C 
BRANCH  31  32
HETATM   32  C   UNL     1      41.384  -8.398  -2.960  1.00  0.00     0.186 C 
BRANCH  32  33
HETATM   33  O   UNL     1      42.159  -8.632  -1.777  1.00  0.00    -0.394 OA
HETATM   34  C   UNL     1      43.218  -7.692  -1.655  1.00  0.00     0.201 C 
ENDBRANCH  32  33
ENDBRANCH  31  32
ENDBRANCH  28  31
ENDBRANCH   7  27
TORSDOF 8
ENDMDL
MODEL 4
REMARK VINA RESULT:      -8.2      2.620      4.305
REMARK  8 active torsions:
REMARK  status: ('A' for Active; 'I' for Inactive)
REMARK    1  A    between atoms: C_2  and  C_3 
REMARK    2  A    between atoms: C_6  and  N_7 
REMARK    3  A    between atoms: N_7  and  S_8 
REMARK    4  A    between atoms: S_8  and  C_9 
REMARK    5  A    between atoms: C_15  and  C_16 
REMARK       I    between atoms: C_16  and  N_17 
REMARK    6  A    between atoms: N_17  and  C_18 
REMARK    7  A    between atoms: C_18  and  C_19 
REMARK    8  A    between atoms: C_19  and  O_20 
ROOT
HETATM    1  C   UNL     1      40.795 -13.077   3.417  1.00  0.00     0.081 A 
HETATM    2  C   UNL     1      41.888 -12.494   4.061  1.00  0.00     0.043 A 
HETATM    3  C   UNL     1      41.659 -11.546   5.063  1.00  0.00     0.043 A 
HETATM    4  C   UNL     1      40.351 -11.203   5.448  1.00  0.00     0.046 A 
HETATM    5  N   UNL     1      40.150 -10.234   6.438  1.00  0.00    -0.364 N 
HETATM    6  C   UNL     1      41.215  -9.691   7.113  1.00  0.00     0.109 A 
HETATM    7  C   UNL     1      42.512  -9.935   6.852  1.00  0.00     0.098 A 
HETATM    8  C   UNL     1      42.806 -10.888   5.744  1.00  0.00     0.201 A 
HETATM    9  O   UNL     1      43.955 -11.134   5.386  1.00  0.00    -0.286 OA
HETATM   10  C   UNL     1      39.269 -11.791   4.782  1.00  0.00     0.032 A 
HETATM   11  C   UNL     1      39.488 -12.736   3.773  1.00  0.00     0.027 A 
HETATM   12  H   UNL     1      39.221 -10.105   6.824  1.00  0.00     0.165 HD
ENDROOT
BRANCH   1  13
HETATM   13  S   UNL     1      41.091 -14.319   2.176  1.00  0.00     0.263 S 
HETATM   14  O   UNL     1      40.890 -13.713   0.878  1.00  0.00    -0.200 OA
HETATM   15  O   UNL     1      40.350 -15.497   2.575  1.00  0.00    -0.200 OA
BRANCH  13  16
HETATM   16  N   UNL     1      42.722 -14.683   2.395  1.00  0.00    -0.281 N 
HETATM   17  H   UNL     1      43.313 -14.296   1.661  1.00  0.00     0.179 HD
BRANCH  16  18
HETATM   18  C   UNL     1      43.086 -15.940   2.948  1.00  0.00     0.042 A 
HETATM   19  C   UNL     1      43.235 -17.047   2.117  1.00  0.00     0.030 A 
HETATM   20  C   UNL     1      43.594 -18.284   2.661  1.00  0.00     0.010 A 
HETATM   21  C   UNL     1      43.819 -18.424   4.039  1.00  0.00    -0.055 A 
HETATM   22  C   UNL     1      43.644 -17.303   4.863  1.00  0.00     0.010 A 
HETATM   23  C   UNL     1      43.275 -16.069   4.321  1.00  0.00     0.030 A 
BRANCH  21  24
HETATM   24  C   UNL     1      44.232 -19.749   4.658  1.00  0.00     0.010 C 
HETATM   25  C   UNL     1      43.890 -20.944   3.764  1.00  0.00     0.015 C 
HETATM   26  C   UNL     1      43.620 -19.915   6.051  1.00  0.00     0.015 C 
ENDBRANCH  21  24
ENDBRANCH  16  18
ENDBRANCH  13  16
ENDBRANCH   1  13
BRANCH   7  27
HETATM   27  C   UNL     1      43.544  -9.234   7.668  1.00  0.00     0.257 C 
HETATM   28  N   UNL     1      44.576 -10.017   8.115  1.00  0.00    -0.355 N 
HETATM   29  H   UNL     1      44.521 -11.027   7.979  1.00  0.00     0.162 HD
HETATM   30  O   UNL     1      43.465  -8.033   7.915  1.00  0.00    -0.267 OA
BRANCH  28  31
HETATM   31  C   UNL     1      45.633  -9.504   8.966  1.00  0.00     0.149 C 
BRANCH  31  32
HETATM   32  C   UNL     1      45.346  -9.723  10.453  1.00  0.00     0.186 C 
BRANCH  32  33
HETATM   33  O   UNL     1      44.544 -10.901  10.606  1.00  0.00    -0.394 OA
HETATM   34  C   UNL     1      43.586 -10.747  11.645  1.00  0.00     0.201 C 
ENDBRANCH  32  33
ENDBRANCH  31  32
ENDBRANCH  28  31
ENDBRANCH   7  27
TORSDOF 8
ENDMDL
MODEL 5
REMARK VINA RESULT:      -8.2      6.485     10.232
REMARK  8 active torsions:
REMARK  status: ('A' for Active; 'I' for Inactive)
REMARK    1  A    between atoms: C_2  and  C_3 
REMARK    2  A    between atoms: C_6  and  N_7 
REMARK    3  A    between atoms: N_7  and  S_8 
REMARK    4  A    between atoms: S_8  and  C_9 
REMARK    5  A    between atoms: C_15  and  C_16 
REMARK       I    between atoms: C_16  and  N_17 
REMARK    6  A    between atoms: N_17  and  C_18 
REMARK    7  A    between atoms: C_18  and  C_19 
REMARK    8  A    between atoms: C_19  and  O_20 
ROOT
HETATM    1  C   UNL     1      40.870 -13.822   1.548  1.00  0.00     0.081 A 
HETATM    2  C   UNL     1      41.195 -12.587   0.985  1.00  0.00     0.043 A 
HETATM    3  C   UNL     1      40.841 -12.332  -0.344  1.00  0.00     0.043 A 
HETATM    4  C   UNL     1      40.140 -13.287  -1.101  1.00  0.00     0.046 A 
HETATM    5  N   UNL     1      39.819 -13.015  -2.435  1.00  0.00    -0.364 N 
HETATM    6  C   UNL     1      40.087 -11.786  -2.985  1.00  0.00     0.109 A 
HETATM    7  C   UNL     1      40.744 -10.784  -2.373  1.00  0.00     0.098 A 
HETATM    8  C   UNL     1      41.201 -11.035  -0.976  1.00  0.00     0.201 A 
HETATM    9  O   UNL     1      41.860 -10.210  -0.350  1.00  0.00    -0.286 OA
HETATM   10  C   UNL     1      39.834 -14.524  -0.521  1.00  0.00     0.032 A 
HETATM   11  C   UNL     1      40.189 -14.791   0.806  1.00  0.00     0.027 A 
HETATM   12  H   UNL     1      39.179 -13.631  -2.927  1.00  0.00     0.165 HD
ENDROOT
BRANCH   1  13
HETATM   13  S   UNL     1      41.278 -14.124   3.255  1.00  0.00     0.263 S 
HETATM   14  O   UNL     1      40.463 -15.224   3.722  1.00  0.00    -0.200 OA
HETATM   15  O   UNL     1      41.262 -12.841   3.924  1.00  0.00    -0.200 OA
BRANCH  13  16
HETATM   16  N   UNL     1      42.893 -14.600   3.172  1.00  0.00    -0.281 N 
HETATM   17  H   UNL     1      43.406 -14.124   2.432  1.00  0.00     0.179 HD
BRANCH  16  18
HETATM   18  C   UNL     1      43.237 -15.948   3.458  1.00  0.00     0.042 A 
HETATM   19  C   UNL     1      43.180 -16.907   2.450  1.00  0.00     0.030 A 
HETATM   20  C   UNL     1      43.518 -18.234   2.731  1.00  0.00     0.010 A 
HETATM   21  C   UNL     1      43.928 -18.614   4.018  1.00  0.00    -0.055 A 
HETATM   22  C   UNL     1      43.959 -17.639   5.025  1.00  0.00     0.010 A 
HETATM   23  C   UNL     1      43.611 -16.315   4.748  1.00  0.00     0.030 A 
BRANCH  21  24
HETATM   24  C   UNL     1      44.324 -20.043   4.349  1.00  0.00     0.010 C 
HETATM   25  C   UNL     1      43.878 -21.038   3.274  1.00  0.00     0.015 C 
HETATM   26  C   UNL     1      43.793 -20.452   5.725  1.00  0.00     0.015 C 
ENDBRANCH  21  24
ENDBRANCH  16  18
ENDBRANCH  13  16
ENDBRANCH   1  13
BRANCH   7  27
HETATM   27  C   UNL     1      40.975  -9.520  -3.130  1.00  0.00     0.257 C 
HETATM   28  N   UNL     1      41.168  -8.400  -2.365  1.00  0.00    -0.355 N 
HETATM   29  H   UNL     1      41.024  -8.463  -1.356  1.00  0.00     0.162 HD
HETATM   30  O   UNL     1      40.990  -9.498  -4.358  1.00  0.00    -0.267 OA
BRANCH  28  31
HETATM   31  C   UNL     1      41.352  -7.082  -2.943  1.00  0.00     0.149 C 
BRANCH  31  32
HETATM   32  C   UNL     1      42.827  -6.711  -3.098  1.00  0.00     0.186 C 
BRANCH  32  33
HETATM   33  O   UNL     1      43.241  -6.983  -4.442  1.00  0.00    -0.394 OA
HETATM   34  C   UNL     1      42.518  -6.196  -5.379  1.00  0.00     0.201 C 
ENDBRANCH  32  33
ENDBRANCH  31  32
ENDBRANCH  28  31
ENDBRANCH   7  27
TORSDOF 8
ENDMDL
MODEL 6
REMARK VINA RESULT:      -8.2      2.830      4.956
REMARK  8 active torsions:
REMARK  status: ('A' for Active; 'I' for Inactive)
REMARK    1  A    between atoms: C_2  and  C_3 
REMARK    2  A    between atoms: C_6  and  N_7 
REMARK    3  A    between atoms: N_7  and  S_8 
REMARK    4  A    between atoms: S_8  and  C_9 
REMARK    5  A    between atoms: C_15  and  C_16 
REMARK       I    between atoms: C_16  and  N_17 
REMARK    6  A    between atoms: N_17  and  C_18 
REMARK    7  A    between atoms: C_18  and  C_19 
REMARK    8  A    between atoms: C_19  and  O_20 
ROOT
HETATM    1  C   UNL     1      40.281 -12.428   2.131  1.00  0.00     0.081 A 
HETATM    2  C   UNL     1      41.577 -12.113   2.545  1.00  0.00     0.043 A 
HETATM    3  C   UNL     1      41.814 -11.865   3.900  1.00  0.00     0.043 A 
HETATM    4  C   UNL     1      40.778 -11.960   4.845  1.00  0.00     0.046 A 
HETATM    5  N   UNL     1      41.039 -11.683   6.192  1.00  0.00    -0.364 N 
HETATM    6  C   UNL     1      42.318 -11.422   6.619  1.00  0.00     0.109 A 
HETATM    7  C   UNL     1      43.398 -11.309   5.825  1.00  0.00     0.098 A 
HETATM    8  C   UNL     1      43.180 -11.498   4.362  1.00  0.00     0.201 A 
HETATM    9  O   UNL     1      44.086 -11.357   3.546  1.00  0.00    -0.286 OA
HETATM   10  C   UNL     1      39.484 -12.266   4.408  1.00  0.00     0.032 A 
HETATM   11  C   UNL     1      39.234 -12.510   3.053  1.00  0.00     0.027 A 
HETATM   12  H   UNL     1      40.337 -11.906   6.889  1.00  0.00     0.165 HD
ENDROOT
BRANCH   1  13
HETATM   13  S   UNL     1      39.992 -12.793   0.412  1.00  0.00     0.263 S 
HETATM   14  O   UNL     1      41.131 -12.321  -0.345  1.00  0.00    -0.200 OA
HETATM   15  O   UNL     1      38.650 -12.343   0.107  1.00  0.00    -0.200 OA
BRANCH  13  16
HETATM   16  N   UNL     1      39.947 -14.478   0.392  1.00  0.00    -0.281 N 
HETATM   17  H   UNL     1      39.002 -14.845   0.296  1.00  0.00     0.179 HD
BRANCH  16  18
HETATM   18  C   UNL     1      40.866 -15.208   1.192  1.00  0.00     0.042 A 
HETATM   19  C   UNL     1      42.212 -15.254   0.836  1.00  0.00     0.030 A 
HETATM   20  C   UNL     1      43.116 -15.973   1.623  1.00  0.00     0.010 A 
HETATM   21  C   UNL     1      42.688 -16.641   2.781  1.00  0.00    -0.055 A 
HETATM   22  C   UNL     1      41.326 -16.601   3.112  1.00  0.00     0.010 A 
HETATM   23  C   UNL     1      40.420 -15.892   2.319  1.00  0.00     0.030 A 
BRANCH  21  24
HETATM   24  C   UNL     1      43.651 -17.412   3.669  1.00  0.00     0.010 C 
HETATM   25  C   UNL     1      43.903 -18.835   3.164  1.00  0.00     0.015 C 
HETATM   26  C   UNL     1      43.163 -17.425   5.120  1.00  0.00     0.015 C 
ENDBRANCH  21  24
ENDBRANCH  16  18
ENDBRANCH  13  16
ENDBRANCH   1  13
BRANCH   7  27
HETATM   27  C   UNL     1      44.712 -10.992   6.455  1.00  0.00     0.257 C 
HETATM   28  N   UNL     1      44.649 -10.298   7.635  1.00  0.00    -0.355 N 
HETATM   29  H   UNL     1      43.746  -9.937   7.945  1.00  0.00     0.162 HD
HETATM   30  O   UNL     1      45.773 -11.338   5.942  1.00  0.00    -0.267 OA
BRANCH  28  31
HETATM   31  C   UNL     1      45.834  -9.863   8.349  1.00  0.00     0.149 C 
BRANCH  31  32
HETATM   32  C   UNL     1      45.552  -9.559   9.821  1.00  0.00     0.186 C 
BRANCH  32  33
HETATM   33  O   UNL     1      45.039 -10.737  10.454  1.00  0.00    -0.394 OA
HETATM   34  C   UNL     1      43.869 -10.455  11.210  1.00  0.00     0.201 C 
ENDBRANCH  32  33
ENDBRANCH  31  32
ENDBRANCH  28  31
ENDBRANCH   7  27
TORSDOF 8
ENDMDL
MODEL 7
REMARK VINA RESULT:      -8.1      1.066      1.624
REMARK  8 active torsions:
REMARK  status: ('A' for Active; 'I' for Inactive)
REMARK    1  A    between atoms: C_2  and  C_3 
REMARK    2  A    between atoms: C_6  and  N_7 
REMARK    3  A    between atoms: N_7  and  S_8 
REMARK    4  A    between atoms: S_8  and  C_9 
REMARK    5  A    between atoms: C_15  and  C_16 
REMARK       I    between atoms: C_16  and  N_17 
REMARK    6  A    between atoms: N_17  and  C_18 
REMARK    7  A    between atoms: C_18  and  C_19 
REMARK    8  A    between atoms: C_19  and  O_20 
ROOT
HETATM    1  C   UNL     1      43.738 -11.148   5.566  1.00  0.00     0.081 A 
HETATM    2  C   UNL     1      42.964 -10.529   6.551  1.00  0.00     0.043 A 
HETATM    3  C   UNL     1      43.537 -10.271   7.800  1.00  0.00     0.043 A 
HETATM    4  C   UNL     1      44.879 -10.596   8.062  1.00  0.00     0.046 A 
HETATM    5  N   UNL     1      45.418 -10.348   9.329  1.00  0.00    -0.364 N 
HETATM    6  C   UNL     1      44.685  -9.694  10.288  1.00  0.00     0.109 A 
HETATM    7  C   UNL     1      43.398  -9.322  10.168  1.00  0.00     0.098 A 
HETATM    8  C   UNL     1      42.725  -9.639   8.875  1.00  0.00     0.201 A 
HETATM    9  O   UNL     1      41.537  -9.397   8.684  1.00  0.00    -0.286 OA
HETATM   10  C   UNL     1      45.633 -11.226   7.066  1.00  0.00     0.032 A 
HETATM   11  C   UNL     1      45.069 -11.495   5.814  1.00  0.00     0.027 A 
HETATM   12  H   UNL     1      46.420 -10.433   9.467  1.00  0.00     0.165 HD
ENDROOT
BRANCH   1  13
HETATM   13  S   UNL     1      43.022 -11.430   3.961  1.00  0.00     0.263 S 
HETATM   14  O   UNL     1      44.084 -11.819   3.058  1.00  0.00    -0.200 OA
HETATM   15  O   UNL     1      42.173 -10.293   3.673  1.00  0.00    -0.200 OA
BRANCH  13  16
HETATM   16  N   UNL     1      41.994 -12.737   4.236  1.00  0.00    -0.281 N 
HETATM   17  H   UNL     1      41.361 -12.581   5.018  1.00  0.00     0.179 HD
BRANCH  16  18
HETATM   18  C   UNL     1      42.474 -14.057   4.022  1.00  0.00     0.042 A 
HETATM   19  C   UNL     1      43.087 -14.750   5.063  1.00  0.00     0.030 A 
HETATM   20  C   UNL     1      43.560 -16.048   4.853  1.00  0.00     0.010 A 
HETATM   21  C   UNL     1      43.414 -16.672   3.604  1.00  0.00    -0.055 A 
HETATM   22  C   UNL     1      42.813 -15.952   2.562  1.00  0.00     0.010 A 
HETATM   23  C   UNL     1      42.351 -14.650   2.768  1.00  0.00     0.030 A 
BRANCH  21  24
HETATM   24  C   UNL     1      43.897 -18.091   3.351  1.00  0.00     0.010 C 
HETATM   25  C   UNL     1      43.045 -18.822   2.310  1.00  0.00     0.015 C 
HETATM   26  C   UNL     1      43.967 -18.885   4.656  1.00  0.00     0.015 C 
ENDBRANCH  21  24
ENDBRANCH  16  18
ENDBRANCH  13  16
ENDBRANCH   1  13
BRANCH   7  27
HETATM   27  C   UNL     1      42.744  -8.644  11.323  1.00  0.00     0.257 C 
HETATM   28  N   UNL     1      41.455  -9.030  11.583  1.00  0.00    -0.355 N 
HETATM   29  H   UNL     1      40.983  -9.645  10.918  1.00  0.00     0.162 HD
HETATM   30  O   UNL     1      43.333  -7.799  11.993  1.00  0.00    -0.267 OA
BRANCH  28  31
HETATM   31  C   UNL     1      40.657  -8.430  12.636  1.00  0.00     0.149 C 
BRANCH  31  32
HETATM   32  C   UNL     1      40.622  -9.286  13.903  1.00  0.00     0.186 C 
BRANCH  32  33
HETATM   33  O   UNL     1      41.773  -8.988  14.702  1.00  0.00    -0.394 OA
HETATM   34  C   UNL     1      41.546  -7.864  15.543  1.00  0.00     0.201 C 
ENDBRANCH  32  33
ENDBRANCH  31  32
ENDBRANCH  28  31
ENDBRANCH   7  27
TORSDOF 8
ENDMDL
MODEL 8
REMARK VINA RESULT:      -8.1      2.261      3.219
REMARK  8 active torsions:
REMARK  status: ('A' for Active; 'I' for Inactive)
REMARK    1  A    between atoms: C_2  and  C_3 
REMARK    2  A    between atoms: C_6  and  N_7 
REMARK    3  A    between atoms: N_7  and  S_8 
REMARK    4  A    between atoms: S_8  and  C_9 
REMARK    5  A    between atoms: C_15  and  C_16 
REMARK       I    between atoms: C_16  and  N_17 
REMARK    6  A    between atoms: N_17  and  C_18 
REMARK    7  A    between atoms: C_18  and  C_19 
REMARK    8  A    between atoms: C_19  and  O_20 
ROOT
HETATM    1  C   UNL     1      41.145 -12.594   3.087  1.00  0.00     0.081 A 
HETATM    2  C   UNL     1      41.001 -11.950   4.317  1.00  0.00     0.043 A 
HETATM    3  C   UNL     1      42.147 -11.554   5.014  1.00  0.00     0.043 A 
HETATM    4  C   UNL     1      43.429 -11.768   4.478  1.00  0.00     0.046 A 
HETATM    5  N   UNL     1      44.559 -11.383   5.208  1.00  0.00    -0.364 N 
HETATM    6  C   UNL     1      44.430 -10.703   6.393  1.00  0.00     0.109 A 
HETATM    7  C   UNL     1      43.268 -10.428   7.013  1.00  0.00     0.098 A 
HETATM    8  C   UNL     1      42.022 -10.893   6.340  1.00  0.00     0.201 A 
HETATM    9  O   UNL     1      40.915 -10.745   6.850  1.00  0.00    -0.286 OA
HETATM   10  C   UNL     1      43.551 -12.426   3.249  1.00  0.00     0.032 A 
HETATM   11  C   UNL     1      42.411 -12.831   2.546  1.00  0.00     0.027 A 
HETATM   12  H   UNL     1      45.467 -11.391   4.755  1.00  0.00     0.165 HD
ENDROOT
BRANCH   1  13
HETATM   13  S   UNL     1      39.683 -13.052   2.179  1.00  0.00     0.263 S 
HETATM   14  O   UNL     1      40.017 -13.072   0.772  1.00  0.00    -0.200 OA
HETATM   15  O   UNL     1      38.601 -12.231   2.682  1.00  0.00    -0.200 OA
BRANCH  13  16
HETATM   16  N   UNL     1      39.384 -14.620   2.722  1.00  0.00    -0.281 N 
HETATM   17  H   UNL     1      38.562 -14.679   3.320  1.00  0.00     0.179 HD
BRANCH  16  18
HETATM   18  C   UNL     1      40.479 -15.477   3.011  1.00  0.00     0.042 A 
HETATM   19  C   UNL     1      41.163 -16.103   1.972  1.00  0.00     0.030 A 
HETATM   20  C   UNL     1      42.241 -16.947   2.256  1.00  0.00     0.010 A 
HETATM   21  C   UNL     1      42.654 -17.163   3.580  1.00  0.00    -0.055 A 
HETATM   22  C   UNL     1      41.941 -16.540   4.614  1.00  0.00     0.010 A 
HETATM   23  C   UNL     1      40.856 -15.706   4.331  1.00  0.00     0.030 A 
BRANCH  21  24
HETATM   24  C   UNL     1      43.836 -18.056   3.920  1.00  0.00     0.010 C 
HETATM   25  C   UNL     1      43.932 -19.275   2.999  1.00  0.00     0.015 C 
HETATM   26  C   UNL     1      43.794 -18.483   5.389  1.00  0.00     0.015 C 
ENDBRANCH  21  24
ENDBRANCH  16  18
ENDBRANCH  13  16
ENDBRANCH   1  13
BRANCH   7  27
HETATM   27  C   UNL     1      43.313  -9.704   8.316  1.00  0.00     0.257 C 
HETATM   28  N   UNL     1      42.903 -10.423   9.407  1.00  0.00    -0.355 N 
HETATM   29  H   UNL     1      42.483 -11.342   9.260  1.00  0.00     0.162 HD
HETATM   30  O   UNL     1      43.697  -8.539   8.393  1.00  0.00    -0.267 OA
BRANCH  28  31
HETATM   31  C   UNL     1      42.833  -9.851  10.738  1.00  0.00     0.149 C 
BRANCH  31  32
HETATM   32  C   UNL     1      41.426  -9.367  11.094  1.00  0.00     0.186 C 
BRANCH  32  33
HETATM   33  O   UNL     1      40.928 -10.138  12.193  1.00  0.00    -0.394 OA
HETATM   34  C   UNL     1      39.717  -9.598  12.703  1.00  0.00     0.201 C 
ENDBRANCH  32  33
ENDBRANCH  31  32
ENDBRANCH  28  31
ENDBRANCH   7  27
TORSDOF 8
ENDMDL
MODEL 9
REMARK VINA RESULT:      -8.0      2.829      3.543
REMARK  8 active torsions:
REMARK  status: ('A' for Active; 'I' for Inactive)
REMARK    1  A    between atoms: C_2  and  C_3 
REMARK    2  A    between atoms: C_6  and  N_7 
REMARK    3  A    between atoms: N_7  and  S_8 
REMARK    4  A    between atoms: S_8  and  C_9 
REMARK    5  A    between atoms: C_15  and  C_16 
REMARK       I    between atoms: C_16  and  N_17 
REMARK    6  A    between atoms: N_17  and  C_18 
REMARK    7  A    between atoms: C_18  and  C_19 
REMARK    8  A    between atoms: C_19  and  O_20 
ROOT
HETATM    1  C   UNL     1      40.354 -12.048   3.396  1.00  0.00     0.081 A 
HETATM    2  C   UNL     1      39.625 -11.705   4.536  1.00  0.00     0.043 A 
HETATM    3  C   UNL     1      40.266 -11.014   5.569  1.00  0.00     0.043 A 
HETATM    4  C   UNL     1      41.615 -10.636   5.457  1.00  0.00     0.046 A 
HETATM    5  N   UNL     1      42.238  -9.965   6.516  1.00  0.00    -0.364 N 
HETATM    6  C   UNL     1      41.520  -9.578   7.620  1.00  0.00     0.109 A 
HETATM    7  C   UNL     1      40.226  -9.867   7.851  1.00  0.00     0.098 A 
HETATM    8  C   UNL     1      39.519 -10.663   6.807  1.00  0.00     0.201 A 
HETATM    9  O   UNL     1      38.356 -11.030   6.947  1.00  0.00    -0.286 OA
HETATM   10  C   UNL     1      42.331 -10.999   4.311  1.00  0.00     0.032 A 
HETATM   11  C   UNL     1      41.701 -11.696   3.274  1.00  0.00     0.027 A 
HETATM   12  H   UNL     1      43.155  -9.555   6.372  1.00  0.00     0.165 HD
ENDROOT
BRANCH   1  13
HETATM   13  S   UNL     1      39.522 -12.884   2.062  1.00  0.00     0.263 S 
HETATM   14  O   UNL     1      40.434 -12.959   0.942  1.00  0.00    -0.200 OA
HETATM   15  O   UNL     1      38.219 -12.268   1.927  1.00  0.00    -0.200 OA
BRANCH  13  16
HETATM   16  N   UNL     1      39.259 -14.424   2.695  1.00  0.00    -0.281 N 
HETATM   17  H   UNL     1      38.475 -14.454   3.343  1.00  0.00     0.179 HD
BRANCH  16  18
HETATM   18  C   UNL     1      40.372 -15.267   2.957  1.00  0.00     0.042 A 
HETATM   19  C   UNL     1      40.795 -15.470   4.269  1.00  0.00     0.030 A 
HETATM   20  C   UNL     1      41.890 -16.300   4.527  1.00  0.00     0.010 A 
HETATM   21  C   UNL     1      42.566 -16.944   3.480  1.00  0.00    -0.055 A 
HETATM   22  C   UNL     1      42.139 -16.712   2.164  1.00  0.00     0.010 A 
HETATM   23  C   UNL     1      41.052 -15.874   1.904  1.00  0.00     0.030 A 
BRANCH  21  24
HETATM   24  C   UNL     1      43.745 -17.870   3.730  1.00  0.00     0.010 C 
HETATM   25  C   UNL     1      43.762 -19.068   2.777  1.00  0.00     0.015 C 
HETATM   26  C   UNL     1      43.777 -18.331   5.189  1.00  0.00     0.015 C 
ENDBRANCH  21  24
ENDBRANCH  16  18
ENDBRANCH  13  16
ENDBRANCH   1  13
BRANCH   7  27
HETATM   27  C   UNL     1      39.608  -9.390   9.121  1.00  0.00     0.257 C 
HETATM   28  N   UNL     1      40.320  -9.657  10.261  1.00  0.00    -0.355 N 
HETATM   29  H   UNL     1      41.142 -10.258  10.197  1.00  0.00     0.162 HD
HETATM   30  O   UNL     1      38.533  -8.795   9.131  1.00  0.00    -0.267 OA
BRANCH  28  31
HETATM   31  C   UNL     1      39.834  -9.311  11.583  1.00  0.00     0.149 C 
BRANCH  31  32
HETATM   32  C   UNL     1      39.375 -10.535  12.378  1.00  0.00     0.186 C 
BRANCH  32  33
HETATM   33  O   UNL     1      40.155 -10.636  13.576  1.00  0.00    -0.394 OA
HETATM   34  C   UNL     1      40.814  -9.412  13.872  1.00  0.00     0.201 C 
ENDBRANCH  32  33
ENDBRANCH  31  32
ENDBRANCH  28  31
ENDBRANCH   7  27
TORSDOF 8
ENDMDL
MODEL 10
REMARK VINA RESULT:      -7.6      3.049      4.885
REMARK  8 active torsions:
REMARK  status: ('A' for Active; 'I' for Inactive)
REMARK    1  A    between atoms: C_2  and  C_3 
REMARK    2  A    between atoms: C_6  and  N_7 
REMARK    3  A    between atoms: N_7  and  S_8 
REMARK    4  A    between atoms: S_8  and  C_9 
REMARK    5  A    between atoms: C_15  and  C_16 
REMARK       I    between atoms: C_16  and  N_17 
REMARK    6  A    between atoms: N_17  and  C_18 
REMARK    7  A    between atoms: C_18  and  C_19 
REMARK    8  A    between atoms: C_19  and  O_20 
ROOT
HETATM    1  C   UNL     1      41.171 -13.110   1.834  1.00  0.00     0.081 A 
HETATM    2  C   UNL     1      41.221 -12.960   3.222  1.00  0.00     0.043 A 
HETATM    3  C   UNL     1      41.361 -11.677   3.760  1.00  0.00     0.043 A 
HETATM    4  C   UNL     1      41.419 -10.546   2.927  1.00  0.00     0.046 A 
HETATM    5  N   UNL     1      41.584  -9.276   3.493  1.00  0.00    -0.364 N 
HETATM    6  C   UNL     1      41.583  -9.109   4.855  1.00  0.00     0.109 A 
HETATM    7  C   UNL     1      41.529 -10.101   5.763  1.00  0.00     0.098 A 
HETATM    8  C   UNL     1      41.447 -11.492   5.234  1.00  0.00     0.201 A 
HETATM    9  O   UNL     1      41.453 -12.471   5.975  1.00  0.00    -0.286 OA
HETATM   10  C   UNL     1      41.378 -10.719   1.540  1.00  0.00     0.032 A 
HETATM   11  C   UNL     1      41.244 -11.999   0.990  1.00  0.00     0.027 A 
HETATM   12  H   UNL     1      41.465  -8.455   2.909  1.00  0.00     0.165 HD
ENDROOT
BRANCH   1  13
HETATM   13  S   UNL     1      40.942 -14.740   1.154  1.00  0.00     0.263 S 
HETATM   14  O   UNL     1      40.448 -14.595  -0.199  1.00  0.00    -0.200 OA
HETATM   15  O   UNL     1      40.213 -15.509   2.140  1.00  0.00    -0.200 OA
BRANCH  13  16
HETATM   16  N   UNL     1      42.510 -15.357   1.130  1.00  0.00    -0.281 N 
HETATM   17  H   UNL     1      42.863 -15.498   0.185  1.00  0.00     0.179 HD
BRANCH  16  18
HETATM   18  C   UNL     1      42.911 -16.279   2.134  1.00  0.00     0.042 A 
HETATM   19  C   UNL     1      42.970 -17.639   1.842  1.00  0.00     0.030 A 
HETATM   20  C   UNL     1      43.363 -18.547   2.830  1.00  0.00     0.010 A 
HETATM   21  C   UNL     1      43.714 -18.104   4.114  1.00  0.00    -0.055 A 
HETATM   22  C   UNL     1      43.628 -16.733   4.396  1.00  0.00     0.010 A 
HETATM   23  C   UNL     1      43.224 -15.826   3.413  1.00  0.00     0.030 A 
BRANCH  21  24
HETATM   24  C   UNL     1      44.167 -19.063   5.202  1.00  0.00     0.010 C 
HETATM   25  C   UNL     1      44.080 -20.528   4.765  1.00  0.00     0.015 C 
HETATM   26  C   UNL     1      43.383 -18.831   6.496  1.00  0.00     0.015 C 
ENDBRANCH  21  24
ENDBRANCH  16  18
ENDBRANCH  13  16
ENDBRANCH   1  13
BRANCH   7  27
HETATM   27  C   UNL     1      41.568  -9.741   7.209  1.00  0.00     0.257 C 
HETATM   28  N   UNL     1      42.799  -9.395   7.699  1.00  0.00    -0.355 N 
HETATM   29  H   UNL     1      43.618  -9.520   7.102  1.00  0.00     0.162 HD
HETATM   30  O   UNL     1      40.555  -9.756   7.905  1.00  0.00    -0.267 OA
BRANCH  28  31
HETATM   31  C   UNL     1      43.022  -9.072   9.096  1.00  0.00     0.149 C 
BRANCH  31  32
HETATM   32  C   UNL     1      44.001 -10.034   9.771  1.00  0.00     0.186 C 
BRANCH  32  33
HETATM   33  O   UNL     1      44.437 -11.007   8.814  1.00  0.00    -0.394 OA
HETATM   34  C   UNL     1      45.729 -10.698   8.308  1.00  0.00     0.201 C 
ENDBRANCH  32  33
ENDBRANCH  31  32
ENDBRANCH  28  31
ENDBRANCH   7  27
TORSDOF 8
ENDMDL
