MODEL 1
REMARK VINA RESULT:     -10.5      0.000      0.000
REMARK  4 active torsions:
REMARK  status: ('A' for Active; 'I' for Inactive)
REMARK    1  A    between atoms: C_4  and  C_5 
REMARK    2  A    between atoms: N_8  and  C_9 
REMARK    3  A    between atoms: C_12  and  C_13 
REMARK       I    between atoms: C_13  and  N_14 
REMARK    4  A    between atoms: N_14  and  N_15 
ROOT
HETATM    1  C   UNL     1      43.200 -12.573   4.747  1.00  0.00     0.034 A 
HETATM    2  C   UNL     1      43.558 -13.384   5.830  1.00  0.00     0.030 A 
HETATM    3  C   UNL     1      43.875 -12.835   7.085  1.00  0.00     0.019 A 
HETATM    4  C   UNL     1      43.845 -11.450   7.273  1.00  0.00     0.033 A 
HETATM    5  C   UNL     1      43.506 -10.627   6.195  1.00  0.00     0.019 A 
HETATM    6  C   UNL     1      43.198 -11.183   4.950  1.00  0.00     0.030 A 
ENDROOT
BRANCH   4   7
HETATM    7  C   UNL     1      44.098 -10.792   8.587  1.00  0.00     0.271 C 
HETATM    8  N   UNL     1      43.011 -10.195   9.206  1.00  0.00    -0.242 N 
HETATM    9  H   UNL     1      42.065 -10.276   8.834  1.00  0.00     0.192 HD
HETATM   10  O   UNL     1      45.234 -10.830   9.057  1.00  0.00    -0.266 OA
BRANCH   8  11
HETATM   11  N   UNL     1      43.199  -9.576  10.411  1.00  0.00    -0.166 NA
HETATM   12  C   UNL     1      42.149  -9.135  11.024  1.00  0.00     0.157 A 
HETATM   13  C   UNL     1      40.685  -9.207  10.593  1.00  0.00     0.277 A 
HETATM   14  C   UNL     1      42.154  -8.452  12.313  1.00  0.00     0.027 A 
HETATM   15  O   UNL     1      40.291  -9.705   9.558  1.00  0.00    -0.266 OA
HETATM   16  N   UNL     1      39.969  -8.603  11.606  1.00  0.00    -0.321 N 
HETATM   17  C   UNL     1      40.825  -8.160  12.613  1.00  0.00     0.048 A 
HETATM   18  H   UNL     1      38.966  -8.505  11.598  1.00  0.00     0.169 HD
HETATM   19  C   UNL     1      40.486  -7.510  13.780  1.00  0.00     0.030 A 
HETATM   20  C   UNL     1      41.529  -7.156  14.646  1.00  0.00     0.002 A 
HETATM   21  C   UNL     1      42.872  -7.455  14.334  1.00  0.00     0.001 A 
HETATM   22  C   UNL     1      43.199  -8.116  13.148  1.00  0.00     0.016 A 
ENDBRANCH   8  11
ENDBRANCH   4   7
BRANCH   1  23
HETATM   23  N   UNL     1      42.842 -13.049   3.474  1.00  0.00    -0.335 N 
HETATM   24  C   UNL     1      42.790 -14.314   2.998  1.00  0.00     0.171 A 
HETATM   25  N   UNL     1      43.234 -15.417   3.557  1.00  0.00    -0.223 NA
HETATM   26  S   UNL     1      42.052 -14.556   1.448  1.00  0.00    -0.061 SA
HETATM   27  C   UNL     1      42.968 -16.524   2.762  1.00  0.00     0.076 A 
HETATM   28  C   UNL     1      42.331 -16.238   1.573  1.00  0.00     0.085 A 
HETATM   29  H   UNL     1      42.428 -12.344   2.877  1.00  0.00     0.168 HD
BRANCH  27  30
HETATM   30  C   UNL     1      43.379 -17.865   3.163  1.00  0.00    -0.007 A 
HETATM   31  C   UNL     1      43.949 -18.120   4.421  1.00  0.00     0.014 A 
HETATM   32  C   UNL     1      44.315 -19.419   4.786  1.00  0.00     0.001 A 
HETATM   33  C   UNL     1      44.120 -20.474   3.899  1.00  0.00     0.000 A 
HETATM   34  C   UNL     1      43.565 -20.234   2.643  1.00  0.00     0.001 A 
HETATM   35  C   UNL     1      43.201 -18.935   2.277  1.00  0.00     0.014 A 
ENDBRANCH  27  30
ENDBRANCH   1  23
TORSDOF 4
ENDMDL
MODEL 2
REMARK VINA RESULT:      -9.9      3.167     11.189
REMARK  4 active torsions:
REMARK  status: ('A' for Active; 'I' for Inactive)
REMARK    1  A    between atoms: C_4  and  C_5 
REMARK    2  A    between atoms: N_8  and  C_9 
REMARK    3  A    between atoms: C_12  and  C_13 
REMARK       I    between atoms: C_13  and  N_14 
REMARK    4  A    between atoms: N_14  and  N_15 
ROOT
HETATM    1  C   UNL     1      41.521 -10.230   6.158  1.00  0.00     0.034 A 
HETATM    2  C   UNL     1      40.405 -11.074   6.106  1.00  0.00     0.030 A 
HETATM    3  C   UNL     1      40.545 -12.473   6.061  1.00  0.00     0.019 A 
HETATM    4  C   UNL     1      41.818 -13.052   6.059  1.00  0.00     0.033 A 
HETATM    5  C   UNL     1      42.940 -12.218   6.092  1.00  0.00     0.019 A 
HETATM    6  C   UNL     1      42.790 -10.830   6.132  1.00  0.00     0.030 A 
ENDROOT
BRANCH   4   7
HETATM    7  C   UNL     1      42.053 -14.524   6.082  1.00  0.00     0.271 C 
HETATM    8  N   UNL     1      43.244 -14.974   5.536  1.00  0.00    -0.242 N 
HETATM    9  H   UNL     1      43.969 -14.332   5.215  1.00  0.00     0.192 HD
HETATM   10  O   UNL     1      41.203 -15.249   6.596  1.00  0.00    -0.266 OA
BRANCH   8  11
HETATM   11  N   UNL     1      43.500 -16.317   5.532  1.00  0.00    -0.166 NA
HETATM   12  C   UNL     1      43.406 -16.940   4.403  1.00  0.00     0.157 A 
HETATM   13  C   UNL     1      43.045 -16.381   3.027  1.00  0.00     0.277 A 
HETATM   14  C   UNL     1      43.643 -18.365   4.208  1.00  0.00     0.027 A 
HETATM   15  O   UNL     1      42.774 -15.220   2.800  1.00  0.00    -0.266 OA
HETATM   16  N   UNL     1      43.100 -17.456   2.164  1.00  0.00    -0.321 N 
HETATM   17  C   UNL     1      43.447 -18.618   2.851  1.00  0.00     0.048 A 
HETATM   18  H   UNL     1      42.908 -17.389   1.176  1.00  0.00     0.169 HD
HETATM   19  C   UNL     1      43.599 -19.887   2.334  1.00  0.00     0.030 A 
HETATM   20  C   UNL     1      43.953 -20.907   3.228  1.00  0.00     0.002 A 
HETATM   21  C   UNL     1      44.148 -20.643   4.601  1.00  0.00     0.001 A 
HETATM   22  C   UNL     1      43.992 -19.351   5.107  1.00  0.00     0.016 A 
ENDBRANCH   8  11
ENDBRANCH   4   7
BRANCH   1  23
HETATM   23  N   UNL     1      41.460  -8.828   6.236  1.00  0.00    -0.335 N 
HETATM   24  C   UNL     1      41.734  -7.998   7.269  1.00  0.00     0.171 A 
HETATM   25  N   UNL     1      41.960  -8.304   8.526  1.00  0.00    -0.223 NA
HETATM   26  S   UNL     1      41.804  -6.299   6.932  1.00  0.00    -0.061 SA
HETATM   27  C   UNL     1      42.230  -7.169   9.278  1.00  0.00     0.076 A 
HETATM   28  C   UNL     1      42.184  -5.986   8.569  1.00  0.00     0.085 A 
HETATM   29  H   UNL     1      41.329  -8.376   5.340  1.00  0.00     0.168 HD
BRANCH  27  30
HETATM   30  C   UNL     1      42.498  -7.250  10.710  1.00  0.00    -0.007 A 
HETATM   31  C   UNL     1      42.103  -6.236  11.596  1.00  0.00     0.014 A 
HETATM   32  C   UNL     1      42.355  -6.351  12.967  1.00  0.00     0.001 A 
HETATM   33  C   UNL     1      43.006  -7.477  13.464  1.00  0.00     0.000 A 
HETATM   34  C   UNL     1      43.412  -8.487  12.594  1.00  0.00     0.001 A 
HETATM   35  C   UNL     1      43.163  -8.371  11.224  1.00  0.00     0.014 A 
ENDBRANCH  27  30
ENDBRANCH   1  23
TORSDOF 4
ENDMDL
MODEL 3
REMARK VINA RESULT:      -9.7      3.113     10.742
REMARK  4 active torsions:
REMARK  status: ('A' for Active; 'I' for Inactive)
REMARK    1  A    between atoms: C_4  and  C_5 
REMARK    2  A    between atoms: N_8  and  C_9 
REMARK    3  A    between atoms: C_12  and  C_13 
REMARK       I    between atoms: C_13  and  N_14 
REMARK    4  A    between atoms: N_14  and  N_15 
ROOT
HETATM    1  C   UNL     1      41.298  -9.990   4.928  1.00  0.00     0.034 A 
HETATM    2  C   UNL     1      40.098 -10.671   4.693  1.00  0.00     0.030 A 
HETATM    3  C   UNL     1      40.085 -11.965   4.143  1.00  0.00     0.019 A 
HETATM    4  C   UNL     1      41.286 -12.599   3.811  1.00  0.00     0.033 A 
HETATM    5  C   UNL     1      42.490 -11.922   4.026  1.00  0.00     0.019 A 
HETATM    6  C   UNL     1      42.491 -10.635   4.568  1.00  0.00     0.030 A 
ENDROOT
BRANCH   4   7
HETATM    7  C   UNL     1      41.364 -13.994   3.291  1.00  0.00     0.271 C 
HETATM    8  N   UNL     1      42.595 -14.625   3.378  1.00  0.00    -0.242 N 
HETATM    9  H   UNL     1      43.389 -14.198   3.855  1.00  0.00     0.192 HD
HETATM   10  O   UNL     1      40.344 -14.513   2.839  1.00  0.00    -0.266 OA
BRANCH   8  11
HETATM   11  N   UNL     1      42.713 -15.904   2.909  1.00  0.00    -0.166 NA
HETATM   12  C   UNL     1      43.194 -16.793   3.716  1.00  0.00     0.157 A 
HETATM   13  C   UNL     1      43.659 -16.624   5.162  1.00  0.00     0.277 A 
HETATM   14  C   UNL     1      43.391 -18.201   3.393  1.00  0.00     0.027 A 
HETATM   15  O   UNL     1      43.649 -15.576   5.775  1.00  0.00    -0.266 OA
HETATM   16  N   UNL     1      44.067 -17.877   5.569  1.00  0.00    -0.321 N 
HETATM   17  C   UNL     1      43.913 -18.802   4.537  1.00  0.00     0.048 A 
HETATM   18  H   UNL     1      44.427 -18.074   6.490  1.00  0.00     0.169 HD
HETATM   19  C   UNL     1      44.213 -20.147   4.561  1.00  0.00     0.030 A 
HETATM   20  C   UNL     1      43.973 -20.880   3.391  1.00  0.00     0.002 A 
HETATM   21  C   UNL     1      43.446 -20.264   2.236  1.00  0.00     0.001 A 
HETATM   22  C   UNL     1      43.146 -18.900   2.230  1.00  0.00     0.016 A 
ENDBRANCH   8  11
ENDBRANCH   4   7
BRANCH   1  23
HETATM   23  N   UNL     1      41.392  -8.709   5.501  1.00  0.00    -0.335 N 
HETATM   24  C   UNL     1      41.719  -8.338   6.760  1.00  0.00     0.171 A 
HETATM   25  N   UNL     1      41.862  -9.095   7.825  1.00  0.00    -0.223 NA
HETATM   26  S   UNL     1      41.991  -6.651   7.051  1.00  0.00    -0.061 SA
HETATM   27  C   UNL     1      42.229  -8.339   8.930  1.00  0.00     0.076 A 
HETATM   28  C   UNL     1      42.343  -6.986   8.690  1.00  0.00     0.085 A 
HETATM   29  H   UNL     1      41.346  -7.957   4.826  1.00  0.00     0.168 HD
BRANCH  27  30
HETATM   30  C   UNL     1      42.433  -8.955  10.238  1.00  0.00    -0.007 A 
HETATM   31  C   UNL     1      43.311 -10.034  10.420  1.00  0.00     0.014 A 
HETATM   32  C   UNL     1      43.501 -10.591  11.688  1.00  0.00     0.001 A 
HETATM   33  C   UNL     1      42.814 -10.077  12.786  1.00  0.00     0.000 A 
HETATM   34  C   UNL     1      41.931  -9.012  12.617  1.00  0.00     0.001 A 
HETATM   35  C   UNL     1      41.739  -8.458  11.349  1.00  0.00     0.014 A 
ENDBRANCH  27  30
ENDBRANCH   1  23
TORSDOF 4
ENDMDL
MODEL 4
REMARK VINA RESULT:      -9.6      2.057      3.053
REMARK  4 active torsions:
REMARK  status: ('A' for Active; 'I' for Inactive)
REMARK    1  A    between atoms: C_4  and  C_5 
REMARK    2  A    between atoms: N_8  and  C_9 
REMARK    3  A    between atoms: C_12  and  C_13 
REMARK       I    between atoms: C_13  and  N_14 
REMARK    4  A    between atoms: N_14  and  N_15 
ROOT
HETATM    1  C   UNL     1      40.157 -11.424   4.340  1.00  0.00     0.034 A 
HETATM    2  C   UNL     1      39.171 -11.888   5.218  1.00  0.00     0.030 A 
HETATM    3  C   UNL     1      38.985 -11.307   6.485  1.00  0.00     0.019 A 
HETATM    4  C   UNL     1      39.797 -10.247   6.898  1.00  0.00     0.033 A 
HETATM    5  C   UNL     1      40.798  -9.786   6.038  1.00  0.00     0.019 A 
HETATM    6  C   UNL     1      40.978 -10.374   4.783  1.00  0.00     0.030 A 
ENDROOT
BRANCH   4   7
HETATM    7  C   UNL     1      39.621  -9.531   8.194  1.00  0.00     0.271 C 
HETATM    8  N   UNL     1      40.419  -9.945   9.249  1.00  0.00    -0.242 N 
HETATM    9  H   UNL     1      41.156 -10.640   9.130  1.00  0.00     0.192 HD
HETATM   10  O   UNL     1      38.806  -8.612   8.254  1.00  0.00    -0.266 OA
BRANCH   8  11
HETATM   11  N   UNL     1      40.288  -9.319  10.458  1.00  0.00    -0.166 NA
HETATM   12  C   UNL     1      41.373  -8.970  11.069  1.00  0.00     0.157 A 
HETATM   13  C   UNL     1      42.825  -9.154  10.628  1.00  0.00     0.277 A 
HETATM   14  C   UNL     1      41.429  -8.295  12.360  1.00  0.00     0.027 A 
HETATM   15  O   UNL     1      43.172  -9.689   9.595  1.00  0.00    -0.266 OA
HETATM   16  N   UNL     1      43.591  -8.597  11.630  1.00  0.00    -0.321 N 
HETATM   17  C   UNL     1      42.779  -8.095  12.646  1.00  0.00     0.048 A 
HETATM   18  H   UNL     1      44.599  -8.570  11.612  1.00  0.00     0.169 HD
HETATM   19  C   UNL     1      43.175  -7.471  13.809  1.00  0.00     0.030 A 
HETATM   20  C   UNL     1      42.169  -7.050  14.688  1.00  0.00     0.002 A 
HETATM   21  C   UNL     1      40.804  -7.257  14.392  1.00  0.00     0.001 A 
HETATM   22  C   UNL     1      40.420  -7.890  13.208  1.00  0.00     0.016 A 
ENDBRANCH   8  11
ENDBRANCH   4   7
BRANCH   1  23
HETATM   23  N   UNL     1      40.384 -11.932   3.049  1.00  0.00    -0.335 N 
HETATM   24  C   UNL     1      40.951 -13.096   2.656  1.00  0.00     0.171 A 
HETATM   25  N   UNL     1      41.600 -13.976   3.385  1.00  0.00    -0.223 NA
HETATM   26  S   UNL     1      40.832 -13.518   0.979  1.00  0.00    -0.061 SA
HETATM   27  C   UNL     1      42.010 -15.057   2.616  1.00  0.00     0.076 A 
HETATM   28  C   UNL     1      41.678 -14.972   1.280  1.00  0.00     0.085 A 
HETATM   29  H   UNL     1      39.921 -11.407   2.318  1.00  0.00     0.168 HD
BRANCH  27  30
HETATM   30  C   UNL     1      42.765 -16.161   3.198  1.00  0.00    -0.007 A 
HETATM   31  C   UNL     1      43.048 -17.329   2.473  1.00  0.00     0.014 A 
HETATM   32  C   UNL     1      43.791 -18.363   3.051  1.00  0.00     0.001 A 
HETATM   33  C   UNL     1      44.257 -18.242   4.358  1.00  0.00     0.000 A 
HETATM   34  C   UNL     1      43.974 -17.092   5.093  1.00  0.00     0.001 A 
HETATM   35  C   UNL     1      43.228 -16.060   4.517  1.00  0.00     0.014 A 
ENDBRANCH  27  30
ENDBRANCH   1  23
TORSDOF 4
ENDMDL
MODEL 5
REMARK VINA RESULT:      -9.5      3.344     11.322
REMARK  4 active torsions:
REMARK  status: ('A' for Active; 'I' for Inactive)
REMARK    1  A    between atoms: C_4  and  C_5 
REMARK    2  A    between atoms: N_8  and  C_9 
REMARK    3  A    between atoms: C_12  and  C_13 
REMARK       I    between atoms: C_13  and  N_14 
REMARK    4  A    between atoms: N_14  and  N_15 
ROOT
HETATM    1  C   UNL     1      43.136  -7.748   8.391  1.00  0.00     0.034 A 
HETATM    2  C   UNL     1      42.221  -8.540   7.688  1.00  0.00     0.030 A 
HETATM    3  C   UNL     1      42.556  -9.832   7.246  1.00  0.00     0.019 A 
HETATM    4  C   UNL     1      43.830 -10.352   7.498  1.00  0.00     0.033 A 
HETATM    5  C   UNL     1      44.759  -9.564   8.183  1.00  0.00     0.019 A 
HETATM    6  C   UNL     1      44.417  -8.279   8.614  1.00  0.00     0.030 A 
ENDROOT
BRANCH   4   7
HETATM    7  C   UNL     1      44.242 -11.735   7.125  1.00  0.00     0.271 C 
HETATM    8  N   UNL     1      43.242 -12.693   7.078  1.00  0.00    -0.242 N 
HETATM    9  H   UNL     1      42.258 -12.454   7.200  1.00  0.00     0.192 HD
HETATM   10  O   UNL     1      45.425 -11.948   6.863  1.00  0.00    -0.266 OA
BRANCH   8  11
HETATM   11  N   UNL     1      43.575 -13.977   6.744  1.00  0.00    -0.166 NA
HETATM   12  C   UNL     1      43.198 -14.409   5.586  1.00  0.00     0.157 A 
HETATM   13  C   UNL     1      42.415 -13.676   4.497  1.00  0.00     0.277 A 
HETATM   14  C   UNL     1      43.462 -15.743   5.061  1.00  0.00     0.027 A 
HETATM   15  O   UNL     1      42.013 -12.534   4.582  1.00  0.00    -0.266 OA
HETATM   16  N   UNL     1      42.288 -14.578   3.460  1.00  0.00    -0.321 N 
HETATM   17  C   UNL     1      42.898 -15.788   3.787  1.00  0.00     0.048 A 
HETATM   18  H   UNL     1      41.813 -14.370   2.596  1.00  0.00     0.169 HD
HETATM   19  C   UNL     1      42.977 -16.926   3.013  1.00  0.00     0.030 A 
HETATM   20  C   UNL     1      43.643 -18.030   3.560  1.00  0.00     0.002 A 
HETATM   21  C   UNL     1      44.211 -17.977   4.851  1.00  0.00     0.001 A 
HETATM   22  C   UNL     1      44.123 -16.816   5.621  1.00  0.00     0.016 A 
ENDBRANCH   8  11
ENDBRANCH   4   7
BRANCH   1  23
HETATM   23  N   UNL     1      42.865  -6.462   8.890  1.00  0.00    -0.335 N 
HETATM   24  C   UNL     1      42.619  -6.051  10.155  1.00  0.00     0.171 A 
HETATM   25  N   UNL     1      42.396  -6.781  11.224  1.00  0.00    -0.223 NA
HETATM   26  S   UNL     1      42.583  -4.342  10.448  1.00  0.00    -0.061 SA
HETATM   27  C   UNL     1      42.211  -5.984  12.346  1.00  0.00     0.076 A 
HETATM   28  C   UNL     1      42.277  -4.628  12.105  1.00  0.00     0.085 A 
HETATM   29  H   UNL     1      43.020  -5.722   8.217  1.00  0.00     0.168 HD
BRANCH  27  30
HETATM   30  C   UNL     1      41.931  -6.566  13.654  1.00  0.00    -0.007 A 
HETATM   31  C   UNL     1      41.489  -5.785  14.734  1.00  0.00     0.014 A 
HETATM   32  C   UNL     1      41.210  -6.374  15.971  1.00  0.00     0.001 A 
HETATM   33  C   UNL     1      41.372  -7.747  16.143  1.00  0.00     0.000 A 
HETATM   34  C   UNL     1      41.820  -8.532  15.083  1.00  0.00     0.001 A 
HETATM   35  C   UNL     1      42.102  -7.944  13.847  1.00  0.00     0.014 A 
ENDBRANCH  27  30
ENDBRANCH   1  23
TORSDOF 4
ENDMDL
MODEL 6
REMARK VINA RESULT:      -9.5      6.551     10.358
REMARK  4 active torsions:
REMARK  status: ('A' for Active; 'I' for Inactive)
REMARK    1  A    between atoms: C_4  and  C_5 
REMARK    2  A    between atoms: N_8  and  C_9 
REMARK    3  A    between atoms: C_12  and  C_13 
REMARK       I    between atoms: C_13  and  N_14 
REMARK    4  A    between atoms: N_14  and  N_15 
ROOT
HETATM    1  C   UNL     1      41.611 -13.145   3.622  1.00  0.00     0.034 A 
HETATM    2  C   UNL     1      40.377 -13.580   3.123  1.00  0.00     0.030 A 
HETATM    3  C   UNL     1      39.854 -13.075   1.919  1.00  0.00     0.019 A 
HETATM    4  C   UNL     1      40.563 -12.112   1.194  1.00  0.00     0.033 A 
HETATM    5  C   UNL     1      41.787 -11.656   1.691  1.00  0.00     0.019 A 
HETATM    6  C   UNL     1      42.296 -12.161   2.891  1.00  0.00     0.030 A 
ENDROOT
BRANCH   4   7
HETATM    7  C   UNL     1      40.113 -11.577  -0.123  1.00  0.00     0.271 C 
HETATM    8  N   UNL     1      41.043 -10.854  -0.853  1.00  0.00    -0.242 N 
HETATM    9  H   UNL     1      42.014 -10.766  -0.555  1.00  0.00     0.192 HD
HETATM   10  O   UNL     1      38.967 -11.819  -0.498  1.00  0.00    -0.266 OA
BRANCH   8  11
HETATM   11  N   UNL     1      40.673 -10.342  -2.066  1.00  0.00    -0.166 NA
HETATM   12  C   UNL     1      41.314  -9.305  -2.496  1.00  0.00     0.157 A 
HETATM   13  C   UNL     1      42.462  -8.543  -1.833  1.00  0.00     0.277 A 
HETATM   14  C   UNL     1      41.060  -8.625  -3.761  1.00  0.00     0.027 A 
HETATM   15  O   UNL     1      42.944  -8.820  -0.754  1.00  0.00    -0.266 OA
HETATM   16  N   UNL     1      42.791  -7.531  -2.711  1.00  0.00    -0.321 N 
HETATM   17  C   UNL     1      41.972  -7.575  -3.838  1.00  0.00     0.048 A 
HETATM   18  H   UNL     1      43.524  -6.861  -2.539  1.00  0.00     0.169 HD
HETATM   19  C   UNL     1      41.995  -6.730  -4.928  1.00  0.00     0.030 A 
HETATM   20  C   UNL     1      41.065  -6.972  -5.947  1.00  0.00     0.002 A 
HETATM   21  C   UNL     1      40.144  -8.037  -5.861  1.00  0.00     0.001 A 
HETATM   22  C   UNL     1      40.135  -8.884  -4.751  1.00  0.00     0.016 A 
ENDBRANCH   8  11
ENDBRANCH   4   7
BRANCH   1  23
HETATM   23  N   UNL     1      42.211 -13.623   4.799  1.00  0.00    -0.335 N 
HETATM   24  C   UNL     1      42.792 -14.817   5.060  1.00  0.00     0.171 A 
HETATM   25  N   UNL     1      42.787 -15.907   4.326  1.00  0.00    -0.223 NA
HETATM   26  S   UNL     1      43.667 -14.972   6.548  1.00  0.00    -0.061 SA
HETATM   27  C   UNL     1      43.522 -16.919   4.928  1.00  0.00     0.076 A 
HETATM   28  C   UNL     1      44.070 -16.584   6.149  1.00  0.00     0.085 A 
HETATM   29  H   UNL     1      42.351 -12.910   5.504  1.00  0.00     0.168 HD
BRANCH  27  30
HETATM   30  C   UNL     1      43.650 -18.235   4.311  1.00  0.00    -0.007 A 
HETATM   31  C   UNL     1      44.032 -19.366   5.050  1.00  0.00     0.014 A 
HETATM   32  C   UNL     1      44.128 -20.618   4.436  1.00  0.00     0.001 A 
HETATM   33  C   UNL     1      43.846 -20.753   3.078  1.00  0.00     0.000 A 
HETATM   34  C   UNL     1      43.476 -19.637   2.331  1.00  0.00     0.001 A 
HETATM   35  C   UNL     1      43.383 -18.384   2.943  1.00  0.00     0.014 A 
ENDBRANCH  27  30
ENDBRANCH   1  23
TORSDOF 4
ENDMDL
MODEL 7
REMARK VINA RESULT:      -9.3      5.456      9.396
REMARK  4 active torsions:
REMARK  status: ('A' for Active; 'I' for Inactive)
REMARK    1  A    between atoms: C_4  and  C_5 
REMARK    2  A    between atoms: N_8  and  C_9 
REMARK    3  A    between atoms: C_12  and  C_13 
REMARK       I    between atoms: C_13  and  N_14 
REMARK    4  A    between atoms: N_14  and  N_15 
ROOT
HETATM    1  C   UNL     1      41.816 -12.799   5.563  1.00  0.00     0.034 A 
HETATM    2  C   UNL     1      40.571 -12.702   4.930  1.00  0.00     0.030 A 
HETATM    3  C   UNL     1      40.340 -11.766   3.906  1.00  0.00     0.019 A 
HETATM    4  C   UNL     1      41.360 -10.898   3.504  1.00  0.00     0.033 A 
HETATM    5  C   UNL     1      42.602 -10.973   4.141  1.00  0.00     0.019 A 
HETATM    6  C   UNL     1      42.820 -11.904   5.160  1.00  0.00     0.030 A 
ENDROOT
BRANCH   4   7
HETATM    7  C   UNL     1      41.219  -9.926   2.382  1.00  0.00     0.271 C 
HETATM    8  N   UNL     1      42.002 -10.150   1.261  1.00  0.00    -0.242 N 
HETATM    9  H   UNL     1      42.579 -10.985   1.162  1.00  0.00     0.192 HD
HETATM   10  O   UNL     1      40.413  -9.004   2.498  1.00  0.00    -0.266 OA
BRANCH   8  11
HETATM   11  N   UNL     1      41.907  -9.281   0.209  1.00  0.00    -0.166 NA
HETATM   12  C   UNL     1      41.512  -9.758  -0.926  1.00  0.00     0.157 A 
HETATM   13  C   UNL     1      41.118 -11.193  -1.278  1.00  0.00     0.277 A 
HETATM   14  C   UNL     1      41.352  -8.986  -2.152  1.00  0.00     0.027 A 
HETATM   15  O   UNL     1      41.132 -12.125  -0.501  1.00  0.00    -0.266 OA
HETATM   16  N   UNL     1      40.763 -11.163  -2.611  1.00  0.00    -0.321 N 
HETATM   17  C   UNL     1      40.901  -9.875  -3.126  1.00  0.00     0.048 A 
HETATM   18  H   UNL     1      40.453 -11.975  -3.123  1.00  0.00     0.169 HD
HETATM   19  C   UNL     1      40.646  -9.452  -4.413  1.00  0.00     0.030 A 
HETATM   20  C   UNL     1      40.861  -8.098  -4.699  1.00  0.00     0.002 A 
HETATM   21  C   UNL     1      41.320  -7.204  -3.707  1.00  0.00     0.001 A 
HETATM   22  C   UNL     1      41.571  -7.649  -2.408  1.00  0.00     0.016 A 
ENDBRANCH   8  11
ENDBRANCH   4   7
BRANCH   1  23
HETATM   23  N   UNL     1      42.132 -13.727   6.570  1.00  0.00    -0.335 N 
HETATM   24  C   UNL     1      42.594 -14.995   6.475  1.00  0.00     0.171 A 
HETATM   25  N   UNL     1      42.700 -15.748   5.404  1.00  0.00    -0.223 NA
HETATM   26  S   UNL     1      43.125 -15.764   7.935  1.00  0.00    -0.061 SA
HETATM   27  C   UNL     1      43.247 -16.986   5.715  1.00  0.00     0.076 A 
HETATM   28  C   UNL     1      43.537 -17.168   7.051  1.00  0.00     0.085 A 
HETATM   29  H   UNL     1      42.148 -13.329   7.501  1.00  0.00     0.168 HD
BRANCH  27  30
HETATM   30  C   UNL     1      43.450 -18.006   4.692  1.00  0.00    -0.007 A 
HETATM   31  C   UNL     1      43.935 -19.285   5.007  1.00  0.00     0.014 A 
HETATM   32  C   UNL     1      44.101 -20.249   4.008  1.00  0.00     0.001 A 
HETATM   33  C   UNL     1      43.786 -19.945   2.685  1.00  0.00     0.000 A 
HETATM   34  C   UNL     1      43.313 -18.676   2.358  1.00  0.00     0.001 A 
HETATM   35  C   UNL     1      43.150 -17.711   3.355  1.00  0.00     0.014 A 
ENDBRANCH  27  30
ENDBRANCH   1  23
TORSDOF 4
ENDMDL
MODEL 8
REMARK VINA RESULT:      -9.1      3.529     10.909
REMARK  4 active torsions:
REMARK  status: ('A' for Active; 'I' for Inactive)
REMARK    1  A    between atoms: C_4  and  C_5 
REMARK    2  A    between atoms: N_8  and  C_9 
REMARK    3  A    between atoms: C_12  and  C_13 
REMARK       I    between atoms: C_13  and  N_14 
REMARK    4  A    between atoms: N_14  and  N_15 
ROOT
HETATM    1  C   UNL     1      39.351  -9.255   6.362  1.00  0.00     0.034 A 
HETATM    2  C   UNL     1      39.012 -10.555   6.755  1.00  0.00     0.030 A 
HETATM    3  C   UNL     1      39.415 -11.676   6.006  1.00  0.00     0.019 A 
HETATM    4  C   UNL     1      40.164 -11.507   4.837  1.00  0.00     0.033 A 
HETATM    5  C   UNL     1      40.493 -10.213   4.425  1.00  0.00     0.019 A 
HETATM    6  C   UNL     1      40.084  -9.106   5.174  1.00  0.00     0.030 A 
ENDROOT
BRANCH   4   7
HETATM    7  C   UNL     1      40.689 -12.642   4.025  1.00  0.00     0.271 C 
HETATM    8  N   UNL     1      40.509 -13.915   4.543  1.00  0.00    -0.242 N 
HETATM    9  H   UNL     1      39.965 -14.083   5.389  1.00  0.00     0.192 HD
HETATM   10  O   UNL     1      41.226 -12.397   2.946  1.00  0.00    -0.266 OA
BRANCH   8  11
HETATM   11  N   UNL     1      40.978 -14.986   3.833  1.00  0.00    -0.166 NA
HETATM   12  C   UNL     1      41.946 -15.668   4.352  1.00  0.00     0.157 A 
HETATM   13  C   UNL     1      42.665 -15.453   5.684  1.00  0.00     0.277 A 
HETATM   14  C   UNL     1      42.571 -16.836   3.744  1.00  0.00     0.027 A 
HETATM   15  O   UNL     1      42.416 -14.561   6.469  1.00  0.00    -0.266 OA
HETATM   16  N   UNL     1      43.604 -16.459   5.766  1.00  0.00    -0.321 N 
HETATM   17  C   UNL     1      43.553 -17.270   4.632  1.00  0.00     0.048 A 
HETATM   18  H   UNL     1      44.233 -16.573   6.546  1.00  0.00     0.169 HD
HETATM   19  C   UNL     1      44.334 -18.370   4.350  1.00  0.00     0.030 A 
HETATM   20  C   UNL     1      44.099 -19.029   3.136  1.00  0.00     0.002 A 
HETATM   21  C   UNL     1      43.103 -18.584   2.241  1.00  0.00     0.001 A 
HETATM   22  C   UNL     1      42.320 -17.468   2.544  1.00  0.00     0.016 A 
ENDBRANCH   8  11
ENDBRANCH   4   7
BRANCH   1  23
HETATM   23  N   UNL     1      39.011  -8.090   7.073  1.00  0.00    -0.335 N 
HETATM   24  C   UNL     1      39.401  -7.671   8.299  1.00  0.00     0.171 A 
HETATM   25  N   UNL     1      40.063  -8.336   9.218  1.00  0.00    -0.223 NA
HETATM   26  S   UNL     1      38.989  -6.051   8.758  1.00  0.00    -0.061 SA
HETATM   27  C   UNL     1      40.295  -7.547  10.337  1.00  0.00     0.076 A 
HETATM   28  C   UNL     1      39.776  -6.272  10.259  1.00  0.00     0.085 A 
HETATM   29  H   UNL     1      38.516  -7.405   6.518  1.00  0.00     0.168 HD
BRANCH  27  30
HETATM   30  C   UNL     1      41.001  -8.070  11.502  1.00  0.00    -0.007 A 
HETATM   31  C   UNL     1      40.334  -8.773  12.518  1.00  0.00     0.014 A 
HETATM   32  C   UNL     1      41.040  -9.279  13.614  1.00  0.00     0.001 A 
HETATM   33  C   UNL     1      42.416  -9.086  13.707  1.00  0.00     0.000 A 
HETATM   34  C   UNL     1      43.088  -8.380  12.711  1.00  0.00     0.001 A 
HETATM   35  C   UNL     1      42.383  -7.871  11.617  1.00  0.00     0.014 A 
ENDBRANCH  27  30
ENDBRANCH   1  23
TORSDOF 4
ENDMDL
MODEL 9
REMARK VINA RESULT:      -8.9     18.739     21.042
REMARK  4 active torsions:
REMARK  status: ('A' for Active; 'I' for Inactive)
REMARK    1  A    between atoms: C_4  and  C_5 
REMARK    2  A    between atoms: N_8  and  C_9 
REMARK    3  A    between atoms: C_12  and  C_13 
REMARK       I    between atoms: C_13  and  N_14 
REMARK    4  A    between atoms: N_14  and  N_15 
ROOT
HETATM    1  C   UNL     1      46.606 -30.099   3.650  1.00  0.00     0.034 A 
HETATM    2  C   UNL     1      47.085 -31.207   4.360  1.00  0.00     0.030 A 
HETATM    3  C   UNL     1      48.460 -31.398   4.580  1.00  0.00     0.019 A 
HETATM    4  C   UNL     1      49.387 -30.477   4.082  1.00  0.00     0.033 A 
HETATM    5  C   UNL     1      48.922 -29.376   3.357  1.00  0.00     0.019 A 
HETATM    6  C   UNL     1      47.554 -29.198   3.139  1.00  0.00     0.030 A 
ENDROOT
BRANCH   4   7
HETATM    7  C   UNL     1      50.854 -30.568   4.331  1.00  0.00     0.271 C 
HETATM    8  N   UNL     1      51.248 -31.026   5.578  1.00  0.00    -0.242 N 
HETATM    9  H   UNL     1      50.577 -31.372   6.264  1.00  0.00     0.192 HD
HETATM   10  O   UNL     1      51.626 -30.258   3.425  1.00  0.00    -0.266 OA
BRANCH   8  11
HETATM   11  N   UNL     1      52.585 -31.122   5.851  1.00  0.00    -0.166 NA
HETATM   12  C   UNL     1      52.950 -31.982   6.745  1.00  0.00     0.157 A 
HETATM   13  C   UNL     1      52.086 -32.940   7.565  1.00  0.00     0.277 A 
HETATM   14  C   UNL     1      54.325 -32.223   7.165  1.00  0.00     0.027 A 
HETATM   15  O   UNL     1      50.877 -33.020   7.489  1.00  0.00    -0.266 OA
HETATM   16  N   UNL     1      52.966 -33.646   8.359  1.00  0.00    -0.321 N 
HETATM   17  C   UNL     1      54.276 -33.228   8.129  1.00  0.00     0.048 A 
HETATM   18  H   UNL     1      52.679 -34.359   9.011  1.00  0.00     0.169 HD
HETATM   19  C   UNL     1      55.425 -33.694   8.732  1.00  0.00     0.030 A 
HETATM   20  C   UNL     1      56.638 -33.115   8.337  1.00  0.00     0.002 A 
HETATM   21  C   UNL     1      56.679 -32.096   7.361  1.00  0.00     0.001 A 
HETATM   22  C   UNL     1      55.506 -31.637   6.759  1.00  0.00     0.016 A 
ENDBRANCH   8  11
ENDBRANCH   4   7
BRANCH   1  23
HETATM   23  N   UNL     1      45.248 -29.825   3.416  1.00  0.00    -0.335 N 
HETATM   24  C   UNL     1      44.583 -29.639   2.252  1.00  0.00     0.171 A 
HETATM   25  N   UNL     1      45.076 -29.492   1.043  1.00  0.00    -0.223 NA
HETATM   26  S   UNL     1      42.852 -29.577   2.321  1.00  0.00    -0.061 SA
HETATM   27  C   UNL     1      44.064 -29.350   0.104  1.00  0.00     0.076 A 
HETATM   28  C   UNL     1      42.788 -29.369   0.626  1.00  0.00     0.085 A 
HETATM   29  H   UNL     1      44.664 -29.925   4.237  1.00  0.00     0.168 HD
BRANCH  27  30
HETATM   30  C   UNL     1      44.362 -29.156  -1.311  1.00  0.00    -0.007 A 
HETATM   31  C   UNL     1      43.920 -30.057  -2.292  1.00  0.00     0.014 A 
HETATM   32  C   UNL     1      44.204 -29.835  -3.643  1.00  0.00     0.001 A 
HETATM   33  C   UNL     1      44.935 -28.713  -4.027  1.00  0.00     0.000 A 
HETATM   34  C   UNL     1      45.388 -27.815  -3.063  1.00  0.00     0.001 A 
HETATM   35  C   UNL     1      45.108 -28.038  -1.712  1.00  0.00     0.014 A 
ENDBRANCH  27  30
ENDBRANCH   1  23
TORSDOF 4
ENDMDL
MODEL 10
REMARK VINA RESULT:      -8.9     18.828     21.039
REMARK  4 active torsions:
REMARK  status: ('A' for Active; 'I' for Inactive)
REMARK    1  A    between atoms: C_4  and  C_5 
REMARK    2  A    between atoms: N_8  and  C_9 
REMARK    3  A    between atoms: C_12  and  C_13 
REMARK       I    between atoms: C_13  and  N_14 
REMARK    4  A    between atoms: N_14  and  N_15 
ROOT
HETATM    1  C   UNL     1      43.245 -30.735   3.456  1.00  0.00     0.034 A 
HETATM    2  C   UNL     1      42.022 -30.077   3.279  1.00  0.00     0.030 A 
HETATM    3  C   UNL     1      40.801 -30.706   3.578  1.00  0.00     0.019 A 
HETATM    4  C   UNL     1      40.785 -32.020   4.056  1.00  0.00     0.033 A 
HETATM    5  C   UNL     1      41.999 -32.694   4.219  1.00  0.00     0.019 A 
HETATM    6  C   UNL     1      43.207 -32.062   3.915  1.00  0.00     0.030 A 
ENDROOT
BRANCH   4   7
HETATM    7  C   UNL     1      39.541 -32.734   4.461  1.00  0.00     0.271 C 
HETATM    8  N   UNL     1      39.041 -32.450   5.722  1.00  0.00    -0.242 N 
HETATM    9  H   UNL     1      39.445 -31.723   6.312  1.00  0.00     0.192 HD
HETATM   10  O   UNL     1      39.018 -33.510   3.662  1.00  0.00    -0.266 OA
BRANCH   8  11
HETATM   11  N   UNL     1      37.903 -33.084   6.137  1.00  0.00    -0.166 NA
HETATM   12  C   UNL     1      37.976 -33.793   7.216  1.00  0.00     0.157 A 
HETATM   13  C   UNL     1      39.179 -34.033   8.128  1.00  0.00     0.277 A 
HETATM   14  C   UNL     1      36.870 -34.537   7.808  1.00  0.00     0.027 A 
HETATM   15  O   UNL     1      40.287 -33.573   7.947  1.00  0.00    -0.266 OA
HETATM   16  N   UNL     1      38.720 -34.848   9.142  1.00  0.00    -0.321 N 
HETATM   17  C   UNL     1      37.370 -35.146   8.957  1.00  0.00     0.048 A 
HETATM   18  H   UNL     1      39.298 -35.173   9.901  1.00  0.00     0.169 HD
HETATM   19  C   UNL     1      36.565 -35.930   9.756  1.00  0.00     0.030 A 
HETATM   20  C   UNL     1      35.230 -36.088   9.363  1.00  0.00     0.002 A 
HETATM   21  C   UNL     1      34.731 -35.469   8.197  1.00  0.00     0.001 A 
HETATM   22  C   UNL     1      35.560 -34.677   7.400  1.00  0.00     0.016 A 
ENDBRANCH   8  11
ENDBRANCH   4   7
BRANCH   1  23
HETATM   23  N   UNL     1      44.505 -30.164   3.209  1.00  0.00    -0.335 N 
HETATM   24  C   UNL     1      45.023 -29.653   2.068  1.00  0.00     0.171 A 
HETATM   25  N   UNL     1      44.541 -29.722   0.848  1.00  0.00    -0.223 NA
HETATM   26  S   UNL     1      46.522 -28.790   2.187  1.00  0.00    -0.061 SA
HETATM   27  C   UNL     1      45.355 -29.048  -0.052  1.00  0.00     0.076 A 
HETATM   28  C   UNL     1      46.482 -28.481   0.506  1.00  0.00     0.085 A 
HETATM   29  H   UNL     1      45.042 -29.983   4.047  1.00  0.00     0.168 HD
BRANCH  27  30
HETATM   30  C   UNL     1      45.037 -28.996  -1.475  1.00  0.00    -0.007 A 
HETATM   31  C   UNL     1      45.556 -27.998  -2.314  1.00  0.00     0.014 A 
HETATM   32  C   UNL     1      45.249 -27.985  -3.678  1.00  0.00     0.001 A 
HETATM   33  C   UNL     1      44.419 -28.966  -4.216  1.00  0.00     0.000 A 
HETATM   34  C   UNL     1      43.890 -29.957  -3.392  1.00  0.00     0.001 A 
HETATM   35  C   UNL     1      44.193 -29.969  -2.028  1.00  0.00     0.014 A 
ENDBRANCH  27  30
ENDBRANCH   1  23
TORSDOF 4
ENDMDL
