MODEL 1
REMARK VINA RESULT:      -8.2      0.000      0.000
REMARK  4 active torsions:
REMARK  status: ('A' for Active; 'I' for Inactive)
REMARK    1  A    between atoms: C_3  and  C_4 
REMARK    2  A    between atoms: C_5  and  C_6 
REMARK       I    between atoms: C_6  and  N_7 
REMARK    3  A    between atoms: N_7  and  C_8 
REMARK    4  A    between atoms: C_15  and  C_16 
REMARK       I    between atoms: C_16  and  N_17 
ROOT
HETATM    1  C   UNL     1      40.589 -14.953   1.504  1.00  0.00     0.035 A 
HETATM    2  C   UNL     1      40.577 -14.591   0.150  1.00  0.00     0.046 A 
HETATM    3  C   UNL     1      39.993 -13.365  -0.240  1.00  0.00     0.030 A 
HETATM    4  C   UNL     1      39.438 -12.546   0.736  1.00  0.00     0.063 A 
HETATM    5  N   UNL     1      38.963 -11.455   0.066  1.00  0.00    -0.277 N 
HETATM    6  H   UNL     1      38.493 -10.648   0.463  1.00  0.00     0.189 HD
HETATM    7  N   UNL     1      39.159 -11.486  -1.262  1.00  0.00    -0.168 NA
HETATM    8  C   UNL     1      39.794 -12.664  -1.467  1.00  0.00     0.156 A 
HETATM    9  C   UNL     1      39.428 -12.877   2.093  1.00  0.00     0.034 A 
HETATM   10  C   UNL     1      40.015 -14.096   2.453  1.00  0.00     0.032 A 
ENDROOT
BRANCH   1  11
HETATM   11  N   UNL     1      41.151 -16.153   1.991  1.00  0.00    -0.327 N 
HETATM   12  C   UNL     1      42.485 -16.464   2.120  1.00  0.00     0.227 C 
HETATM   13  O   UNL     1      43.440 -15.735   1.894  1.00  0.00    -0.273 OA
HETATM   14  H   UNL     1      40.495 -16.858   2.293  1.00  0.00     0.169 HD
BRANCH  12  15
HETATM   15  C   UNL     1      42.766 -17.822   2.666  1.00  0.00     0.087 A 
HETATM   16  C   UNL     1      42.941 -18.082   4.155  1.00  0.00     0.034 A 
HETATM   17  C   UNL     1      44.096 -18.275   3.194  1.00  0.00     0.025 A 
BRANCH  16  18
HETATM   18  C   UNL     1      43.061 -17.001   5.221  1.00  0.00    -0.031 A 
HETATM   19  C   UNL     1      44.319 -16.593   5.700  1.00  0.00     0.009 A 
HETATM   20  C   UNL     1      44.457 -15.599   6.675  1.00  0.00     0.001 A 
HETATM   21  C   UNL     1      43.333 -14.959   7.182  1.00  0.00     0.002 A 
HETATM   22  C   UNL     1      42.074 -15.307   6.705  1.00  0.00     0.024 A 
HETATM   23  C   UNL     1      41.942 -16.308   5.734  1.00  0.00     0.040 A 
HETATM   24 CL   UNL     1      40.341 -16.638   5.159  1.00  0.00    -0.084 Cl
ENDBRANCH  16  18
ENDBRANCH  12  15
ENDBRANCH   1  11
BRANCH   8  25
HETATM   25  C   UNL     1      40.192 -13.086  -2.818  1.00  0.00     0.270 C 
HETATM   26  N   UNL     1      41.472 -12.738  -3.157  1.00  0.00    -0.365 N 
HETATM   27  H   UNL     1      42.033 -12.237  -2.479  1.00  0.00     0.159 HD
HETATM   28  H   UNL     1      41.835 -12.993  -4.061  1.00  0.00     0.159 HD
HETATM   29  O   UNL     1      39.473 -13.696  -3.601  1.00  0.00    -0.266 OA
ENDBRANCH   8  25
TORSDOF 4
ENDMDL
MODEL 2
REMARK VINA RESULT:      -8.2      5.490      8.374
REMARK  4 active torsions:
REMARK  status: ('A' for Active; 'I' for Inactive)
REMARK    1  A    between atoms: C_3  and  C_4 
REMARK    2  A    between atoms: C_5  and  C_6 
REMARK       I    between atoms: C_6  and  N_7 
REMARK    3  A    between atoms: N_7  and  C_8 
REMARK    4  A    between atoms: C_15  and  C_16 
REMARK       I    between atoms: C_16  and  N_17 
ROOT
HETATM    1  C   UNL     1      43.750 -12.497   7.195  1.00  0.00     0.035 A 
HETATM    2  C   UNL     1      43.710 -11.464   8.142  1.00  0.00     0.046 A 
HETATM    3  C   UNL     1      44.711 -10.466   8.129  1.00  0.00     0.030 A 
HETATM    4  C   UNL     1      45.719 -10.540   7.174  1.00  0.00     0.063 A 
HETATM    5  N   UNL     1      46.520  -9.458   7.409  1.00  0.00    -0.277 N 
HETATM    6  H   UNL     1      47.356  -9.192   6.901  1.00  0.00     0.189 HD
HETATM    7  N   UNL     1      46.125  -8.683   8.432  1.00  0.00    -0.168 NA
HETATM    8  C   UNL     1      45.008  -9.295   8.889  1.00  0.00     0.156 A 
HETATM    9  C   UNL     1      45.793 -11.557   6.221  1.00  0.00     0.034 A 
HETATM   10  C   UNL     1      44.788 -12.531   6.253  1.00  0.00     0.032 A 
ENDROOT
BRANCH   1  11
HETATM   11  N   UNL     1      42.796 -13.535   7.125  1.00  0.00    -0.327 N 
HETATM   12  C   UNL     1      43.029 -14.878   6.936  1.00  0.00     0.227 C 
HETATM   13  O   UNL     1      44.113 -15.437   6.852  1.00  0.00    -0.273 OA
HETATM   14  H   UNL     1      41.832 -13.259   7.243  1.00  0.00     0.169 HD
BRANCH  12  15
HETATM   15  C   UNL     1      41.807 -15.731   6.905  1.00  0.00     0.087 A 
HETATM   16  C   UNL     1      41.336 -16.435   5.641  1.00  0.00     0.034 A 
HETATM   17  C   UNL     1      40.504 -15.339   6.272  1.00  0.00     0.025 A 
BRANCH  16  18
HETATM   18  C   UNL     1      41.905 -16.200   4.248  1.00  0.00    -0.031 A 
HETATM   19  C   UNL     1      41.423 -15.157   3.435  1.00  0.00     0.009 A 
HETATM   20  C   UNL     1      41.933 -14.917   2.154  1.00  0.00     0.001 A 
HETATM   21  C   UNL     1      42.967 -15.701   1.657  1.00  0.00     0.002 A 
HETATM   22  C   UNL     1      43.497 -16.716   2.445  1.00  0.00     0.024 A 
HETATM   23  C   UNL     1      42.978 -16.956   3.724  1.00  0.00     0.040 A 
HETATM   24 CL   UNL     1      43.734 -18.206   4.656  1.00  0.00    -0.084 Cl
ENDBRANCH  16  18
ENDBRANCH  12  15
ENDBRANCH   1  11
BRANCH   8  25
HETATM   25  C   UNL     1      44.257  -8.751  10.030  1.00  0.00     0.270 C 
HETATM   26  N   UNL     1      43.460  -7.684   9.716  1.00  0.00    -0.365 N 
HETATM   27  H   UNL     1      43.442  -7.359   8.757  1.00  0.00     0.159 HD
HETATM   28  H   UNL     1      42.902  -7.250  10.434  1.00  0.00     0.159 HD
HETATM   29  O   UNL     1      44.311  -9.186  11.175  1.00  0.00    -0.266 OA
ENDBRANCH   8  25
TORSDOF 4
ENDMDL
MODEL 3
REMARK VINA RESULT:      -8.2      5.542      7.896
REMARK  4 active torsions:
REMARK  status: ('A' for Active; 'I' for Inactive)
REMARK    1  A    between atoms: C_3  and  C_4 
REMARK    2  A    between atoms: C_5  and  C_6 
REMARK       I    between atoms: C_6  and  N_7 
REMARK    3  A    between atoms: N_7  and  C_8 
REMARK    4  A    between atoms: C_15  and  C_16 
REMARK       I    between atoms: C_16  and  N_17 
ROOT
HETATM    1  C   UNL     1      43.272 -11.873   6.683  1.00  0.00     0.035 A 
HETATM    2  C   UNL     1      43.119 -10.627   7.306  1.00  0.00     0.046 A 
HETATM    3  C   UNL     1      44.264  -9.870   7.643  1.00  0.00     0.030 A 
HETATM    4  C   UNL     1      45.520 -10.388   7.351  1.00  0.00     0.063 A 
HETATM    5  N   UNL     1      46.410  -9.447   7.785  1.00  0.00    -0.277 N 
HETATM    6  H   UNL     1      47.422  -9.489   7.733  1.00  0.00     0.189 HD
HETATM    7  N   UNL     1      45.847  -8.358   8.335  1.00  0.00    -0.168 NA
HETATM    8  C   UNL     1      44.519  -8.607   8.257  1.00  0.00     0.156 A 
HETATM    9  C   UNL     1      45.710 -11.627   6.736  1.00  0.00     0.034 A 
HETATM   10  C   UNL     1      44.559 -12.356   6.410  1.00  0.00     0.032 A 
ENDROOT
BRANCH   1  11
HETATM   11  N   UNL     1      42.192 -12.699   6.305  1.00  0.00    -0.327 N 
HETATM   12  C   UNL     1      41.909 -13.191   5.051  1.00  0.00     0.227 C 
HETATM   13  O   UNL     1      42.575 -13.055   4.035  1.00  0.00    -0.273 OA
HETATM   14  H   UNL     1      41.563 -12.972   7.046  1.00  0.00     0.169 HD
BRANCH  12  15
HETATM   15  C   UNL     1      40.687 -14.039   4.968  1.00  0.00     0.087 A 
HETATM   16  C   UNL     1      40.745 -15.559   4.993  1.00  0.00     0.034 A 
HETATM   17  C   UNL     1      40.269 -14.824   3.758  1.00  0.00     0.025 A 
BRANCH  16  18
HETATM   18  C   UNL     1      42.022 -16.384   4.896  1.00  0.00    -0.031 A 
HETATM   19  C   UNL     1      42.453 -16.908   3.663  1.00  0.00     0.009 A 
HETATM   20  C   UNL     1      43.624 -17.665   3.545  1.00  0.00     0.001 A 
HETATM   21  C   UNL     1      44.419 -17.897   4.661  1.00  0.00     0.002 A 
HETATM   22  C   UNL     1      44.048 -17.362   5.889  1.00  0.00     0.024 A 
HETATM   23  C   UNL     1      42.870 -16.611   6.002  1.00  0.00     0.040 A 
HETATM   24 CL   UNL     1      42.513 -15.939   7.559  1.00  0.00    -0.084 Cl
ENDBRANCH  16  18
ENDBRANCH  12  15
ENDBRANCH   1  11
BRANCH   8  25
HETATM   25  C   UNL     1      43.535  -7.639   8.763  1.00  0.00     0.270 C 
HETATM   26  N   UNL     1      43.248  -7.780  10.095  1.00  0.00    -0.365 N 
HETATM   27  H   UNL     1      43.718  -8.510  10.616  1.00  0.00     0.159 HD
HETATM   28  H   UNL     1      42.590  -7.156  10.531  1.00  0.00     0.159 HD
HETATM   29  O   UNL     1      42.997  -6.769   8.088  1.00  0.00    -0.266 OA
ENDBRANCH   8  25
TORSDOF 4
ENDMDL
MODEL 4
REMARK VINA RESULT:      -7.9      3.419      4.909
REMARK  4 active torsions:
REMARK  status: ('A' for Active; 'I' for Inactive)
REMARK    1  A    between atoms: C_3  and  C_4 
REMARK    2  A    between atoms: C_5  and  C_6 
REMARK       I    between atoms: C_6  and  N_7 
REMARK    3  A    between atoms: N_7  and  C_8 
REMARK    4  A    between atoms: C_15  and  C_16 
REMARK       I    between atoms: C_16  and  N_17 
ROOT
HETATM    1  C   UNL     1      39.700 -13.113   3.163  1.00  0.00     0.035 A 
HETATM    2  C   UNL     1      39.738 -12.536   4.441  1.00  0.00     0.046 A 
HETATM    3  C   UNL     1      39.161 -11.263   4.649  1.00  0.00     0.030 A 
HETATM    4  C   UNL     1      38.572 -10.609   3.573  1.00  0.00     0.063 A 
HETATM    5  N   UNL     1      38.111  -9.426   4.077  1.00  0.00    -0.277 N 
HETATM    6  H   UNL     1      37.624  -8.693   3.573  1.00  0.00     0.189 HD
HETATM    7  N   UNL     1      38.345  -9.248   5.387  1.00  0.00    -0.168 NA
HETATM    8  C   UNL     1      38.997 -10.376   5.755  1.00  0.00     0.156 A 
HETATM    9  C   UNL     1      38.522 -11.150   2.287  1.00  0.00     0.034 A 
HETATM   10  C   UNL     1      39.098 -12.415   2.108  1.00  0.00     0.032 A 
ENDROOT
BRANCH   1  11
HETATM   11  N   UNL     1      40.245 -14.379   2.857  1.00  0.00    -0.327 N 
HETATM   12  C   UNL     1      41.570 -14.701   2.679  1.00  0.00     0.227 C 
HETATM   13  O   UNL     1      42.536 -13.964   2.812  1.00  0.00    -0.273 OA
HETATM   14  H   UNL     1      39.583 -15.137   2.774  1.00  0.00     0.169 HD
BRANCH  12  15
HETATM   15  C   UNL     1      41.833 -16.133   2.359  1.00  0.00     0.087 A 
HETATM   16  C   UNL     1      42.285 -17.134   3.411  1.00  0.00     0.034 A 
HETATM   17  C   UNL     1      43.196 -16.753   2.263  1.00  0.00     0.025 A 
BRANCH  16  18
HETATM   18  C   UNL     1      42.718 -16.776   4.827  1.00  0.00    -0.031 A 
HETATM   19  C   UNL     1      44.081 -16.673   5.163  1.00  0.00     0.009 A 
HETATM   20  C   UNL     1      44.504 -16.340   6.455  1.00  0.00     0.001 A 
HETATM   21  C   UNL     1      43.570 -16.071   7.448  1.00  0.00     0.002 A 
HETATM   22  C   UNL     1      42.214 -16.124   7.144  1.00  0.00     0.024 A 
HETATM   23  C   UNL     1      41.796 -16.465   5.851  1.00  0.00     0.040 A 
HETATM   24 CL   UNL     1      40.090 -16.455   5.549  1.00  0.00    -0.084 Cl
ENDBRANCH  16  18
ENDBRANCH  12  15
ENDBRANCH   1  11
BRANCH   8  25
HETATM   25  C   UNL     1      39.441 -10.578   7.142  1.00  0.00     0.270 C 
HETATM   26  N   UNL     1      40.793 -10.455   7.319  1.00  0.00    -0.365 N 
HETATM   27  H   UNL     1      41.369 -10.241   6.514  1.00  0.00     0.159 HD
HETATM   28  H   UNL     1      41.187 -10.570   8.238  1.00  0.00     0.159 HD
HETATM   29  O   UNL     1      38.699 -10.833   8.084  1.00  0.00    -0.266 OA
ENDBRANCH   8  25
TORSDOF 4
ENDMDL
MODEL 5
REMARK VINA RESULT:      -7.9      3.194      4.780
REMARK  4 active torsions:
REMARK  status: ('A' for Active; 'I' for Inactive)
REMARK    1  A    between atoms: C_3  and  C_4 
REMARK    2  A    between atoms: C_5  and  C_6 
REMARK       I    between atoms: C_6  and  N_7 
REMARK    3  A    between atoms: N_7  and  C_8 
REMARK    4  A    between atoms: C_15  and  C_16 
REMARK       I    between atoms: C_16  and  N_17 
ROOT
HETATM    1  C   UNL     1      41.362 -14.424   3.707  1.00  0.00     0.035 A 
HETATM    2  C   UNL     1      40.807 -13.180   4.040  1.00  0.00     0.046 A 
HETATM    3  C   UNL     1      39.846 -12.593   3.186  1.00  0.00     0.030 A 
HETATM    4  C   UNL     1      39.477 -13.267   2.028  1.00  0.00     0.063 A 
HETATM    5  N   UNL     1      38.551 -12.467   1.423  1.00  0.00    -0.277 N 
HETATM    6  H   UNL     1      38.062 -12.644   0.552  1.00  0.00     0.189 HD
HETATM    7  N   UNL     1      38.279 -11.329   2.083  1.00  0.00    -0.168 NA
HETATM    8  C   UNL     1      39.075 -11.392   3.175  1.00  0.00     0.156 A 
HETATM    9  C   UNL     1      40.013 -14.504   1.663  1.00  0.00     0.034 A 
HETATM   10  C   UNL     1      40.961 -15.065   2.527  1.00  0.00     0.032 A 
ENDROOT
BRANCH   1  11
HETATM   11  N   UNL     1      42.324 -15.090   4.497  1.00  0.00    -0.327 N 
HETATM   12  C   UNL     1      42.108 -16.092   5.415  1.00  0.00     0.227 C 
HETATM   13  O   UNL     1      41.046 -16.639   5.678  1.00  0.00    -0.273 OA
HETATM   14  H   UNL     1      43.283 -14.807   4.359  1.00  0.00     0.169 HD
BRANCH  12  15
HETATM   15  C   UNL     1      43.333 -16.596   6.097  1.00  0.00     0.087 A 
HETATM   16  C   UNL     1      44.218 -17.676   5.491  1.00  0.00     0.034 A 
HETATM   17  C   UNL     1      43.450 -17.932   6.771  1.00  0.00     0.025 A 
BRANCH  16  18
HETATM   18  C   UNL     1      43.868 -18.501   4.260  1.00  0.00    -0.031 A 
HETATM   19  C   UNL     1      43.500 -17.879   3.052  1.00  0.00     0.009 A 
HETATM   20  C   UNL     1      43.179 -18.614   1.906  1.00  0.00     0.001 A 
HETATM   21  C   UNL     1      43.245 -20.002   1.926  1.00  0.00     0.002 A 
HETATM   22  C   UNL     1      43.643 -20.651   3.089  1.00  0.00     0.024 A 
HETATM   23  C   UNL     1      43.957 -19.910   4.236  1.00  0.00     0.040 A 
HETATM   24 CL   UNL     1      44.494 -20.800   5.623  1.00  0.00    -0.084 Cl
ENDBRANCH  16  18
ENDBRANCH  12  15
ENDBRANCH   1  11
BRANCH   8  25
HETATM   25  C   UNL     1      39.079 -10.313   4.174  1.00  0.00     0.270 C 
HETATM   26  N   UNL     1      37.924  -9.578   4.207  1.00  0.00    -0.365 N 
HETATM   27  H   UNL     1      37.177  -9.822   3.568  1.00  0.00     0.159 HD
HETATM   28  H   UNL     1      37.833  -8.822   4.866  1.00  0.00     0.159 HD
HETATM   29  O   UNL     1      40.011 -10.062   4.929  1.00  0.00    -0.266 OA
ENDBRANCH   8  25
TORSDOF 4
ENDMDL
MODEL 6
REMARK VINA RESULT:      -7.9      2.456      3.819
REMARK  4 active torsions:
REMARK  status: ('A' for Active; 'I' for Inactive)
REMARK    1  A    between atoms: C_3  and  C_4 
REMARK    2  A    between atoms: C_5  and  C_6 
REMARK       I    between atoms: C_6  and  N_7 
REMARK    3  A    between atoms: N_7  and  C_8 
REMARK    4  A    between atoms: C_15  and  C_16 
REMARK       I    between atoms: C_16  and  N_17 
ROOT
HETATM    1  C   UNL     1      41.705 -15.008   2.386  1.00  0.00     0.035 A 
HETATM    2  C   UNL     1      41.736 -13.697   1.889  1.00  0.00     0.046 A 
HETATM    3  C   UNL     1      40.859 -13.326   0.845  1.00  0.00     0.030 A 
HETATM    4  C   UNL     1      39.986 -14.278   0.331  1.00  0.00     0.063 A 
HETATM    5  N   UNL     1      39.281 -13.633  -0.644  1.00  0.00    -0.277 N 
HETATM    6  H   UNL     1      38.552 -14.022  -1.233  1.00  0.00     0.189 HD
HETATM    7  N   UNL     1      39.613 -12.343  -0.814  1.00  0.00    -0.168 NA
HETATM    8  C   UNL     1      40.591 -12.139   0.099  1.00  0.00     0.156 A 
HETATM    9  C   UNL     1      39.932 -15.593   0.797  1.00  0.00     0.034 A 
HETATM   10  C   UNL     1      40.810 -15.935   1.834  1.00  0.00     0.032 A 
ENDROOT
BRANCH   1  11
HETATM   11  N   UNL     1      42.537 -15.472   3.427  1.00  0.00    -0.327 N 
HETATM   12  C   UNL     1      42.153 -16.060   4.610  1.00  0.00     0.227 C 
HETATM   13  O   UNL     1      41.017 -16.348   4.959  1.00  0.00    -0.273 OA
HETATM   14  H   UNL     1      43.531 -15.373   3.277  1.00  0.00     0.169 HD
BRANCH  12  15
HETATM   15  C   UNL     1      43.272 -16.443   5.517  1.00  0.00     0.087 A 
HETATM   16  C   UNL     1      44.188 -17.623   5.229  1.00  0.00     0.034 A 
HETATM   17  C   UNL     1      43.266 -17.633   6.430  1.00  0.00     0.025 A 
BRANCH  16  18
HETATM   18  C   UNL     1      43.960 -18.657   4.134  1.00  0.00    -0.031 A 
HETATM   19  C   UNL     1      43.778 -18.265   2.795  1.00  0.00     0.009 A 
HETATM   20  C   UNL     1      43.572 -19.194   1.769  1.00  0.00     0.001 A 
HETATM   21  C   UNL     1      43.571 -20.555   2.052  1.00  0.00     0.002 A 
HETATM   22  C   UNL     1      43.787 -20.983   3.356  1.00  0.00     0.024 A 
HETATM   23  C   UNL     1      43.986 -20.048   4.380  1.00  0.00     0.040 A 
HETATM   24 CL   UNL     1      44.301 -20.673   5.965  1.00  0.00    -0.084 Cl
ENDBRANCH  16  18
ENDBRANCH  12  15
ENDBRANCH   1  11
BRANCH   8  25
HETATM   25  C   UNL     1      41.238 -10.826   0.237  1.00  0.00     0.270 C 
HETATM   26  N   UNL     1      41.586 -10.247  -0.954  1.00  0.00    -0.365 N 
HETATM   27  H   UNL     1      41.380 -10.744  -1.812  1.00  0.00     0.159 HD
HETATM   28  H   UNL     1      42.029  -9.342  -0.957  1.00  0.00     0.159 HD
HETATM   29  O   UNL     1      41.462 -10.265   1.304  1.00  0.00    -0.266 OA
ENDBRANCH   8  25
TORSDOF 4
ENDMDL
MODEL 7
REMARK VINA RESULT:      -7.7      2.883      7.397
REMARK  4 active torsions:
REMARK  status: ('A' for Active; 'I' for Inactive)
REMARK    1  A    between atoms: C_3  and  C_4 
REMARK    2  A    between atoms: C_5  and  C_6 
REMARK       I    between atoms: C_6  and  N_7 
REMARK    3  A    between atoms: N_7  and  C_8 
REMARK    4  A    between atoms: C_15  and  C_16 
REMARK       I    between atoms: C_16  and  N_17 
ROOT
HETATM    1  C   UNL     1      42.562 -15.736   2.107  1.00  0.00     0.035 A 
HETATM    2  C   UNL     1      42.865 -17.105   2.137  1.00  0.00     0.046 A 
HETATM    3  C   UNL     1      43.357 -17.684   3.328  1.00  0.00     0.030 A 
HETATM    4  C   UNL     1      43.532 -16.876   4.445  1.00  0.00     0.063 A 
HETATM    5  N   UNL     1      44.008 -17.704   5.421  1.00  0.00    -0.277 N 
HETATM    6  H   UNL     1      44.250 -17.454   6.374  1.00  0.00     0.189 HD
HETATM    7  N   UNL     1      44.159 -18.984   5.043  1.00  0.00    -0.168 NA
HETATM    8  C   UNL     1      43.762 -18.987   3.749  1.00  0.00     0.156 A 
HETATM    9  C   UNL     1      43.246 -15.509   4.449  1.00  0.00     0.034 A 
HETATM   10  C   UNL     1      42.758 -14.960   3.257  1.00  0.00     0.032 A 
ENDROOT
BRANCH   1  11
HETATM   11  N   UNL     1      42.064 -15.068   0.967  1.00  0.00    -0.327 N 
HETATM   12  C   UNL     1      40.747 -14.864   0.623  1.00  0.00     0.227 C 
HETATM   13  O   UNL     1      39.756 -15.170   1.270  1.00  0.00    -0.273 OA
HETATM   14  H   UNL     1      42.756 -14.684   0.341  1.00  0.00     0.169 HD
BRANCH  12  15
HETATM   15  C   UNL     1      40.538 -14.121  -0.652  1.00  0.00     0.087 A 
HETATM   16  C   UNL     1      40.039 -12.684  -0.687  1.00  0.00     0.034 A 
HETATM   17  C   UNL     1      39.198 -13.809  -1.252  1.00  0.00     0.025 A 
BRANCH  16  18
HETATM   18  C   UNL     1      39.506 -11.917   0.516  1.00  0.00    -0.031 A 
HETATM   19  C   UNL     1      38.124 -11.718   0.694  1.00  0.00     0.009 A 
HETATM   20  C   UNL     1      37.608 -11.022   1.793  1.00  0.00     0.001 A 
HETATM   21  C   UNL     1      38.465 -10.525   2.768  1.00  0.00     0.002 A 
HETATM   22  C   UNL     1      39.834 -10.736   2.648  1.00  0.00     0.024 A 
HETATM   23  C   UNL     1      40.344 -11.428   1.542  1.00  0.00     0.040 A 
HETATM   24 CL   UNL     1      42.057 -11.689   1.502  1.00  0.00    -0.084 Cl
ENDBRANCH  16  18
ENDBRANCH  12  15
ENDBRANCH   1  11
BRANCH   8  25
HETATM   25  C   UNL     1      43.777 -20.223   2.953  1.00  0.00     0.270 C 
HETATM   26  N   UNL     1      44.034 -21.353   3.682  1.00  0.00    -0.365 N 
HETATM   27  H   UNL     1      44.187 -21.262   4.679  1.00  0.00     0.159 HD
HETATM   28  H   UNL     1      44.057 -22.249   3.222  1.00  0.00     0.159 HD
HETATM   29  O   UNL     1      43.581 -20.280   1.744  1.00  0.00    -0.266 OA
ENDBRANCH   8  25
TORSDOF 4
ENDMDL
MODEL 8
REMARK VINA RESULT:      -7.7      4.487      6.512
REMARK  4 active torsions:
REMARK  status: ('A' for Active; 'I' for Inactive)
REMARK    1  A    between atoms: C_3  and  C_4 
REMARK    2  A    between atoms: C_5  and  C_6 
REMARK       I    between atoms: C_6  and  N_7 
REMARK    3  A    between atoms: N_7  and  C_8 
REMARK    4  A    between atoms: C_15  and  C_16 
REMARK       I    between atoms: C_16  and  N_17 
ROOT
HETATM    1  C   UNL     1      41.051 -11.898   5.001  1.00  0.00     0.035 A 
HETATM    2  C   UNL     1      41.955 -11.786   6.067  1.00  0.00     0.046 A 
HETATM    3  C   UNL     1      42.237 -10.513   6.613  1.00  0.00     0.030 A 
HETATM    4  C   UNL     1      41.610  -9.398   6.071  1.00  0.00     0.063 A 
HETATM    5  N   UNL     1      42.073  -8.336   6.794  1.00  0.00    -0.277 N 
HETATM    6  H   UNL     1      41.827  -7.358   6.675  1.00  0.00     0.189 HD
HETATM    7  N   UNL     1      42.946  -8.657   7.762  1.00  0.00    -0.168 NA
HETATM    8  C   UNL     1      43.059 -10.002   7.661  1.00  0.00     0.156 A 
HETATM    9  C   UNL     1      40.710  -9.471   5.006  1.00  0.00     0.034 A 
HETATM   10  C   UNL     1      40.446 -10.744   4.485  1.00  0.00     0.032 A 
ENDROOT
BRANCH   1  11
HETATM   11  N   UNL     1      40.704 -13.123   4.392  1.00  0.00    -0.327 N 
HETATM   12  C   UNL     1      41.310 -13.727   3.314  1.00  0.00     0.227 C 
HETATM   13  O   UNL     1      42.306 -13.346   2.716  1.00  0.00    -0.273 OA
HETATM   14  H   UNL     1      39.928 -13.619   4.806  1.00  0.00     0.169 HD
BRANCH  12  15
HETATM   15  C   UNL     1      40.708 -15.024   2.897  1.00  0.00     0.087 A 
HETATM   16  C   UNL     1      40.973 -16.324   3.643  1.00  0.00     0.034 A 
HETATM   17  C   UNL     1      41.453 -16.137   2.219  1.00  0.00     0.025 A 
BRANCH  16  18
HETATM   18  C   UNL     1      42.014 -16.503   4.740  1.00  0.00    -0.031 A 
HETATM   19  C   UNL     1      43.350 -16.815   4.425  1.00  0.00     0.009 A 
HETATM   20  C   UNL     1      44.327 -16.979   5.413  1.00  0.00     0.001 A 
HETATM   21  C   UNL     1      44.001 -16.807   6.753  1.00  0.00     0.002 A 
HETATM   22  C   UNL     1      42.700 -16.460   7.101  1.00  0.00     0.024 A 
HETATM   23  C   UNL     1      41.725 -16.303   6.108  1.00  0.00     0.040 A 
HETATM   24 CL   UNL     1      40.144 -15.818   6.629  1.00  0.00    -0.084 Cl
ENDBRANCH  16  18
ENDBRANCH  12  15
ENDBRANCH   1  11
BRANCH   8  25
HETATM   25  C   UNL     1      43.941 -10.759   8.561  1.00  0.00     0.270 C 
HETATM   26  N   UNL     1      43.522 -10.783   9.864  1.00  0.00    -0.365 N 
HETATM   27  H   UNL     1      42.666 -10.299  10.106  1.00  0.00     0.159 HD
HETATM   28  H   UNL     1      44.060 -11.284  10.552  1.00  0.00     0.159 HD
HETATM   29  O   UNL     1      44.968 -11.332   8.215  1.00  0.00    -0.266 OA
ENDBRANCH   8  25
TORSDOF 4
ENDMDL
MODEL 9
REMARK VINA RESULT:      -7.5      2.016      3.358
REMARK  4 active torsions:
REMARK  status: ('A' for Active; 'I' for Inactive)
REMARK    1  A    between atoms: C_3  and  C_4 
REMARK    2  A    between atoms: C_5  and  C_6 
REMARK       I    between atoms: C_6  and  N_7 
REMARK    3  A    between atoms: N_7  and  C_8 
REMARK    4  A    between atoms: C_15  and  C_16 
REMARK       I    between atoms: C_16  and  N_17 
ROOT
HETATM    1  C   UNL     1      39.500 -12.813   3.282  1.00  0.00     0.035 A 
HETATM    2  C   UNL     1      39.644 -13.278   1.967  1.00  0.00     0.046 A 
HETATM    3  C   UNL     1      39.328 -12.424   0.886  1.00  0.00     0.030 A 
HETATM    4  C   UNL     1      38.875 -11.139   1.157  1.00  0.00     0.063 A 
HETATM    5  N   UNL     1      38.659 -10.567  -0.064  1.00  0.00    -0.277 N 
HETATM    6  H   UNL     1      38.324  -9.627  -0.251  1.00  0.00     0.189 HD
HETATM    7  N   UNL     1      38.932 -11.363  -1.110  1.00  0.00    -0.168 NA
HETATM    8  C   UNL     1      39.346 -12.517  -0.538  1.00  0.00     0.156 A 
HETATM    9  C   UNL     1      38.713 -10.645   2.453  1.00  0.00     0.034 A 
HETATM   10  C   UNL     1      39.035 -11.510   3.507  1.00  0.00     0.032 A 
ENDROOT
BRANCH   1  11
HETATM   11  N   UNL     1      39.792 -13.588   4.425  1.00  0.00    -0.327 N 
HETATM   12  C   UNL     1      40.922 -13.535   5.209  1.00  0.00     0.227 C 
HETATM   13  O   UNL     1      41.863 -12.762   5.100  1.00  0.00    -0.273 OA
HETATM   14  H   UNL     1      39.082 -14.248   4.707  1.00  0.00     0.169 HD
BRANCH  12  15
HETATM   15  C   UNL     1      40.940 -14.489   6.354  1.00  0.00     0.087 A 
HETATM   16  C   UNL     1      41.640 -15.838   6.280  1.00  0.00     0.034 A 
HETATM   17  C   UNL     1      40.135 -15.753   6.428  1.00  0.00     0.025 A 
BRANCH  16  18
HETATM   18  C   UNL     1      42.208 -16.457   5.010  1.00  0.00    -0.031 A 
HETATM   19  C   UNL     1      41.417 -16.589   3.853  1.00  0.00     0.009 A 
HETATM   20  C   UNL     1      41.916 -17.149   2.672  1.00  0.00     0.001 A 
HETATM   21  C   UNL     1      43.238 -17.572   2.604  1.00  0.00     0.002 A 
HETATM   22  C   UNL     1      44.062 -17.422   3.714  1.00  0.00     0.024 A 
HETATM   23  C   UNL     1      43.555 -16.866   4.896  1.00  0.00     0.040 A 
HETATM   24 CL   UNL     1      44.667 -16.669   6.211  1.00  0.00    -0.084 Cl
ENDBRANCH  16  18
ENDBRANCH  12  15
ENDBRANCH   1  11
BRANCH   8  25
HETATM   25  C   UNL     1      39.745 -13.670  -1.358  1.00  0.00     0.270 C 
HETATM   26  N   UNL     1      40.818 -13.430  -2.174  1.00  0.00    -0.365 N 
HETATM   27  H   UNL     1      41.245 -12.513  -2.154  1.00  0.00     0.159 HD
HETATM   28  H   UNL     1      41.167 -14.165  -2.767  1.00  0.00     0.159 HD
HETATM   29  O   UNL     1      39.194 -14.765  -1.342  1.00  0.00    -0.266 OA
ENDBRANCH   8  25
TORSDOF 4
ENDMDL
MODEL 10
REMARK VINA RESULT:      -7.5      2.733      3.691
REMARK  4 active torsions:
REMARK  status: ('A' for Active; 'I' for Inactive)
REMARK    1  A    between atoms: C_3  and  C_4 
REMARK    2  A    between atoms: C_5  and  C_6 
REMARK       I    between atoms: C_6  and  N_7 
REMARK    3  A    between atoms: N_7  and  C_8 
REMARK    4  A    between atoms: C_15  and  C_16 
REMARK       I    between atoms: C_16  and  N_17 
ROOT
HETATM    1  C   UNL     1      39.950 -14.081  -0.368  1.00  0.00     0.035 A 
HETATM    2  C   UNL     1      39.454 -12.850   0.083  1.00  0.00     0.046 A 
HETATM    3  C   UNL     1      38.461 -12.181  -0.667  1.00  0.00     0.030 A 
HETATM    4  C   UNL     1      38.003 -12.763  -1.843  1.00  0.00     0.063 A 
HETATM    5  N   UNL     1      37.065 -11.899  -2.333  1.00  0.00    -0.277 N 
HETATM    6  H   UNL     1      36.520 -12.003  -3.182  1.00  0.00     0.189 HD
HETATM    7  N   UNL     1      36.868 -10.804  -1.581  1.00  0.00    -0.168 NA
HETATM    8  C   UNL     1      37.727 -10.963  -0.548  1.00  0.00     0.156 A 
HETATM    9  C   UNL     1      38.478 -13.984  -2.325  1.00  0.00     0.034 A 
HETATM   10  C   UNL     1      39.460 -14.628  -1.561  1.00  0.00     0.032 A 
ENDROOT
BRANCH   1  11
HETATM   11  N   UNL     1      40.938 -14.826   0.312  1.00  0.00    -0.327 N 
HETATM   12  C   UNL     1      40.800 -15.526   1.489  1.00  0.00     0.227 C 
HETATM   13  O   UNL     1      39.777 -15.687   2.139  1.00  0.00    -0.273 OA
HETATM   14  H   UNL     1      41.848 -14.858  -0.125  1.00  0.00     0.169 HD
BRANCH  12  15
HETATM   15  C   UNL     1      42.035 -16.213   1.962  1.00  0.00     0.087 A 
HETATM   16  C   UNL     1      42.954 -15.608   3.012  1.00  0.00     0.034 A 
HETATM   17  C   UNL     1      43.433 -15.815   1.591  1.00  0.00     0.025 A 
BRANCH  16  18
HETATM   18  C   UNL     1      42.854 -14.183   3.541  1.00  0.00    -0.031 A 
HETATM   19  C   UNL     1      43.404 -13.104   2.824  1.00  0.00     0.009 A 
HETATM   20  C   UNL     1      43.321 -11.786   3.285  1.00  0.00     0.001 A 
HETATM   21  C   UNL     1      42.656 -11.502   4.472  1.00  0.00     0.002 A 
HETATM   22  C   UNL     1      42.066 -12.537   5.189  1.00  0.00     0.024 A 
HETATM   23  C   UNL     1      42.158 -13.856   4.726  1.00  0.00     0.040 A 
HETATM   24 CL   UNL     1      41.347 -15.073   5.655  1.00  0.00    -0.084 Cl
ENDBRANCH  16  18
ENDBRANCH  12  15
ENDBRANCH   1  11
BRANCH   8  25
HETATM   25  C   UNL     1      37.823  -9.957   0.520  1.00  0.00     0.270 C 
HETATM   26  N   UNL     1      37.099 -10.262   1.642  1.00  0.00    -0.365 N 
HETATM   27  H   UNL     1      36.572 -11.126   1.657  1.00  0.00     0.159 HD
HETATM   28  H   UNL     1      37.111  -9.634   2.429  1.00  0.00     0.159 HD
HETATM   29  O   UNL     1      38.482  -8.925   0.453  1.00  0.00    -0.266 OA
ENDBRANCH   8  25
TORSDOF 4
ENDMDL
