MODEL 1
REMARK VINA RESULT:      -9.1      0.000      0.000
REMARK  7 active torsions:
REMARK  status: ('A' for Active; 'I' for Inactive)
REMARK    1  A    between atoms: C_4  and  N_5 
REMARK       I    between atoms: N_5  and  C_6 
REMARK    2  A    between atoms: C_6  and  C_7 
REMARK    3  A    between atoms: C_7  and  N_8 
REMARK    4  A    between atoms: N_8  and  C_9 
REMARK    5  A    between atoms: C_10  and  C_11 
REMARK    6  A    between atoms: C_16  and  N_17 
REMARK       I    between atoms: N_17  and  C_18 
REMARK    7  A    between atoms: C_18  and  C_19 
ROOT
HETATM    1  C   UNL     1      42.233 -14.207   4.163  1.00  0.00     0.024 A 
HETATM    2  C   UNL     1      40.914 -13.701   4.167  1.00  0.00     0.071 A 
HETATM    3  C   UNL     1      40.140 -13.700   2.980  1.00  0.00     0.047 A 
HETATM    4  C   UNL     1      40.655 -14.182   1.780  1.00  0.00     0.035 A 
HETATM    5  C   UNL     1      41.963 -14.654   1.768  1.00  0.00     0.031 A 
HETATM    6  C   UNL     1      42.742 -14.647   2.933  1.00  0.00     0.026 A 
ENDROOT
BRANCH   1   7
HETATM    7  N   UNL     1      43.036 -14.095   5.301  1.00  0.00    -0.284 NA
HETATM    8  H   UNL     1      43.068 -13.136   5.667  1.00  0.00     0.128 HD
BRANCH   7   9
HETATM    9  C   UNL     1      42.947 -15.043   6.437  1.00  0.00     0.195 C 
BRANCH   9  10
HETATM   10  C   UNL     1      42.562 -16.445   5.933  1.00  0.00     0.235 C 
HETATM   11  N   UNL     1      43.671 -17.154   5.506  1.00  0.00    -0.326 N 
HETATM   12  H   UNL     1      44.548 -16.655   5.648  1.00  0.00     0.169 HD
HETATM   13  O   UNL     1      41.390 -16.808   5.894  1.00  0.00    -0.272 OA
BRANCH  11  14
HETATM   14  C   UNL     1      43.736 -18.433   4.931  1.00  0.00     0.035 A 
HETATM   15  C   UNL     1      43.697 -18.669   3.556  1.00  0.00     0.036 A 
HETATM   16  C   UNL     1      43.786 -19.978   3.051  1.00  0.00    -0.060 A 
HETATM   17  C   UNL     1      43.714 -20.225   1.572  1.00  0.00     0.048 C 
HETATM   18  C   UNL     1      43.884 -21.052   3.942  1.00  0.00     0.007 A 
HETATM   19  C   UNL     1      43.921 -20.823   5.315  1.00  0.00     0.003 A 
HETATM   20  C   UNL     1      43.850 -19.518   5.807  1.00  0.00     0.029 A 
ENDBRANCH  11  14
ENDBRANCH   9  10
ENDBRANCH   7   9
ENDBRANCH   1   7
BRANCH   2  21
HETATM   21  C   UNL     1      40.286 -13.099   5.402  1.00  0.00     0.419 C 
HETATM   22  F   UNL     1      39.115 -12.440   5.145  1.00  0.00    -0.166 F 
HETATM   23  F   UNL     1      39.980 -14.036   6.342  1.00  0.00    -0.166 F 
HETATM   24  F   UNL     1      41.081 -12.184   6.027  1.00  0.00    -0.166 F 
ENDBRANCH   2  21
BRANCH   4  25
HETATM   25  N   UNL     1      39.945 -14.213   0.568  1.00  0.00    -0.321 N 
HETATM   26  C   UNL     1      40.103 -13.405  -0.544  1.00  0.00     0.279 C 
HETATM   27  O   UNL     1      40.934 -12.510  -0.660  1.00  0.00    -0.265 OA
HETATM   28  H   UNL     1      39.219 -14.915   0.474  1.00  0.00     0.169 HD
BRANCH  26  29
HETATM   29  C   UNL     1      39.162 -13.726  -1.603  1.00  0.00     0.142 A 
HETATM   30  O   UNL     1      37.958 -13.069  -1.658  1.00  0.00    -0.317 OA
HETATM   31  C   UNL     1      37.287 -13.553  -2.736  1.00  0.00     0.143 A 
HETATM   32  C   UNL     1      38.033 -14.513  -3.378  1.00  0.00     0.027 A 
HETATM   33  C   UNL     1      39.240 -14.628  -2.648  1.00  0.00     0.045 A 
ENDBRANCH  26  29
ENDBRANCH   4  25
TORSDOF 7
ENDMDL
MODEL 2
REMARK VINA RESULT:      -8.9      3.803      8.668
REMARK  7 active torsions:
REMARK  status: ('A' for Active; 'I' for Inactive)
REMARK    1  A    between atoms: C_4  and  N_5 
REMARK       I    between atoms: N_5  and  C_6 
REMARK    2  A    between atoms: C_6  and  C_7 
REMARK    3  A    between atoms: C_7  and  N_8 
REMARK    4  A    between atoms: N_8  and  C_9 
REMARK    5  A    between atoms: C_10  and  C_11 
REMARK    6  A    between atoms: C_16  and  N_17 
REMARK       I    between atoms: N_17  and  C_18 
REMARK    7  A    between atoms: C_18  and  C_19 
ROOT
HETATM    1  C   UNL     1      41.773 -15.326   4.793  1.00  0.00     0.024 A 
HETATM    2  C   UNL     1      43.016 -15.606   5.401  1.00  0.00     0.071 A 
HETATM    3  C   UNL     1      43.617 -14.667   6.274  1.00  0.00     0.047 A 
HETATM    4  C   UNL     1      43.014 -13.444   6.549  1.00  0.00     0.035 A 
HETATM    5  C   UNL     1      41.803 -13.154   5.929  1.00  0.00     0.031 A 
HETATM    6  C   UNL     1      41.206 -14.070   5.053  1.00  0.00     0.026 A 
ENDROOT
BRANCH   1   7
HETATM    7  N   UNL     1      41.240 -16.197   3.839  1.00  0.00    -0.284 NA
HETATM    8  H   UNL     1      41.038 -17.126   4.224  1.00  0.00     0.128 HD
BRANCH   7   9
HETATM    9  C   UNL     1      40.140 -15.803   2.925  1.00  0.00     0.195 C 
BRANCH   9  10
HETATM   10  C   UNL     1      40.711 -15.288   1.593  1.00  0.00     0.235 C 
HETATM   11  N   UNL     1      39.758 -14.603   0.861  1.00  0.00    -0.326 N 
HETATM   12  H   UNL     1      38.867 -14.509   1.347  1.00  0.00     0.169 HD
HETATM   13  O   UNL     1      41.867 -15.534   1.259  1.00  0.00    -0.272 OA
BRANCH  11  14
HETATM   14  C   UNL     1      39.865 -14.034  -0.418  1.00  0.00     0.035 A 
HETATM   15  C   UNL     1      40.533 -12.837  -0.683  1.00  0.00     0.036 A 
HETATM   16  C   UNL     1      40.614 -12.338  -1.994  1.00  0.00    -0.060 A 
HETATM   17  C   UNL     1      41.309 -11.036  -2.266  1.00  0.00     0.048 C 
HETATM   18  C   UNL     1      39.993 -13.036  -3.035  1.00  0.00     0.007 A 
HETATM   19  C   UNL     1      39.323 -14.230  -2.777  1.00  0.00     0.003 A 
HETATM   20  C   UNL     1      39.263 -14.728  -1.474  1.00  0.00     0.029 A 
ENDBRANCH  11  14
ENDBRANCH   9  10
ENDBRANCH   7   9
ENDBRANCH   1   7
BRANCH   2  21
HETATM   21  C   UNL     1      43.782 -16.877   5.119  1.00  0.00     0.419 C 
HETATM   22  F   UNL     1      45.030 -16.891   5.680  1.00  0.00    -0.166 F 
HETATM   23  F   UNL     1      43.153 -17.985   5.602  1.00  0.00    -0.166 F 
HETATM   24  F   UNL     1      43.985 -17.109   3.791  1.00  0.00    -0.166 F 
ENDBRANCH   2  21
BRANCH   4  25
HETATM   25  N   UNL     1      43.551 -12.468   7.404  1.00  0.00    -0.321 N 
HETATM   26  C   UNL     1      44.690 -11.700   7.229  1.00  0.00     0.279 C 
HETATM   27  O   UNL     1      45.428 -11.738   6.250  1.00  0.00    -0.265 OA
HETATM   28  H   UNL     1      43.054 -12.283   8.269  1.00  0.00     0.169 HD
BRANCH  26  29
HETATM   29  C   UNL     1      44.937 -10.810   8.350  1.00  0.00     0.142 A 
HETATM   30  O   UNL     1      44.444 -11.132   9.590  1.00  0.00    -0.317 OA
HETATM   31  C   UNL     1      44.825 -10.145  10.442  1.00  0.00     0.143 A 
HETATM   32  C   UNL     1      45.554  -9.188   9.776  1.00  0.00     0.027 A 
HETATM   33  C   UNL     1      45.626  -9.614   8.428  1.00  0.00     0.045 A 
ENDBRANCH  26  29
ENDBRANCH   4  25
TORSDOF 7
ENDMDL
MODEL 3
REMARK VINA RESULT:      -8.6      3.545      7.090
REMARK  7 active torsions:
REMARK  status: ('A' for Active; 'I' for Inactive)
REMARK    1  A    between atoms: C_4  and  N_5 
REMARK       I    between atoms: N_5  and  C_6 
REMARK    2  A    between atoms: C_6  and  C_7 
REMARK    3  A    between atoms: C_7  and  N_8 
REMARK    4  A    between atoms: N_8  and  C_9 
REMARK    5  A    between atoms: C_10  and  C_11 
REMARK    6  A    between atoms: C_16  and  N_17 
REMARK       I    between atoms: N_17  and  C_18 
REMARK    7  A    between atoms: C_18  and  C_19 
ROOT
HETATM    1  C   UNL     1      41.350 -14.082   4.008  1.00  0.00     0.024 A 
HETATM    2  C   UNL     1      41.345 -14.619   5.315  1.00  0.00     0.071 A 
HETATM    3  C   UNL     1      41.929 -13.902   6.388  1.00  0.00     0.047 A 
HETATM    4  C   UNL     1      42.532 -12.664   6.190  1.00  0.00     0.035 A 
HETATM    5  C   UNL     1      42.562 -12.146   4.899  1.00  0.00     0.031 A 
HETATM    6  C   UNL     1      42.000 -12.853   3.827  1.00  0.00     0.026 A 
ENDROOT
BRANCH   1   7
HETATM    7  N   UNL     1      40.885 -14.841   2.931  1.00  0.00    -0.284 NA
HETATM    8  H   UNL     1      39.896 -14.662   2.723  1.00  0.00     0.128 HD
BRANCH   7   9
HETATM    9  C   UNL     1      41.633 -14.958   1.656  1.00  0.00     0.195 C 
BRANCH   9  10
HETATM   10  C   UNL     1      42.691 -16.071   1.759  1.00  0.00     0.235 C 
HETATM   11  N   UNL     1      42.168 -17.218   2.329  1.00  0.00    -0.326 N 
HETATM   12  H   UNL     1      41.171 -17.151   2.531  1.00  0.00     0.169 HD
HETATM   13  O   UNL     1      43.851 -15.881   1.406  1.00  0.00    -0.272 OA
BRANCH  11  14
HETATM   14  C   UNL     1      42.815 -18.423   2.646  1.00  0.00     0.035 A 
HETATM   15  C   UNL     1      43.267 -18.750   3.925  1.00  0.00     0.036 A 
HETATM   16  C   UNL     1      43.891 -19.985   4.171  1.00  0.00    -0.060 A 
HETATM   17  C   UNL     1      44.401 -20.315   5.543  1.00  0.00     0.048 C 
HETATM   18  C   UNL     1      44.084 -20.879   3.112  1.00  0.00     0.007 A 
HETATM   19  C   UNL     1      43.637 -20.558   1.833  1.00  0.00     0.003 A 
HETATM   20  C   UNL     1      43.002 -19.337   1.602  1.00  0.00     0.029 A 
ENDBRANCH  11  14
ENDBRANCH   9  10
ENDBRANCH   7   9
ENDBRANCH   1   7
BRANCH   2  21
HETATM   21  C   UNL     1      40.773 -15.982   5.624  1.00  0.00     0.419 C 
HETATM   22  F   UNL     1      41.731 -16.919   5.900  1.00  0.00    -0.166 F 
HETATM   23  F   UNL     1      39.951 -15.970   6.710  1.00  0.00    -0.166 F 
HETATM   24  F   UNL     1      40.040 -16.510   4.603  1.00  0.00    -0.166 F 
ENDBRANCH   2  21
BRANCH   4  25
HETATM   25  N   UNL     1      43.128 -11.899   7.206  1.00  0.00    -0.321 N 
HETATM   26  C   UNL     1      44.472 -11.637   7.413  1.00  0.00     0.279 C 
HETATM   27  O   UNL     1      45.390 -12.031   6.702  1.00  0.00    -0.265 OA
HETATM   28  H   UNL     1      42.510 -11.470   7.887  1.00  0.00     0.169 HD
BRANCH  26  29
HETATM   29  C   UNL     1      44.703 -10.820   8.592  1.00  0.00     0.142 A 
HETATM   30  O   UNL     1      44.053 -11.124   9.762  1.00  0.00    -0.317 OA
HETATM   31  C   UNL     1      44.455 -10.217  10.690  1.00  0.00     0.143 A 
HETATM   32  C   UNL     1      45.351  -9.330  10.142  1.00  0.00     0.027 A 
HETATM   33  C   UNL     1      45.511  -9.716   8.790  1.00  0.00     0.045 A 
ENDBRANCH  26  29
ENDBRANCH   4  25
TORSDOF 7
ENDMDL
MODEL 4
REMARK VINA RESULT:      -8.6      5.500      9.114
REMARK  7 active torsions:
REMARK  status: ('A' for Active; 'I' for Inactive)
REMARK    1  A    between atoms: C_4  and  N_5 
REMARK       I    between atoms: N_5  and  C_6 
REMARK    2  A    between atoms: C_6  and  C_7 
REMARK    3  A    between atoms: C_7  and  N_8 
REMARK    4  A    between atoms: N_8  and  C_9 
REMARK    5  A    between atoms: C_10  and  C_11 
REMARK    6  A    between atoms: C_16  and  N_17 
REMARK       I    between atoms: N_17  and  C_18 
REMARK    7  A    between atoms: C_18  and  C_19 
ROOT
HETATM    1  C   UNL     1      42.752 -10.592   6.087  1.00  0.00     0.024 A 
HETATM    2  C   UNL     1      43.849 -10.893   6.925  1.00  0.00     0.071 A 
HETATM    3  C   UNL     1      43.860 -10.467   8.276  1.00  0.00     0.047 A 
HETATM    4  C   UNL     1      42.806  -9.735   8.814  1.00  0.00     0.035 A 
HETATM    5  C   UNL     1      41.738  -9.413   7.983  1.00  0.00     0.031 A 
HETATM    6  C   UNL     1      41.723  -9.817   6.641  1.00  0.00     0.026 A 
ENDROOT
BRANCH   1   7
HETATM    7  N   UNL     1      42.796 -10.903   4.726  1.00  0.00    -0.284 NA
HETATM    8  H   UNL     1      43.754 -11.031   4.383  1.00  0.00     0.128 HD
BRANCH   7   9
HETATM    9  C   UNL     1      41.924 -11.936   4.116  1.00  0.00     0.195 C 
BRANCH   9  10
HETATM   10  C   UNL     1      42.758 -13.160   3.698  1.00  0.00     0.235 C 
HETATM   11  N   UNL     1      42.396 -14.289   4.410  1.00  0.00    -0.326 N 
HETATM   12  H   UNL     1      41.612 -14.134   5.042  1.00  0.00     0.169 HD
HETATM   13  O   UNL     1      43.654 -13.064   2.865  1.00  0.00    -0.272 OA
BRANCH  11  14
HETATM   14  C   UNL     1      42.950 -15.578   4.366  1.00  0.00     0.035 A 
HETATM   15  C   UNL     1      42.747 -16.476   3.316  1.00  0.00     0.036 A 
HETATM   16  C   UNL     1      43.350 -17.745   3.332  1.00  0.00    -0.060 A 
HETATM   17  C   UNL     1      43.102 -18.714   2.213  1.00  0.00     0.048 C 
HETATM   18  C   UNL     1      44.136 -18.118   4.427  1.00  0.00     0.007 A 
HETATM   19  C   UNL     1      44.341 -17.228   5.478  1.00  0.00     0.003 A 
HETATM   20  C   UNL     1      43.753 -15.963   5.446  1.00  0.00     0.029 A 
ENDBRANCH  11  14
ENDBRANCH   9  10
ENDBRANCH   7   9
ENDBRANCH   1   7
BRANCH   2  21
HETATM   21  C   UNL     1      45.070 -11.627   6.422  1.00  0.00     0.419 C 
HETATM   22  F   UNL     1      44.907 -12.985   6.388  1.00  0.00    -0.166 F 
HETATM   23  F   UNL     1      45.408 -11.268   5.152  1.00  0.00    -0.166 F 
HETATM   24  F   UNL     1      46.183 -11.419   7.180  1.00  0.00    -0.166 F 
ENDBRANCH   2  21
BRANCH   4  25
HETATM   25  N   UNL     1      42.750  -9.283  10.142  1.00  0.00    -0.321 N 
HETATM   26  C   UNL     1      43.138  -9.943  11.295  1.00  0.00     0.279 C 
HETATM   27  O   UNL     1      43.630 -11.066  11.339  1.00  0.00    -0.265 OA
HETATM   28  H   UNL     1      42.383  -8.350  10.300  1.00  0.00     0.169 HD
BRANCH  26  29
HETATM   29  C   UNL     1      42.903  -9.155  12.493  1.00  0.00     0.142 A 
HETATM   30  O   UNL     1      42.099  -9.659  13.486  1.00  0.00    -0.317 OA
HETATM   31  C   UNL     1      42.060  -8.732  14.477  1.00  0.00     0.143 A 
HETATM   32  C   UNL     1      42.820  -7.636  14.144  1.00  0.00     0.027 A 
HETATM   33  C   UNL     1      43.363  -7.906  12.865  1.00  0.00     0.045 A 
ENDBRANCH  26  29
ENDBRANCH   4  25
TORSDOF 7
ENDMDL
MODEL 5
REMARK VINA RESULT:      -8.6      3.524      7.048
REMARK  7 active torsions:
REMARK  status: ('A' for Active; 'I' for Inactive)
REMARK    1  A    between atoms: C_4  and  N_5 
REMARK       I    between atoms: N_5  and  C_6 
REMARK    2  A    between atoms: C_6  and  C_7 
REMARK    3  A    between atoms: C_7  and  N_8 
REMARK    4  A    between atoms: N_8  and  C_9 
REMARK    5  A    between atoms: C_10  and  C_11 
REMARK    6  A    between atoms: C_16  and  N_17 
REMARK       I    between atoms: N_17  and  C_18 
REMARK    7  A    between atoms: C_18  and  C_19 
ROOT
HETATM    1  C   UNL     1      40.299 -13.163   3.914  1.00  0.00     0.024 A 
HETATM    2  C   UNL     1      40.725 -11.824   3.763  1.00  0.00     0.071 A 
HETATM    3  C   UNL     1      41.522 -11.207   4.758  1.00  0.00     0.047 A 
HETATM    4  C   UNL     1      41.898 -11.889   5.911  1.00  0.00     0.035 A 
HETATM    5  C   UNL     1      41.457 -13.198   6.075  1.00  0.00     0.031 A 
HETATM    6  C   UNL     1      40.656 -13.814   5.104  1.00  0.00     0.026 A 
ENDROOT
BRANCH   1   7
HETATM    7  N   UNL     1      39.413 -13.731   2.995  1.00  0.00    -0.284 NA
HETATM    8  H   UNL     1      38.623 -13.113   2.777  1.00  0.00     0.128 HD
BRANCH   7   9
HETATM    9  C   UNL     1      39.871 -14.387   1.746  1.00  0.00     0.195 C 
BRANCH   9  10
HETATM   10  C   UNL     1      41.256 -15.025   1.956  1.00  0.00     0.235 C 
HETATM   11  N   UNL     1      41.155 -16.285   2.516  1.00  0.00    -0.326 N 
HETATM   12  H   UNL     1      40.193 -16.596   2.643  1.00  0.00     0.169 HD
HETATM   13  O   UNL     1      42.285 -14.414   1.683  1.00  0.00    -0.272 OA
BRANCH  11  14
HETATM   14  C   UNL     1      42.178 -17.162   2.911  1.00  0.00     0.035 A 
HETATM   15  C   UNL     1      42.513 -18.327   2.219  1.00  0.00     0.036 A 
HETATM   16  C   UNL     1      43.563 -19.148   2.665  1.00  0.00    -0.060 A 
HETATM   17  C   UNL     1      43.897 -20.414   1.931  1.00  0.00     0.048 C 
HETATM   18  C   UNL     1      44.257 -18.804   3.830  1.00  0.00     0.007 A 
HETATM   19  C   UNL     1      43.926 -17.644   4.526  1.00  0.00     0.003 A 
HETATM   20  C   UNL     1      42.894 -16.825   4.066  1.00  0.00     0.029 A 
ENDBRANCH  11  14
ENDBRANCH   9  10
ENDBRANCH   7   9
ENDBRANCH   1   7
BRANCH   2  21
HETATM   21  C   UNL     1      40.319 -10.978   2.580  1.00  0.00     0.419 C 
HETATM   22  F   UNL     1      40.779  -9.692   2.652  1.00  0.00    -0.166 F 
HETATM   23  F   UNL     1      40.790 -11.470   1.400  1.00  0.00    -0.166 F 
HETATM   24  F   UNL     1      38.968 -10.867   2.427  1.00  0.00    -0.166 F 
ENDBRANCH   2  21
BRANCH   4  25
HETATM   25  N   UNL     1      42.687 -11.341   6.936  1.00  0.00    -0.321 N 
HETATM   26  C   UNL     1      44.025 -11.569   7.210  1.00  0.00     0.279 C 
HETATM   27  O   UNL     1      44.768 -12.301   6.564  1.00  0.00    -0.265 OA
HETATM   28  H   UNL     1      42.238 -10.686   7.568  1.00  0.00     0.169 HD
BRANCH  26  29
HETATM   29  C   UNL     1      44.487 -10.833   8.374  1.00  0.00     0.142 A 
HETATM   30  O   UNL     1      43.952 -11.116   9.607  1.00  0.00    -0.317 OA
HETATM   31  C   UNL     1      44.562 -10.298  10.505  1.00  0.00     0.143 A 
HETATM   32  C   UNL     1      45.479  -9.489   9.876  1.00  0.00     0.027 A 
HETATM   33  C   UNL     1      45.431  -9.831   8.503  1.00  0.00     0.045 A 
ENDBRANCH  26  29
ENDBRANCH   4  25
TORSDOF 7
ENDMDL
MODEL 6
REMARK VINA RESULT:      -8.5      4.738      8.524
REMARK  7 active torsions:
REMARK  status: ('A' for Active; 'I' for Inactive)
REMARK    1  A    between atoms: C_4  and  N_5 
REMARK       I    between atoms: N_5  and  C_6 
REMARK    2  A    between atoms: C_6  and  C_7 
REMARK    3  A    between atoms: C_7  and  N_8 
REMARK    4  A    between atoms: N_8  and  C_9 
REMARK    5  A    between atoms: C_10  and  C_11 
REMARK    6  A    between atoms: C_16  and  N_17 
REMARK       I    between atoms: N_17  and  C_18 
REMARK    7  A    between atoms: C_18  and  C_19 
ROOT
HETATM    1  C   UNL     1      42.502 -12.892   6.395  1.00  0.00     0.024 A 
HETATM    2  C   UNL     1      41.586 -13.363   5.428  1.00  0.00     0.071 A 
HETATM    3  C   UNL     1      41.755 -14.641   4.841  1.00  0.00     0.047 A 
HETATM    4  C   UNL     1      42.826 -15.461   5.185  1.00  0.00     0.035 A 
HETATM    5  C   UNL     1      43.744 -14.987   6.116  1.00  0.00     0.031 A 
HETATM    6  C   UNL     1      43.595 -13.719   6.693  1.00  0.00     0.026 A 
ENDROOT
BRANCH   1   7
HETATM    7  N   UNL     1      42.406 -11.586   6.883  1.00  0.00    -0.284 NA
HETATM    8  H   UNL     1      41.771 -11.512   7.685  1.00  0.00     0.128 HD
BRANCH   7   9
HETATM    9  C   UNL     1      43.597 -10.737   7.131  1.00  0.00     0.195 C 
BRANCH   9  10
HETATM   10  C   UNL     1      43.827 -10.570   8.643  1.00  0.00     0.235 C 
HETATM   11  N   UNL     1      42.776  -9.904   9.247  1.00  0.00    -0.326 N 
HETATM   12  H   UNL     1      42.013  -9.689   8.606  1.00  0.00     0.169 HD
HETATM   13  O   UNL     1      44.862 -10.960   9.176  1.00  0.00    -0.272 OA
BRANCH  11  14
HETATM   14  C   UNL     1      42.632  -9.509  10.586  1.00  0.00     0.035 A 
HETATM   15  C   UNL     1      41.544  -9.860  11.387  1.00  0.00     0.036 A 
HETATM   16  C   UNL     1      41.476  -9.443  12.727  1.00  0.00    -0.060 A 
HETATM   17  C   UNL     1      40.288  -9.800  13.572  1.00  0.00     0.048 C 
HETATM   18  C   UNL     1      42.498  -8.643  13.249  1.00  0.00     0.007 A 
HETATM   19  C   UNL     1      43.586  -8.288  12.455  1.00  0.00     0.003 A 
HETATM   20  C   UNL     1      43.653  -8.722  11.131  1.00  0.00     0.029 A 
ENDBRANCH  11  14
ENDBRANCH   9  10
ENDBRANCH   7   9
ENDBRANCH   1   7
BRANCH   2  21
HETATM   21  C   UNL     1      40.428 -12.525   4.941  1.00  0.00     0.419 C 
HETATM   22  F   UNL     1      39.691 -13.139   3.965  1.00  0.00    -0.166 F 
HETATM   23  F   UNL     1      39.544 -12.228   5.934  1.00  0.00    -0.166 F 
HETATM   24  F   UNL     1      40.807 -11.331   4.404  1.00  0.00    -0.166 F 
ENDBRANCH   2  21
BRANCH   4  25
HETATM   25  N   UNL     1      43.053 -16.737   4.645  1.00  0.00    -0.321 N 
HETATM   26  C   UNL     1      43.370 -17.078   3.341  1.00  0.00     0.279 C 
HETATM   27  O   UNL     1      43.528 -16.285   2.418  1.00  0.00    -0.265 OA
HETATM   28  H   UNL     1      42.984 -17.528   5.277  1.00  0.00     0.169 HD
BRANCH  26  29
HETATM   29  C   UNL     1      43.507 -18.513   3.160  1.00  0.00     0.142 A 
HETATM   30  O   UNL     1      44.004 -19.279   4.185  1.00  0.00    -0.317 OA
HETATM   31  C   UNL     1      44.016 -20.567   3.753  1.00  0.00     0.143 A 
HETATM   32  C   UNL     1      43.538 -20.649   2.466  1.00  0.00     0.027 A 
HETATM   33  C   UNL     1      43.211 -19.326   2.081  1.00  0.00     0.045 A 
ENDBRANCH  26  29
ENDBRANCH   4  25
TORSDOF 7
ENDMDL
MODEL 7
REMARK VINA RESULT:      -8.3      1.763      2.470
REMARK  7 active torsions:
REMARK  status: ('A' for Active; 'I' for Inactive)
REMARK    1  A    between atoms: C_4  and  N_5 
REMARK       I    between atoms: N_5  and  C_6 
REMARK    2  A    between atoms: C_6  and  C_7 
REMARK    3  A    between atoms: C_7  and  N_8 
REMARK    4  A    between atoms: N_8  and  C_9 
REMARK    5  A    between atoms: C_10  and  C_11 
REMARK    6  A    between atoms: C_16  and  N_17 
REMARK       I    between atoms: N_17  and  C_18 
REMARK    7  A    between atoms: C_18  and  C_19 
ROOT
HETATM    1  C   UNL     1      41.408 -13.241   5.319  1.00  0.00     0.024 A 
HETATM    2  C   UNL     1      41.774 -12.181   4.461  1.00  0.00     0.071 A 
HETATM    3  C   UNL     1      41.272 -12.120   3.138  1.00  0.00     0.047 A 
HETATM    4  C   UNL     1      40.420 -13.102   2.641  1.00  0.00     0.035 A 
HETATM    5  C   UNL     1      40.081 -14.162   3.475  1.00  0.00     0.031 A 
HETATM    6  C   UNL     1      40.582 -14.239   4.781  1.00  0.00     0.026 A 
ENDROOT
BRANCH   1   7
HETATM    7  N   UNL     1      41.998 -13.367   6.580  1.00  0.00    -0.284 NA
HETATM    8  H   UNL     1      41.322 -13.633   7.305  1.00  0.00     0.128 HD
BRANCH   7   9
HETATM    9  C   UNL     1      43.260 -14.115   6.799  1.00  0.00     0.195 C 
BRANCH   9  10
HETATM   10  C   UNL     1      43.062 -15.604   6.463  1.00  0.00     0.235 C 
HETATM   11  N   UNL     1      43.711 -15.952   5.292  1.00  0.00    -0.326 N 
HETATM   12  H   UNL     1      44.247 -15.187   4.885  1.00  0.00     0.169 HD
HETATM   13  O   UNL     1      42.361 -16.327   7.166  1.00  0.00    -0.272 OA
BRANCH  11  14
HETATM   14  C   UNL     1      43.727 -17.186   4.623  1.00  0.00     0.035 A 
HETATM   15  C   UNL     1      44.074 -18.395   5.229  1.00  0.00     0.036 A 
HETATM   16  C   UNL     1      44.050 -19.595   4.500  1.00  0.00    -0.060 A 
HETATM   17  C   UNL     1      44.453 -20.885   5.153  1.00  0.00     0.048 C 
HETATM   18  C   UNL     1      43.702 -19.569   3.145  1.00  0.00     0.007 A 
HETATM   19  C   UNL     1      43.357 -18.366   2.534  1.00  0.00     0.003 A 
HETATM   20  C   UNL     1      43.366 -17.181   3.271  1.00  0.00     0.029 A 
ENDBRANCH  11  14
ENDBRANCH   9  10
ENDBRANCH   7   9
ENDBRANCH   1   7
BRANCH   2  21
HETATM   21  C   UNL     1      42.742 -11.101   4.884  1.00  0.00     0.419 C 
HETATM   22  F   UNL     1      44.046 -11.515   4.883  1.00  0.00    -0.166 F 
HETATM   23  F   UNL     1      42.703 -10.014   4.064  1.00  0.00    -0.166 F 
HETATM   24  F   UNL     1      42.518 -10.630   6.143  1.00  0.00    -0.166 F 
ENDBRANCH   2  21
BRANCH   4  25
HETATM   25  N   UNL     1      39.885 -13.104   1.343  1.00  0.00    -0.321 N 
HETATM   26  C   UNL     1      40.179 -13.953   0.290  1.00  0.00     0.279 C 
HETATM   27  O   UNL     1      40.973 -14.888   0.332  1.00  0.00    -0.265 OA
HETATM   28  H   UNL     1      39.185 -12.401   1.127  1.00  0.00     0.169 HD
BRANCH  26  29
HETATM   29  C   UNL     1      39.434 -13.626  -0.913  1.00  0.00     0.142 A 
HETATM   30  O   UNL     1      39.666 -14.336  -2.065  1.00  0.00    -0.317 OA
HETATM   31  C   UNL     1      38.838 -13.834  -3.018  1.00  0.00     0.143 A 
HETATM   32  C   UNL     1      38.076 -12.810  -2.506  1.00  0.00     0.027 A 
HETATM   33  C   UNL     1      38.460 -12.674  -1.150  1.00  0.00     0.045 A 
ENDBRANCH  26  29
ENDBRANCH   4  25
TORSDOF 7
ENDMDL
MODEL 8
REMARK VINA RESULT:      -8.3      3.607      6.196
REMARK  7 active torsions:
REMARK  status: ('A' for Active; 'I' for Inactive)
REMARK    1  A    between atoms: C_4  and  N_5 
REMARK       I    between atoms: N_5  and  C_6 
REMARK    2  A    between atoms: C_6  and  C_7 
REMARK    3  A    between atoms: C_7  and  N_8 
REMARK    4  A    between atoms: N_8  and  C_9 
REMARK    5  A    between atoms: C_10  and  C_11 
REMARK    6  A    between atoms: C_16  and  N_17 
REMARK       I    between atoms: N_17  and  C_18 
REMARK    7  A    between atoms: C_18  and  C_19 
ROOT
HETATM    1  C   UNL     1      41.103 -14.314   4.722  1.00  0.00     0.024 A 
HETATM    2  C   UNL     1      41.440 -15.366   3.840  1.00  0.00     0.071 A 
HETATM    3  C   UNL     1      40.927 -15.390   2.520  1.00  0.00     0.047 A 
HETATM    4  C   UNL     1      40.071 -14.395   2.057  1.00  0.00     0.035 A 
HETATM    5  C   UNL     1      39.716 -13.374   2.933  1.00  0.00     0.031 A 
HETATM    6  C   UNL     1      40.207 -13.347   4.245  1.00  0.00     0.026 A 
ENDROOT
BRANCH   1   7
HETATM    7  N   UNL     1      41.509 -14.354   6.058  1.00  0.00    -0.284 NA
HETATM    8  H   UNL     1      41.107 -15.150   6.567  1.00  0.00     0.128 HD
BRANCH   7   9
HETATM    9  C   UNL     1      42.924 -14.184   6.468  1.00  0.00     0.195 C 
BRANCH   9  10
HETATM   10  C   UNL     1      43.326 -12.700   6.395  1.00  0.00     0.235 C 
HETATM   11  N   UNL     1      43.875 -12.264   7.587  1.00  0.00    -0.326 N 
HETATM   12  H   UNL     1      43.971 -13.002   8.282  1.00  0.00     0.169 HD
HETATM   13  O   UNL     1      43.110 -12.032   5.388  1.00  0.00    -0.272 OA
BRANCH  11  14
HETATM   14  C   UNL     1      44.310 -10.977   7.941  1.00  0.00     0.035 A 
HETATM   15  C   UNL     1      43.477  -9.995   8.479  1.00  0.00     0.036 A 
HETATM   16  C   UNL     1      43.988  -8.733   8.827  1.00  0.00    -0.060 A 
HETATM   17  C   UNL     1      43.078  -7.674   9.378  1.00  0.00     0.048 C 
HETATM   18  C   UNL     1      45.340  -8.454   8.603  1.00  0.00     0.007 A 
HETATM   19  C   UNL     1      46.177  -9.429   8.065  1.00  0.00     0.003 A 
HETATM   20  C   UNL     1      45.664 -10.685   7.738  1.00  0.00     0.029 A 
ENDBRANCH  11  14
ENDBRANCH   9  10
ENDBRANCH   7   9
ENDBRANCH   1   7
BRANCH   2  21
HETATM   21  C   UNL     1      42.310 -16.525   4.265  1.00  0.00     0.419 C 
HETATM   22  F   UNL     1      41.921 -17.084   5.452  1.00  0.00    -0.166 F 
HETATM   23  F   UNL     1      42.301 -17.544   3.361  1.00  0.00    -0.166 F 
HETATM   24  F   UNL     1      43.619 -16.190   4.441  1.00  0.00    -0.166 F 
ENDBRANCH   2  21
BRANCH   4  25
HETATM   25  N   UNL     1      39.527 -14.355   0.763  1.00  0.00    -0.321 N 
HETATM   26  C   UNL     1      39.955 -13.622  -0.330  1.00  0.00     0.279 C 
HETATM   27  O   UNL     1      40.929 -12.876  -0.348  1.00  0.00    -0.265 OA
HETATM   28  H   UNL     1      38.714 -14.935   0.583  1.00  0.00     0.169 HD
BRANCH  26  29
HETATM   29  C   UNL     1      39.117 -13.827  -1.499  1.00  0.00     0.142 A 
HETATM   30  O   UNL     1      37.941 -13.128  -1.617  1.00  0.00    -0.317 OA
HETATM   31  C   UNL     1      37.370 -13.501  -2.792  1.00  0.00     0.143 A 
HETATM   32  C   UNL     1      38.153 -14.430  -3.436  1.00  0.00     0.027 A 
HETATM   33  C   UNL     1      39.279 -14.642  -2.604  1.00  0.00     0.045 A 
ENDBRANCH  26  29
ENDBRANCH   4  25
TORSDOF 7
ENDMDL
MODEL 9
REMARK VINA RESULT:      -8.2      4.228      7.419
REMARK  7 active torsions:
REMARK  status: ('A' for Active; 'I' for Inactive)
REMARK    1  A    between atoms: C_4  and  N_5 
REMARK       I    between atoms: N_5  and  C_6 
REMARK    2  A    between atoms: C_6  and  C_7 
REMARK    3  A    between atoms: C_7  and  N_8 
REMARK    4  A    between atoms: N_8  and  C_9 
REMARK    5  A    between atoms: C_10  and  C_11 
REMARK    6  A    between atoms: C_16  and  N_17 
REMARK       I    between atoms: N_17  and  C_18 
REMARK    7  A    between atoms: C_18  and  C_19 
ROOT
HETATM    1  C   UNL     1      40.777 -12.330   3.974  1.00  0.00     0.024 A 
HETATM    2  C   UNL     1      42.138 -12.012   4.180  1.00  0.00     0.071 A 
HETATM    3  C   UNL     1      42.566 -11.440   5.403  1.00  0.00     0.047 A 
HETATM    4  C   UNL     1      41.665 -11.164   6.427  1.00  0.00     0.035 A 
HETATM    5  C   UNL     1      40.320 -11.451   6.216  1.00  0.00     0.031 A 
HETATM    6  C   UNL     1      39.885 -12.004   5.005  1.00  0.00     0.026 A 
ENDROOT
BRANCH   1   7
HETATM    7  N   UNL     1      40.337 -12.779   2.726  1.00  0.00    -0.284 NA
HETATM    8  H   UNL     1      40.996 -12.553   1.972  1.00  0.00     0.128 HD
BRANCH   7   9
HETATM    9  C   UNL     1      39.809 -14.148   2.511  1.00  0.00     0.195 C 
BRANCH   9  10
HETATM   10  C   UNL     1      40.958 -15.117   2.180  1.00  0.00     0.235 C 
HETATM   11  N   UNL     1      41.258 -15.936   3.253  1.00  0.00    -0.326 N 
HETATM   12  H   UNL     1      40.640 -15.799   4.051  1.00  0.00     0.169 HD
HETATM   13  O   UNL     1      41.528 -15.079   1.093  1.00  0.00    -0.272 OA
BRANCH  11  14
HETATM   14  C   UNL     1      42.268 -16.904   3.371  1.00  0.00     0.035 A 
HETATM   15  C   UNL     1      42.396 -18.002   2.520  1.00  0.00     0.036 A 
HETATM   16  C   UNL     1      43.445 -18.922   2.688  1.00  0.00    -0.060 A 
HETATM   17  C   UNL     1      43.557 -20.116   1.786  1.00  0.00     0.048 C 
HETATM   18  C   UNL     1      44.350 -18.745   3.740  1.00  0.00     0.007 A 
HETATM   19  C   UNL     1      44.227 -17.652   4.595  1.00  0.00     0.003 A 
HETATM   20  C   UNL     1      43.193 -16.734   4.408  1.00  0.00     0.029 A 
ENDBRANCH  11  14
ENDBRANCH   9  10
ENDBRANCH   7   9
ENDBRANCH   1   7
BRANCH   2  21
HETATM   21  C   UNL     1      43.183 -12.213   3.108  1.00  0.00     0.419 C 
HETATM   22  F   UNL     1      42.778 -11.788   1.873  1.00  0.00    -0.166 F 
HETATM   23  F   UNL     1      44.336 -11.536   3.368  1.00  0.00    -0.166 F 
HETATM   24  F   UNL     1      43.544 -13.517   2.936  1.00  0.00    -0.166 F 
ENDBRANCH   2  21
BRANCH   4  25
HETATM   25  N   UNL     1      42.019 -10.600   7.664  1.00  0.00    -0.321 N 
HETATM   26  C   UNL     1      42.354  -9.287   7.949  1.00  0.00     0.279 C 
HETATM   27  O   UNL     1      42.376  -8.368   7.138  1.00  0.00    -0.265 OA
HETATM   28  H   UNL     1      42.034 -11.218   8.469  1.00  0.00     0.169 HD
BRANCH  26  29
HETATM   29  C   UNL     1      42.685  -9.090   9.350  1.00  0.00     0.142 A 
HETATM   30  O   UNL     1      41.762  -9.414  10.314  1.00  0.00    -0.317 OA
HETATM   31  C   UNL     1      42.329  -9.141  11.518  1.00  0.00     0.143 A 
HETATM   32  C   UNL     1      43.600  -8.644  11.352  1.00  0.00     0.027 A 
HETATM   33  C   UNL     1      43.831  -8.609   9.956  1.00  0.00     0.045 A 
ENDBRANCH  26  29
ENDBRANCH   4  25
TORSDOF 7
ENDMDL
MODEL 10
REMARK VINA RESULT:      -8.2      4.663      8.761
REMARK  7 active torsions:
REMARK  status: ('A' for Active; 'I' for Inactive)
REMARK    1  A    between atoms: C_4  and  N_5 
REMARK       I    between atoms: N_5  and  C_6 
REMARK    2  A    between atoms: C_6  and  C_7 
REMARK    3  A    between atoms: C_7  and  N_8 
REMARK    4  A    between atoms: N_8  and  C_9 
REMARK    5  A    between atoms: C_10  and  C_11 
REMARK    6  A    between atoms: C_16  and  N_17 
REMARK       I    between atoms: N_17  and  C_18 
REMARK    7  A    between atoms: C_18  and  C_19 
ROOT
HETATM    1  C   UNL     1      41.618 -12.555   5.731  1.00  0.00     0.024 A 
HETATM    2  C   UNL     1      42.668 -12.662   4.793  1.00  0.00     0.071 A 
HETATM    3  C   UNL     1      42.989 -13.913   4.211  1.00  0.00     0.047 A 
HETATM    4  C   UNL     1      42.294 -15.069   4.552  1.00  0.00     0.035 A 
HETATM    5  C   UNL     1      41.277 -14.971   5.497  1.00  0.00     0.031 A 
HETATM    6  C   UNL     1      40.961 -13.741   6.088  1.00  0.00     0.026 A 
ENDROOT
BRANCH   1   7
HETATM    7  N   UNL     1      41.382 -11.348   6.394  1.00  0.00    -0.284 NA
HETATM    8  H   UNL     1      41.944 -10.576   6.018  1.00  0.00     0.128 HD
BRANCH   7   9
HETATM    9  C   UNL     1      40.016 -10.852   6.687  1.00  0.00     0.195 C 
BRANCH   9  10
HETATM   10  C   UNL     1      40.055  -9.825   7.833  1.00  0.00     0.235 C 
HETATM   11  N   UNL     1      41.306  -9.767   8.421  1.00  0.00    -0.326 N 
HETATM   12  H   UNL     1      41.994 -10.365   7.966  1.00  0.00     0.169 HD
HETATM   13  O   UNL     1      39.049  -9.204   8.165  1.00  0.00    -0.272 OA
BRANCH  11  14
HETATM   14  C   UNL     1      41.731  -9.006   9.521  1.00  0.00     0.035 A 
HETATM   15  C   UNL     1      41.825  -9.506  10.822  1.00  0.00     0.036 A 
HETATM   16  C   UNL     1      42.277  -8.689  11.872  1.00  0.00    -0.060 A 
HETATM   17  C   UNL     1      42.347  -9.226  13.271  1.00  0.00     0.048 C 
HETATM   18  C   UNL     1      42.607  -7.355  11.611  1.00  0.00     0.007 A 
HETATM   19  C   UNL     1      42.514  -6.850  10.316  1.00  0.00     0.003 A 
HETATM   20  C   UNL     1      42.081  -7.674   9.276  1.00  0.00     0.029 A 
ENDBRANCH  11  14
ENDBRANCH   9  10
ENDBRANCH   7   9
ENDBRANCH   1   7
BRANCH   2  21
HETATM   21  C   UNL     1      43.524 -11.479   4.403  1.00  0.00     0.419 C 
HETATM   22  F   UNL     1      42.796 -10.409   3.961  1.00  0.00    -0.166 F 
HETATM   23  F   UNL     1      44.270 -11.010   5.442  1.00  0.00    -0.166 F 
HETATM   24  F   UNL     1      44.405 -11.750   3.400  1.00  0.00    -0.166 F 
ENDBRANCH   2  21
BRANCH   4  25
HETATM   25  N   UNL     1      42.556 -16.340   4.015  1.00  0.00    -0.321 N 
HETATM   26  C   UNL     1      43.600 -17.201   4.308  1.00  0.00     0.279 C 
HETATM   27  O   UNL     1      44.486 -16.990   5.130  1.00  0.00    -0.265 OA
HETATM   28  H   UNL     1      41.906 -16.695   3.322  1.00  0.00     0.169 HD
BRANCH  26  29
HETATM   29  C   UNL     1      43.547 -18.424   3.526  1.00  0.00     0.142 A 
HETATM   30  O   UNL     1      43.995 -19.599   4.079  1.00  0.00    -0.317 OA
HETATM   31  C   UNL     1      43.825 -20.571   3.145  1.00  0.00     0.143 A 
HETATM   32  C   UNL     1      43.277 -20.047   1.998  1.00  0.00     0.027 A 
HETATM   33  C   UNL     1      43.099 -18.664   2.240  1.00  0.00     0.045 A 
ENDBRANCH  26  29
ENDBRANCH   4  25
TORSDOF 7
ENDMDL
