MODEL 1
REMARK VINA RESULT:      -9.4      0.000      0.000
REMARK  8 active torsions:
REMARK  status: ('A' for Active; 'I' for Inactive)
REMARK    1  A    between atoms: C_2  and  N_3 
REMARK    2  A    between atoms: N_3  and  N_4 
REMARK       I    between atoms: N_4  and  C_5 
REMARK    3  A    between atoms: C_5  and  C_6 
REMARK       I    between atoms: C_6  and  N_7 
REMARK    4  A    between atoms: N_7  and  C_8 
REMARK    5  A    between atoms: C_16  and  C_17 
REMARK       I    between atoms: C_17  and  N_18 
REMARK    6  A    between atoms: N_18  and  C_19 
REMARK    7  A    between atoms: C_22  and  N_23 
REMARK    8  A    between atoms: N_23  and  C_24 
ROOT
HETATM    1  C   UNL     1      40.007  -9.070   6.945  1.00  0.00     0.063 C 
HETATM    2  C   UNL     1      40.679 -10.401   6.668  1.00  0.00     0.007 C 
HETATM    3  C   UNL     1      40.131 -11.195   5.723  1.00  0.00     0.094 C 
ENDROOT
BRANCH   3   4
HETATM    4  C   UNL     1      40.553 -12.579   5.359  1.00  0.00     0.247 C 
HETATM    5  N   UNL     1      41.336 -13.150   6.346  1.00  0.00    -0.324 N 
HETATM    6  H   UNL     1      41.354 -12.696   7.250  1.00  0.00     0.169 HD
HETATM    7  O   UNL     1      40.201 -13.115   4.316  1.00  0.00    -0.268 OA
BRANCH   5   8
HETATM    8  C   UNL     1      42.010 -14.386   6.266  1.00  0.00     0.035 A 
HETATM    9  C   UNL     1      43.360 -14.505   5.938  1.00  0.00     0.031 A 
HETATM   10  C   UNL     1      43.970 -15.763   5.878  1.00  0.00     0.026 A 
HETATM   11  C   UNL     1      43.232 -16.933   6.096  1.00  0.00     0.012 A 
HETATM   12  C   UNL     1      41.891 -16.806   6.476  1.00  0.00     0.026 A 
HETATM   13  C   UNL     1      41.288 -15.545   6.568  1.00  0.00     0.031 A 
BRANCH  11  14
HETATM   14  N   UNL     1      43.879 -18.196   6.006  1.00  0.00    -0.260 NA
HETATM   15  H   UNL     1      44.851 -18.071   6.287  1.00  0.00     0.134 HD
BRANCH  14  16
HETATM   16  C   UNL     1      43.870 -18.973   4.817  1.00  0.00     0.012 A 
HETATM   17  C   UNL     1      43.992 -20.363   4.872  1.00  0.00     0.024 A 
HETATM   18  C   UNL     1      43.927 -21.125   3.702  1.00  0.00     0.002 A 
HETATM   19  C   UNL     1      43.724 -20.500   2.472  1.00  0.00     0.000 A 
HETATM   20  C   UNL     1      43.581 -19.115   2.410  1.00  0.00     0.002 A 
HETATM   21  C   UNL     1      43.648 -18.355   3.578  1.00  0.00     0.024 A 
ENDBRANCH  14  16
ENDBRANCH  11  14
ENDBRANCH   5   8
ENDBRANCH   3   4
BRANCH   2  22
HETATM   22  N   UNL     1      41.801 -10.638   7.454  1.00  0.00    -0.207 NA
HETATM   23  H   UNL     1      41.747 -10.173   8.368  1.00  0.00     0.152 HD
BRANCH  22  24
HETATM   24  N   UNL     1      43.095 -10.491   6.917  1.00  0.00    -0.279 N 
HETATM   25  C   UNL     1      44.101 -11.274   7.454  1.00  0.00     0.323 C 
HETATM   26  O   UNL     1      43.915 -12.232   8.192  1.00  0.00    -0.261 OA
HETATM   27  H   UNL     1      43.289  -9.607   6.436  1.00  0.00     0.184 HD
BRANCH  25  28
HETATM   28  C   UNL     1      45.509 -10.782   7.107  1.00  0.00     0.311 C 
HETATM   29  N   UNL     1      46.097  -9.755   7.804  1.00  0.00    -0.348 N 
HETATM   30  H   UNL     1      47.022  -9.552   7.443  1.00  0.00     0.163 HD
HETATM   31  O   UNL     1      46.114 -11.330   6.188  1.00  0.00    -0.262 OA
BRANCH  29  32
HETATM   32  C   UNL     1      45.689  -9.021   9.004  1.00  0.00     0.084 C 
HETATM   33  C   UNL     1      44.583  -7.977   8.764  1.00  0.00     0.025 C 
HETATM   34  C   UNL     1      43.348  -8.035   9.662  1.00  0.00     0.002 C 
HETATM   35  C   UNL     1      43.629  -8.592  11.046  1.00  0.00     0.000 C 
HETATM   36  C   UNL     1      44.249  -9.974  10.932  1.00  0.00     0.002 C 
HETATM   37  C   UNL     1      45.606  -9.912  10.251  1.00  0.00     0.025 C 
ENDBRANCH  29  32
ENDBRANCH  25  28
ENDBRANCH  22  24
ENDBRANCH   2  22
TORSDOF 8
ENDMDL
MODEL 2
REMARK VINA RESULT:      -9.4      2.529      4.442
REMARK  8 active torsions:
REMARK  status: ('A' for Active; 'I' for Inactive)
REMARK    1  A    between atoms: C_2  and  N_3 
REMARK    2  A    between atoms: N_3  and  N_4 
REMARK       I    between atoms: N_4  and  C_5 
REMARK    3  A    between atoms: C_5  and  C_6 
REMARK       I    between atoms: C_6  and  N_7 
REMARK    4  A    between atoms: N_7  and  C_8 
REMARK    5  A    between atoms: C_16  and  C_17 
REMARK       I    between atoms: C_17  and  N_18 
REMARK    6  A    between atoms: N_18  and  C_19 
REMARK    7  A    between atoms: C_22  and  N_23 
REMARK    8  A    between atoms: N_23  and  C_24 
ROOT
HETATM    1  C   UNL     1      40.522  -8.511   4.728  1.00  0.00     0.063 C 
HETATM    2  C   UNL     1      41.072  -9.741   4.032  1.00  0.00     0.007 C 
HETATM    3  C   UNL     1      40.270 -10.369   3.145  1.00  0.00     0.094 C 
ENDROOT
BRANCH   3   4
HETATM    4  C   UNL     1      40.555 -11.645   2.425  1.00  0.00     0.247 C 
HETATM    5  N   UNL     1      41.193 -12.560   3.243  1.00  0.00    -0.324 N 
HETATM    6  H   UNL     1      41.198 -12.375   4.237  1.00  0.00     0.169 HD
HETATM    7  O   UNL     1      40.219 -11.826   1.262  1.00  0.00    -0.268 OA
BRANCH   5   8
HETATM    8  C   UNL     1      41.724 -13.805   2.846  1.00  0.00     0.035 A 
HETATM    9  C   UNL     1      43.042 -13.979   2.425  1.00  0.00     0.031 A 
HETATM   10  C   UNL     1      43.507 -15.244   2.047  1.00  0.00     0.026 A 
HETATM   11  C   UNL     1      42.651 -16.352   2.035  1.00  0.00     0.012 A 
HETATM   12  C   UNL     1      41.346 -16.183   2.508  1.00  0.00     0.026 A 
HETATM   13  C   UNL     1      40.888 -14.924   2.918  1.00  0.00     0.031 A 
BRANCH  11  14
HETATM   14  N   UNL     1      43.153 -17.618   1.624  1.00  0.00    -0.260 NA
HETATM   15  H   UNL     1      42.511 -17.999   0.928  1.00  0.00     0.134 HD
BRANCH  14  16
HETATM   16  C   UNL     1      43.454 -18.654   2.547  1.00  0.00     0.012 A 
HETATM   17  C   UNL     1      43.339 -19.996   2.176  1.00  0.00     0.024 A 
HETATM   18  C   UNL     1      43.691 -21.010   3.072  1.00  0.00     0.002 A 
HETATM   19  C   UNL     1      44.173 -20.685   4.340  1.00  0.00     0.000 A 
HETATM   20  C   UNL     1      44.309 -19.349   4.711  1.00  0.00     0.002 A 
HETATM   21  C   UNL     1      43.956 -18.337   3.817  1.00  0.00     0.024 A 
ENDBRANCH  14  16
ENDBRANCH  11  14
ENDBRANCH   5   8
ENDBRANCH   3   4
BRANCH   2  22
HETATM   22  N   UNL     1      42.366 -10.074   4.417  1.00  0.00    -0.207 NA
HETATM   23  H   UNL     1      42.819 -10.720   3.760  1.00  0.00     0.152 HD
BRANCH  22  24
HETATM   24  N   UNL     1      42.639 -10.467   5.742  1.00  0.00    -0.279 N 
HETATM   25  C   UNL     1      43.819 -11.152   5.973  1.00  0.00     0.323 C 
HETATM   26  O   UNL     1      44.737 -11.241   5.170  1.00  0.00    -0.261 OA
HETATM   27  H   UNL     1      41.832 -10.544   6.369  1.00  0.00     0.184 HD
BRANCH  25  28
HETATM   28  C   UNL     1      43.851 -11.876   7.322  1.00  0.00     0.311 C 
HETATM   29  N   UNL     1      43.349 -13.146   7.461  1.00  0.00    -0.348 N 
HETATM   30  H   UNL     1      43.443 -13.474   8.415  1.00  0.00     0.163 HD
HETATM   31  O   UNL     1      44.343 -11.298   8.289  1.00  0.00    -0.262 OA
BRANCH  29  32
HETATM   32  C   UNL     1      42.841 -14.115   6.486  1.00  0.00     0.084 C 
HETATM   33  C   UNL     1      43.575 -15.468   6.493  1.00  0.00     0.025 C 
HETATM   34  C   UNL     1      42.726 -16.734   6.614  1.00  0.00     0.002 C 
HETATM   35  C   UNL     1      41.333 -16.588   6.029  1.00  0.00     0.000 C 
HETATM   36  C   UNL     1      40.615 -15.422   6.686  1.00  0.00     0.002 C 
HETATM   37  C   UNL     1      41.309 -14.106   6.376  1.00  0.00     0.025 C 
ENDBRANCH  29  32
ENDBRANCH  25  28
ENDBRANCH  22  24
ENDBRANCH   2  22
TORSDOF 8
ENDMDL
MODEL 3
REMARK VINA RESULT:      -9.2      1.775      2.495
REMARK  8 active torsions:
REMARK  status: ('A' for Active; 'I' for Inactive)
REMARK    1  A    between atoms: C_2  and  N_3 
REMARK    2  A    between atoms: N_3  and  N_4 
REMARK       I    between atoms: N_4  and  C_5 
REMARK    3  A    between atoms: C_5  and  C_6 
REMARK       I    between atoms: C_6  and  N_7 
REMARK    4  A    between atoms: N_7  and  C_8 
REMARK    5  A    between atoms: C_16  and  C_17 
REMARK       I    between atoms: C_17  and  N_18 
REMARK    6  A    between atoms: N_18  and  C_19 
REMARK    7  A    between atoms: C_22  and  N_23 
REMARK    8  A    between atoms: N_23  and  C_24 
ROOT
HETATM    1  C   UNL     1      40.365  -8.875   7.162  1.00  0.00     0.063 C 
HETATM    2  C   UNL     1      41.024 -10.146   6.661  1.00  0.00     0.007 C 
HETATM    3  C   UNL     1      40.244 -11.048   6.028  1.00  0.00     0.094 C 
ENDROOT
BRANCH   3   4
HETATM    4  C   UNL     1      40.648 -12.403   5.548  1.00  0.00     0.247 C 
HETATM    5  N   UNL     1      41.282 -13.128   6.541  1.00  0.00    -0.324 N 
HETATM    6  H   UNL     1      41.211 -12.783   7.489  1.00  0.00     0.169 HD
HETATM    7  O   UNL     1      40.400 -12.792   4.415  1.00  0.00    -0.268 OA
BRANCH   5   8
HETATM    8  C   UNL     1      41.908 -14.382   6.387  1.00  0.00     0.035 A 
HETATM    9  C   UNL     1      41.228 -15.596   6.479  1.00  0.00     0.031 A 
HETATM   10  C   UNL     1      41.908 -16.807   6.314  1.00  0.00     0.026 A 
HETATM   11  C   UNL     1      43.292 -16.833   6.101  1.00  0.00     0.012 A 
HETATM   12  C   UNL     1      43.960 -15.613   5.957  1.00  0.00     0.026 A 
HETATM   13  C   UNL     1      43.274 -14.399   6.090  1.00  0.00     0.031 A 
BRANCH  11  14
HETATM   14  N   UNL     1      43.954 -18.084   5.959  1.00  0.00    -0.260 NA
HETATM   15  H   UNL     1      44.939 -17.945   6.185  1.00  0.00     0.134 HD
BRANCH  14  16
HETATM   16  C   UNL     1      43.889 -18.849   4.765  1.00  0.00     0.012 A 
HETATM   17  C   UNL     1      44.056 -20.235   4.796  1.00  0.00     0.024 A 
HETATM   18  C   UNL     1      43.935 -20.988   3.625  1.00  0.00     0.002 A 
HETATM   19  C   UNL     1      43.631 -20.359   2.418  1.00  0.00     0.000 A 
HETATM   20  C   UNL     1      43.442 -18.978   2.381  1.00  0.00     0.002 A 
HETATM   21  C   UNL     1      43.565 -18.227   3.551  1.00  0.00     0.024 A 
ENDBRANCH  14  16
ENDBRANCH  11  14
ENDBRANCH   5   8
ENDBRANCH   3   4
BRANCH   2  22
HETATM   22  N   UNL     1      42.386 -10.218   6.935  1.00  0.00    -0.207 NA
HETATM   23  H   UNL     1      42.888 -10.827   6.278  1.00  0.00     0.152 HD
BRANCH  22  24
HETATM   24  N   UNL     1      42.840 -10.450   8.248  1.00  0.00    -0.279 N 
HETATM   25  C   UNL     1      43.672  -9.499   8.811  1.00  0.00     0.323 C 
HETATM   26  O   UNL     1      43.859  -8.381   8.352  1.00  0.00    -0.261 OA
HETATM   27  H   UNL     1      42.829 -11.424   8.567  1.00  0.00     0.184 HD
BRANCH  25  28
HETATM   28  C   UNL     1      44.425 -10.002  10.047  1.00  0.00     0.311 C 
HETATM   29  N   UNL     1      44.017  -9.669  11.315  1.00  0.00    -0.348 N 
HETATM   30  H   UNL     1      44.625 -10.078  12.014  1.00  0.00     0.163 HD
HETATM   31  O   UNL     1      45.407 -10.723   9.884  1.00  0.00    -0.262 OA
BRANCH  29  32
HETATM   32  C   UNL     1      42.835  -8.961  11.813  1.00  0.00     0.084 C 
HETATM   33  C   UNL     1      41.549  -9.808  11.833  1.00  0.00     0.025 C 
HETATM   34  C   UNL     1      40.762  -9.869  13.142  1.00  0.00     0.002 C 
HETATM   35  C   UNL     1      40.906  -8.622  13.996  1.00  0.00     0.000 C 
HETATM   36  C   UNL     1      42.374  -8.362  14.289  1.00  0.00     0.002 C 
HETATM   37  C   UNL     1      43.142  -8.055  13.014  1.00  0.00     0.025 C 
ENDBRANCH  29  32
ENDBRANCH  25  28
ENDBRANCH  22  24
ENDBRANCH   2  22
TORSDOF 8
ENDMDL
MODEL 4
REMARK VINA RESULT:      -8.9      3.892     10.917
REMARK  8 active torsions:
REMARK  status: ('A' for Active; 'I' for Inactive)
REMARK    1  A    between atoms: C_2  and  N_3 
REMARK    2  A    between atoms: N_3  and  N_4 
REMARK       I    between atoms: N_4  and  C_5 
REMARK    3  A    between atoms: C_5  and  C_6 
REMARK       I    between atoms: C_6  and  N_7 
REMARK    4  A    between atoms: N_7  and  C_8 
REMARK    5  A    between atoms: C_16  and  C_17 
REMARK       I    between atoms: C_17  and  N_18 
REMARK    6  A    between atoms: N_18  and  C_19 
REMARK    7  A    between atoms: C_22  and  N_23 
REMARK    8  A    between atoms: N_23  and  C_24 
ROOT
HETATM    1  C   UNL     1      43.914 -11.428   5.585  1.00  0.00     0.063 C 
HETATM    2  C   UNL     1      43.781 -11.614   7.085  1.00  0.00     0.007 C 
HETATM    3  C   UNL     1      43.889 -10.517   7.864  1.00  0.00     0.094 C 
ENDROOT
BRANCH   3   4
HETATM    4  C   UNL     1      43.898 -10.473   9.356  1.00  0.00     0.247 C 
HETATM    5  N   UNL     1      42.799  -9.796   9.852  1.00  0.00    -0.324 N 
HETATM    6  H   UNL     1      42.036  -9.611   9.215  1.00  0.00     0.169 HD
HETATM    7  O   UNL     1      44.776 -11.011  10.018  1.00  0.00    -0.268 OA
BRANCH   5   8
HETATM    8  C   UNL     1      42.569  -9.455  11.201  1.00  0.00     0.035 A 
HETATM    9  C   UNL     1      43.339  -8.527  11.901  1.00  0.00     0.031 A 
HETATM   10  C   UNL     1      43.056  -8.231  13.239  1.00  0.00     0.026 A 
HETATM   11  C   UNL     1      42.028  -8.892  13.921  1.00  0.00     0.012 A 
HETATM   12  C   UNL     1      41.225  -9.783  13.201  1.00  0.00     0.026 A 
HETATM   13  C   UNL     1      41.487 -10.056  11.852  1.00  0.00     0.031 A 
BRANCH  11  14
HETATM   14  N   UNL     1      41.782  -8.583  15.287  1.00  0.00    -0.260 NA
HETATM   15  H   UNL     1      41.542  -9.449  15.767  1.00  0.00     0.134 HD
BRANCH  14  16
HETATM   16  C   UNL     1      40.845  -7.593  15.687  1.00  0.00     0.012 A 
HETATM   17  C   UNL     1      40.709  -7.242  17.032  1.00  0.00     0.024 A 
HETATM   18  C   UNL     1      39.824  -6.228  17.411  1.00  0.00     0.002 A 
HETATM   19  C   UNL     1      39.082  -5.551  16.444  1.00  0.00     0.000 A 
HETATM   20  C   UNL     1      39.226  -5.882  15.098  1.00  0.00     0.002 A 
HETATM   21  C   UNL     1      40.108  -6.895  14.720  1.00  0.00     0.024 A 
ENDBRANCH  14  16
ENDBRANCH  11  14
ENDBRANCH   5   8
ENDBRANCH   3   4
BRANCH   2  22
HETATM   22  N   UNL     1      43.566 -12.933   7.470  1.00  0.00    -0.207 NA
HETATM   23  H   UNL     1      44.391 -13.526   7.324  1.00  0.00     0.152 HD
BRANCH  22  24
HETATM   24  N   UNL     1      42.405 -13.617   7.061  1.00  0.00    -0.279 N 
HETATM   25  C   UNL     1      42.356 -14.981   7.286  1.00  0.00     0.323 C 
HETATM   26  O   UNL     1      43.132 -15.593   8.007  1.00  0.00    -0.261 OA
HETATM   27  H   UNL     1      41.843 -13.164   6.333  1.00  0.00     0.184 HD
BRANCH  25  28
HETATM   28  C   UNL     1      41.272 -15.696   6.474  1.00  0.00     0.311 C 
HETATM   29  N   UNL     1      41.446 -15.974   5.141  1.00  0.00    -0.348 N 
HETATM   30  H   UNL     1      40.634 -16.442   4.756  1.00  0.00     0.163 HD
HETATM   31  O   UNL     1      40.233 -16.026   7.042  1.00  0.00    -0.262 OA
BRANCH  29  32
HETATM   32  C   UNL     1      42.600 -15.830   4.249  1.00  0.00     0.084 C 
HETATM   33  C   UNL     1      43.026 -17.132   3.547  1.00  0.00     0.025 C 
HETATM   34  C   UNL     1      43.181 -17.099   2.027  1.00  0.00     0.002 C 
HETATM   35  C   UNL     1      43.580 -15.738   1.487  1.00  0.00     0.000 C 
HETATM   36  C   UNL     1      42.571 -14.691   1.925  1.00  0.00     0.002 C 
HETATM   37  C   UNL     1      42.569 -14.528   3.436  1.00  0.00     0.025 C 
ENDBRANCH  29  32
ENDBRANCH  25  28
ENDBRANCH  22  24
ENDBRANCH   2  22
TORSDOF 8
ENDMDL
MODEL 5
REMARK VINA RESULT:      -8.9      3.833      6.392
REMARK  8 active torsions:
REMARK  status: ('A' for Active; 'I' for Inactive)
REMARK    1  A    between atoms: C_2  and  N_3 
REMARK    2  A    between atoms: N_3  and  N_4 
REMARK       I    between atoms: N_4  and  C_5 
REMARK    3  A    between atoms: C_5  and  C_6 
REMARK       I    between atoms: C_6  and  N_7 
REMARK    4  A    between atoms: N_7  and  C_8 
REMARK    5  A    between atoms: C_16  and  C_17 
REMARK       I    between atoms: C_17  and  N_18 
REMARK    6  A    between atoms: N_18  and  C_19 
REMARK    7  A    between atoms: C_22  and  N_23 
REMARK    8  A    between atoms: N_23  and  C_24 
ROOT
HETATM    1  C   UNL     1      38.827  -8.656   3.292  1.00  0.00     0.063 C 
HETATM    2  C   UNL     1      39.020 -10.160   3.276  1.00  0.00     0.007 C 
HETATM    3  C   UNL     1      39.448 -10.748   4.413  1.00  0.00     0.094 C 
ENDROOT
BRANCH   3   4
HETATM    4  C   UNL     1      39.805 -12.185   4.600  1.00  0.00     0.247 C 
HETATM    5  N   UNL     1      40.586 -12.375   5.726  1.00  0.00    -0.324 N 
HETATM    6  H   UNL     1      40.642 -11.613   6.389  1.00  0.00     0.169 HD
HETATM    7  O   UNL     1      39.408 -13.059   3.841  1.00  0.00    -0.268 OA
BRANCH   5   8
HETATM    8  C   UNL     1      41.207 -13.579   6.117  1.00  0.00     0.035 A 
HETATM    9  C   UNL     1      40.519 -14.781   6.276  1.00  0.00     0.031 A 
HETATM   10  C   UNL     1      41.197 -15.942   6.664  1.00  0.00     0.026 A 
HETATM   11  C   UNL     1      42.567 -15.916   6.950  1.00  0.00     0.012 A 
HETATM   12  C   UNL     1      43.262 -14.720   6.739  1.00  0.00     0.026 A 
HETATM   13  C   UNL     1      42.591 -13.565   6.319  1.00  0.00     0.031 A 
BRANCH  11  14
HETATM   14  N   UNL     1      43.219 -17.110   7.364  1.00  0.00    -0.260 NA
HETATM   15  H   UNL     1      44.047 -16.847   7.898  1.00  0.00     0.134 HD
BRANCH  14  16
HETATM   16  C   UNL     1      43.601 -18.126   6.448  1.00  0.00     0.012 A 
HETATM   17  C   UNL     1      43.290 -19.465   6.696  1.00  0.00     0.024 A 
HETATM   18  C   UNL     1      43.620 -20.452   5.764  1.00  0.00     0.002 A 
HETATM   19  C   UNL     1      44.251 -20.102   4.570  1.00  0.00     0.000 A 
HETATM   20  C   UNL     1      44.547 -18.766   4.305  1.00  0.00     0.002 A 
HETATM   21  C   UNL     1      44.219 -17.781   5.237  1.00  0.00     0.024 A 
ENDBRANCH  14  16
ENDBRANCH  11  14
ENDBRANCH   5   8
ENDBRANCH   3   4
BRANCH   2  22
HETATM   22  N   UNL     1      38.727 -10.751   2.052  1.00  0.00    -0.207 NA
HETATM   23  H   UNL     1      38.056 -11.523   2.137  1.00  0.00     0.152 HD
BRANCH  22  24
HETATM   24  N   UNL     1      39.762 -11.111   1.166  1.00  0.00    -0.279 N 
HETATM   25  C   UNL     1      39.416 -11.845   0.046  1.00  0.00     0.323 C 
HETATM   26  O   UNL     1      38.270 -12.008  -0.349  1.00  0.00    -0.261 OA
HETATM   27  H   UNL     1      40.710 -11.126   1.557  1.00  0.00     0.184 HD
BRANCH  25  28
HETATM   28  C   UNL     1      40.610 -12.522  -0.633  1.00  0.00     0.311 C 
HETATM   29  N   UNL     1      41.405 -13.413   0.045  1.00  0.00    -0.348 N 
HETATM   30  H   UNL     1      42.149 -13.762  -0.546  1.00  0.00     0.163 HD
HETATM   31  O   UNL     1      40.845 -12.258  -1.810  1.00  0.00    -0.262 OA
BRANCH  29  32
HETATM   32  C   UNL     1      41.293 -14.014   1.376  1.00  0.00     0.084 C 
HETATM   33  C   UNL     1      40.505 -15.337   1.412  1.00  0.00     0.025 C 
HETATM   34  C   UNL     1      41.170 -16.540   2.081  1.00  0.00     0.002 C 
HETATM   35  C   UNL     1      42.138 -16.161   3.187  1.00  0.00     0.000 C 
HETATM   36  C   UNL     1      43.200 -15.219   2.647  1.00  0.00     0.002 C 
HETATM   37  C   UNL     1      42.588 -13.904   2.193  1.00  0.00     0.025 C 
ENDBRANCH  29  32
ENDBRANCH  25  28
ENDBRANCH  22  24
ENDBRANCH   2  22
TORSDOF 8
ENDMDL
MODEL 6
REMARK VINA RESULT:      -8.9      3.283      8.850
REMARK  8 active torsions:
REMARK  status: ('A' for Active; 'I' for Inactive)
REMARK    1  A    between atoms: C_2  and  N_3 
REMARK    2  A    between atoms: N_3  and  N_4 
REMARK       I    between atoms: N_4  and  C_5 
REMARK    3  A    between atoms: C_5  and  C_6 
REMARK       I    between atoms: C_6  and  N_7 
REMARK    4  A    between atoms: N_7  and  C_8 
REMARK    5  A    between atoms: C_16  and  C_17 
REMARK       I    between atoms: C_17  and  N_18 
REMARK    6  A    between atoms: N_18  and  C_19 
REMARK    7  A    between atoms: C_22  and  N_23 
REMARK    8  A    between atoms: N_23  and  C_24 
ROOT
HETATM    1  C   UNL     1      39.710 -14.040  -1.933  1.00  0.00     0.063 C 
HETATM    2  C   UNL     1      39.709 -13.777  -0.439  1.00  0.00     0.007 C 
HETATM    3  C   UNL     1      39.478 -12.512  -0.026  1.00  0.00     0.094 C 
ENDROOT
BRANCH   3   4
HETATM    4  C   UNL     1      39.534 -12.003   1.376  1.00  0.00     0.247 C 
HETATM    5  N   UNL     1      40.832 -11.946   1.848  1.00  0.00    -0.324 N 
HETATM    6  H   UNL     1      41.580 -12.030   1.171  1.00  0.00     0.169 HD
HETATM    7  O   UNL     1      38.528 -11.660   1.984  1.00  0.00    -0.268 OA
BRANCH   5   8
HETATM    8  C   UNL     1      41.229 -11.642   3.167  1.00  0.00     0.035 A 
HETATM    9  C   UNL     1      41.870 -10.456   3.522  1.00  0.00     0.031 A 
HETATM   10  C   UNL     1      42.235 -10.216   4.851  1.00  0.00     0.026 A 
HETATM   11  C   UNL     1      42.010 -11.175   5.845  1.00  0.00     0.012 A 
HETATM   12  C   UNL     1      41.319 -12.340   5.494  1.00  0.00     0.026 A 
HETATM   13  C   UNL     1      40.925 -12.568   4.169  1.00  0.00     0.031 A 
BRANCH  11  14
HETATM   14  N   UNL     1      42.413 -10.906   7.182  1.00  0.00    -0.260 NA
HETATM   15  H   UNL     1      41.703 -10.314   7.612  1.00  0.00     0.134 HD
BRANCH  14  16
HETATM   16  C   UNL     1      43.683 -10.355   7.498  1.00  0.00     0.012 A 
HETATM   17  C   UNL     1      43.786  -9.108   8.118  1.00  0.00     0.024 A 
HETATM   18  C   UNL     1      45.037  -8.597   8.476  1.00  0.00     0.002 A 
HETATM   19  C   UNL     1      46.192  -9.340   8.228  1.00  0.00     0.000 A 
HETATM   20  C   UNL     1      46.097 -10.594   7.627  1.00  0.00     0.002 A 
HETATM   21  C   UNL     1      44.847 -11.102   7.269  1.00  0.00     0.024 A 
ENDBRANCH  14  16
ENDBRANCH  11  14
ENDBRANCH   5   8
ENDBRANCH   3   4
BRANCH   2  22
HETATM   22  N   UNL     1      39.961 -14.908   0.330  1.00  0.00    -0.207 NA
HETATM   23  H   UNL     1      39.299 -15.009   1.109  1.00  0.00     0.152 HD
BRANCH  22  24
HETATM   24  N   UNL     1      41.267 -15.198   0.770  1.00  0.00    -0.279 N 
HETATM   25  C   UNL     1      41.435 -15.508   2.107  1.00  0.00     0.323 C 
HETATM   26  O   UNL     1      40.523 -15.769   2.879  1.00  0.00    -0.261 OA
HETATM   27  H   UNL     1      42.032 -14.831   0.194  1.00  0.00     0.184 HD
BRANCH  25  28
HETATM   28  C   UNL     1      42.891 -15.416   2.577  1.00  0.00     0.311 C 
HETATM   29  N   UNL     1      43.502 -16.468   3.213  1.00  0.00    -0.348 N 
HETATM   30  H   UNL     1      44.457 -16.240   3.461  1.00  0.00     0.163 HD
HETATM   31  O   UNL     1      43.512 -14.377   2.367  1.00  0.00    -0.262 OA
BRANCH  29  32
HETATM   32  C   UNL     1      43.072 -17.844   3.473  1.00  0.00     0.084 C 
HETATM   33  C   UNL     1      42.975 -18.727   2.215  1.00  0.00     0.025 C 
HETATM   34  C   UNL     1      43.705 -20.070   2.235  1.00  0.00     0.002 C 
HETATM   35  C   UNL     1      43.828 -20.673   3.622  1.00  0.00     0.000 C 
HETATM   36  C   UNL     1      44.525 -19.695   4.553  1.00  0.00     0.002 C 
HETATM   37  C   UNL     1      43.695 -18.436   4.745  1.00  0.00     0.025 C 
ENDBRANCH  29  32
ENDBRANCH  25  28
ENDBRANCH  22  24
ENDBRANCH   2  22
TORSDOF 8
ENDMDL
MODEL 7
REMARK VINA RESULT:      -8.8      2.934      4.042
REMARK  8 active torsions:
REMARK  status: ('A' for Active; 'I' for Inactive)
REMARK    1  A    between atoms: C_2  and  N_3 
REMARK    2  A    between atoms: N_3  and  N_4 
REMARK       I    between atoms: N_4  and  C_5 
REMARK    3  A    between atoms: C_5  and  C_6 
REMARK       I    between atoms: C_6  and  N_7 
REMARK    4  A    between atoms: N_7  and  C_8 
REMARK    5  A    between atoms: C_16  and  C_17 
REMARK       I    between atoms: C_17  and  N_18 
REMARK    6  A    between atoms: N_18  and  C_19 
REMARK    7  A    between atoms: C_22  and  N_23 
REMARK    8  A    between atoms: N_23  and  C_24 
ROOT
HETATM    1  C   UNL     1      38.205  -9.166   4.938  1.00  0.00     0.063 C 
HETATM    2  C   UNL     1      39.275 -10.216   5.166  1.00  0.00     0.007 C 
HETATM    3  C   UNL     1      39.408 -11.186   4.236  1.00  0.00     0.094 C 
ENDROOT
BRANCH   3   4
HETATM    4  C   UNL     1      40.312 -12.372   4.300  1.00  0.00     0.247 C 
HETATM    5  N   UNL     1      40.563 -12.891   3.043  1.00  0.00    -0.324 N 
HETATM    6  H   UNL     1      40.314 -12.322   2.244  1.00  0.00     0.169 HD
HETATM    7  O   UNL     1      40.775 -12.781   5.357  1.00  0.00    -0.268 OA
BRANCH   5   8
HETATM    8  C   UNL     1      41.260 -14.083   2.756  1.00  0.00     0.035 A 
HETATM    9  C   UNL     1      40.683 -15.349   2.839  1.00  0.00     0.031 A 
HETATM   10  C   UNL     1      41.430 -16.493   2.538  1.00  0.00     0.026 A 
HETATM   11  C   UNL     1      42.784 -16.399   2.195  1.00  0.00     0.012 A 
HETATM   12  C   UNL     1      43.345 -15.124   2.062  1.00  0.00     0.026 A 
HETATM   13  C   UNL     1      42.588 -13.976   2.332  1.00  0.00     0.031 A 
BRANCH  11  14
HETATM   14  N   UNL     1      43.519 -17.584   1.917  1.00  0.00    -0.260 NA
HETATM   15  H   UNL     1      43.099 -18.031   1.102  1.00  0.00     0.134 HD
BRANCH  14  16
HETATM   16  C   UNL     1      43.741 -18.590   2.894  1.00  0.00     0.012 A 
HETATM   17  C   UNL     1      44.004 -18.249   4.223  1.00  0.00     0.024 A 
HETATM   18  C   UNL     1      44.166 -19.245   5.190  1.00  0.00     0.002 A 
HETATM   19  C   UNL     1      44.051 -20.589   4.834  1.00  0.00     0.000 A 
HETATM   20  C   UNL     1      43.769 -20.938   3.515  1.00  0.00     0.002 A 
HETATM   21  C   UNL     1      43.609 -19.943   2.550  1.00  0.00     0.024 A 
ENDBRANCH  14  16
ENDBRANCH  11  14
ENDBRANCH   5   8
ENDBRANCH   3   4
BRANCH   2  22
HETATM   22  N   UNL     1      39.994 -10.039   6.343  1.00  0.00    -0.207 NA
HETATM   23  H   UNL     1      41.004 -10.176   6.211  1.00  0.00     0.152 HD
BRANCH  22  24
HETATM   24  N   UNL     1      39.577 -10.659   7.537  1.00  0.00    -0.279 N 
HETATM   25  C   UNL     1      39.099  -9.842   8.545  1.00  0.00     0.323 C 
HETATM   26  O   UNL     1      38.801  -8.665   8.402  1.00  0.00    -0.261 OA
HETATM   27  H   UNL     1      39.965 -11.589   7.724  1.00  0.00     0.184 HD
BRANCH  25  28
HETATM   28  C   UNL     1      39.048 -10.529   9.914  1.00  0.00     0.311 C 
HETATM   29  N   UNL     1      39.943 -10.210  10.905  1.00  0.00    -0.348 N 
HETATM   30  H   UNL     1      39.774 -10.758  11.740  1.00  0.00     0.163 HD
HETATM   31  O   UNL     1      38.180 -11.375  10.115  1.00  0.00    -0.262 OA
BRANCH  29  32
HETATM   32  C   UNL     1      40.973  -9.173  11.004  1.00  0.00     0.084 C 
HETATM   33  C   UNL     1      41.111  -8.546  12.403  1.00  0.00     0.025 C 
HETATM   34  C   UNL     1      42.506  -8.507  13.027  1.00  0.00     0.002 C 
HETATM   35  C   UNL     1      43.625  -8.425  12.005  1.00  0.00     0.000 C 
HETATM   36  C   UNL     1      43.528  -9.590  11.035  1.00  0.00     0.002 C 
HETATM   37  C   UNL     1      42.247  -9.519  10.220  1.00  0.00     0.025 C 
ENDBRANCH  29  32
ENDBRANCH  25  28
ENDBRANCH  22  24
ENDBRANCH   2  22
TORSDOF 8
ENDMDL
MODEL 8
REMARK VINA RESULT:      -8.7      2.451      3.085
REMARK  8 active torsions:
REMARK  status: ('A' for Active; 'I' for Inactive)
REMARK    1  A    between atoms: C_2  and  N_3 
REMARK    2  A    between atoms: N_3  and  N_4 
REMARK       I    between atoms: N_4  and  C_5 
REMARK    3  A    between atoms: C_5  and  C_6 
REMARK       I    between atoms: C_6  and  N_7 
REMARK    4  A    between atoms: N_7  and  C_8 
REMARK    5  A    between atoms: C_16  and  C_17 
REMARK       I    between atoms: C_17  and  N_18 
REMARK    6  A    between atoms: N_18  and  C_19 
REMARK    7  A    between atoms: C_22  and  N_23 
REMARK    8  A    between atoms: N_23  and  C_24 
ROOT
HETATM    1  C   UNL     1      39.674  -8.621   5.831  1.00  0.00     0.063 C 
HETATM    2  C   UNL     1      40.754  -9.681   5.722  1.00  0.00     0.007 C 
HETATM    3  C   UNL     1      40.476 -10.785   4.997  1.00  0.00     0.094 C 
ENDROOT
BRANCH   3   4
HETATM    4  C   UNL     1      41.336 -11.995   4.840  1.00  0.00     0.247 C 
HETATM    5  N   UNL     1      41.138 -12.606   3.615  1.00  0.00    -0.324 N 
HETATM    6  H   UNL     1      40.637 -12.085   2.908  1.00  0.00     0.169 HD
HETATM    7  O   UNL     1      42.129 -12.347   5.703  1.00  0.00    -0.268 OA
BRANCH   5   8
HETATM    8  C   UNL     1      41.684 -13.838   3.199  1.00  0.00     0.035 A 
HETATM    9  C   UNL     1      42.907 -13.951   2.537  1.00  0.00     0.031 A 
HETATM   10  C   UNL     1      43.394 -15.205   2.154  1.00  0.00     0.026 A 
HETATM   11  C   UNL     1      42.649 -16.368   2.380  1.00  0.00     0.012 A 
HETATM   12  C   UNL     1      41.449 -16.255   3.090  1.00  0.00     0.026 A 
HETATM   13  C   UNL     1      40.975 -15.003   3.504  1.00  0.00     0.031 A 
BRANCH  11  14
HETATM   14  N   UNL     1      43.165 -17.624   1.957  1.00  0.00    -0.260 NA
HETATM   15  H   UNL     1      42.537 -17.999   1.247  1.00  0.00     0.134 HD
BRANCH  14  16
HETATM   16  C   UNL     1      43.463 -18.671   2.868  1.00  0.00     0.012 A 
HETATM   17  C   UNL     1      43.460 -20.004   2.450  1.00  0.00     0.024 A 
HETATM   18  C   UNL     1      43.808 -21.025   3.339  1.00  0.00     0.002 A 
HETATM   19  C   UNL     1      44.175 -20.715   4.649  1.00  0.00     0.000 A 
HETATM   20  C   UNL     1      44.199 -19.387   5.069  1.00  0.00     0.002 A 
HETATM   21  C   UNL     1      43.850 -18.368   4.181  1.00  0.00     0.024 A 
ENDBRANCH  14  16
ENDBRANCH  11  14
ENDBRANCH   5   8
ENDBRANCH   3   4
BRANCH   2  22
HETATM   22  N   UNL     1      41.920  -9.367   6.411  1.00  0.00    -0.207 NA
HETATM   23  H   UNL     1      42.749  -9.372   5.805  1.00  0.00     0.152 HD
BRANCH  22  24
HETATM   24  N   UNL     1      42.218  -9.995   7.636  1.00  0.00    -0.279 N 
HETATM   25  C   UNL     1      43.201  -9.422   8.423  1.00  0.00     0.323 C 
HETATM   26  O   UNL     1      43.666  -8.304   8.248  1.00  0.00    -0.261 OA
HETATM   27  H   UNL     1      41.966 -10.985   7.712  1.00  0.00     0.184 HD
BRANCH  25  28
HETATM   28  C   UNL     1      43.734 -10.358   9.512  1.00  0.00     0.311 C 
HETATM   29  N   UNL     1      43.382 -10.193  10.829  1.00  0.00    -0.348 N 
HETATM   30  H   UNL     1      43.824 -10.889  11.416  1.00  0.00     0.163 HD
HETATM   31  O   UNL     1      44.484 -11.275   9.185  1.00  0.00    -0.262 OA
BRANCH  29  32
HETATM   32  C   UNL     1      42.423  -9.301  11.486  1.00  0.00     0.084 C 
HETATM   33  C   UNL     1      41.008  -9.890  11.635  1.00  0.00     0.025 C 
HETATM   34  C   UNL     1      40.376  -9.869  13.027  1.00  0.00     0.002 C 
HETATM   35  C   UNL     1      40.853  -8.718  13.893  1.00  0.00     0.000 C 
HETATM   36  C   UNL     1      42.367  -8.754  14.016  1.00  0.00     0.002 C 
HETATM   37  C   UNL     1      43.032  -8.532  12.667  1.00  0.00     0.025 C 
ENDBRANCH  29  32
ENDBRANCH  25  28
ENDBRANCH  22  24
ENDBRANCH   2  22
TORSDOF 8
ENDMDL
MODEL 9
REMARK VINA RESULT:      -8.6      4.734      7.218
REMARK  8 active torsions:
REMARK  status: ('A' for Active; 'I' for Inactive)
REMARK    1  A    between atoms: C_2  and  N_3 
REMARK    2  A    between atoms: N_3  and  N_4 
REMARK       I    between atoms: N_4  and  C_5 
REMARK    3  A    between atoms: C_5  and  C_6 
REMARK       I    between atoms: C_6  and  N_7 
REMARK    4  A    between atoms: N_7  and  C_8 
REMARK    5  A    between atoms: C_16  and  C_17 
REMARK       I    between atoms: C_17  and  N_18 
REMARK    6  A    between atoms: N_18  and  C_19 
REMARK    7  A    between atoms: C_22  and  N_23 
REMARK    8  A    between atoms: N_23  and  C_24 
ROOT
HETATM    1  C   UNL     1      40.941  -7.963   4.597  1.00  0.00     0.063 C 
HETATM    2  C   UNL     1      41.376  -9.233   3.892  1.00  0.00     0.007 C 
HETATM    3  C   UNL     1      42.251 -10.037   4.534  1.00  0.00     0.094 C 
ENDROOT
BRANCH   3   4
HETATM    4  C   UNL     1      42.895 -11.272   3.997  1.00  0.00     0.247 C 
HETATM    5  N   UNL     1      41.955 -12.207   3.603  1.00  0.00    -0.324 N 
HETATM    6  H   UNL     1      40.997 -11.897   3.510  1.00  0.00     0.169 HD
HETATM    7  O   UNL     1      44.110 -11.387   3.907  1.00  0.00    -0.268 OA
BRANCH   5   8
HETATM    8  C   UNL     1      42.218 -13.527   3.181  1.00  0.00     0.035 A 
HETATM    9  C   UNL     1      43.290 -13.872   2.360  1.00  0.00     0.031 A 
HETATM   10  C   UNL     1      43.496 -15.203   1.980  1.00  0.00     0.026 A 
HETATM   11  C   UNL     1      42.607 -16.210   2.372  1.00  0.00     0.012 A 
HETATM   12  C   UNL     1      41.564 -15.868   3.238  1.00  0.00     0.026 A 
HETATM   13  C   UNL     1      41.375 -14.542   3.646  1.00  0.00     0.031 A 
BRANCH  11  14
HETATM   14  N   UNL     1      42.836 -17.549   1.949  1.00  0.00    -0.260 NA
HETATM   15  H   UNL     1      41.971 -17.900   1.538  1.00  0.00     0.134 HD
BRANCH  14  16
HETATM   16  C   UNL     1      43.336 -18.549   2.823  1.00  0.00     0.012 A 
HETATM   17  C   UNL     1      43.697 -18.235   4.135  1.00  0.00     0.024 A 
HETATM   18  C   UNL     1      44.136 -19.236   5.006  1.00  0.00     0.002 A 
HETATM   19  C   UNL     1      44.202 -20.560   4.573  1.00  0.00     0.000 A 
HETATM   20  C   UNL     1      43.825 -20.885   3.271  1.00  0.00     0.002 A 
HETATM   21  C   UNL     1      43.388 -19.886   2.401  1.00  0.00     0.024 A 
ENDBRANCH  14  16
ENDBRANCH  11  14
ENDBRANCH   5   8
ENDBRANCH   3   4
BRANCH   2  22
HETATM   22  N   UNL     1      40.805  -9.403   2.636  1.00  0.00    -0.207 NA
HETATM   23  H   UNL     1      40.076 -10.126   2.629  1.00  0.00     0.152 HD
BRANCH  22  24
HETATM   24  N   UNL     1      41.617  -9.530   1.492  1.00  0.00    -0.279 N 
HETATM   25  C   UNL     1      41.076  -9.140   0.280  1.00  0.00     0.323 C 
HETATM   26  O   UNL     1      40.047  -8.491   0.157  1.00  0.00    -0.261 OA
HETATM   27  H   UNL     1      42.388 -10.203   1.554  1.00  0.00     0.184 HD
BRANCH  25  28
HETATM   28  C   UNL     1      41.848  -9.670  -0.932  1.00  0.00     0.311 C 
HETATM   29  N   UNL     1      41.511 -10.861  -1.527  1.00  0.00    -0.348 N 
HETATM   30  H   UNL     1      42.123 -11.066  -2.307  1.00  0.00     0.163 HD
HETATM   31  O   UNL     1      42.781  -9.003  -1.373  1.00  0.00    -0.262 OA
BRANCH  29  32
HETATM   32  C   UNL     1      40.392 -11.783  -1.317  1.00  0.00     0.084 C 
HETATM   33  C   UNL     1      39.903 -12.490  -2.594  1.00  0.00     0.025 C 
HETATM   34  C   UNL     1      39.790 -14.014  -2.560  1.00  0.00     0.002 C 
HETATM   35  C   UNL     1      39.490 -14.570  -1.180  1.00  0.00     0.000 C 
HETATM   36  C   UNL     1      40.552 -14.111  -0.195  1.00  0.00     0.002 C 
HETATM   37  C   UNL     1      40.525 -12.601  -0.024  1.00  0.00     0.025 C 
ENDBRANCH  29  32
ENDBRANCH  25  28
ENDBRANCH  22  24
ENDBRANCH   2  22
TORSDOF 8
ENDMDL
MODEL 10
REMARK VINA RESULT:      -8.4      3.618      5.326
REMARK  8 active torsions:
REMARK  status: ('A' for Active; 'I' for Inactive)
REMARK    1  A    between atoms: C_2  and  N_3 
REMARK    2  A    between atoms: N_3  and  N_4 
REMARK       I    between atoms: N_4  and  C_5 
REMARK    3  A    between atoms: C_5  and  C_6 
REMARK       I    between atoms: C_6  and  N_7 
REMARK    4  A    between atoms: N_7  and  C_8 
REMARK    5  A    between atoms: C_16  and  C_17 
REMARK       I    between atoms: C_17  and  N_18 
REMARK    6  A    between atoms: N_18  and  C_19 
REMARK    7  A    between atoms: C_22  and  N_23 
REMARK    8  A    between atoms: N_23  and  C_24 
ROOT
HETATM    1  C   UNL     1      36.636 -10.448   0.403  1.00  0.00     0.063 C 
HETATM    2  C   UNL     1      37.822 -11.267   0.877  1.00  0.00     0.007 C 
HETATM    3  C   UNL     1      38.506 -11.971  -0.050  1.00  0.00     0.094 C 
ENDROOT
BRANCH   3   4
HETATM    4  C   UNL     1      39.631 -12.921   0.195  1.00  0.00     0.247 C 
HETATM    5  N   UNL     1      39.519 -13.536   1.429  1.00  0.00    -0.324 N 
HETATM    6  H   UNL     1      38.633 -13.461   1.911  1.00  0.00     0.169 HD
HETATM    7  O   UNL     1      40.507 -13.122  -0.636  1.00  0.00    -0.268 OA
BRANCH   5   8
HETATM    8  C   UNL     1      40.476 -14.380   2.030  1.00  0.00     0.035 A 
HETATM    9  C   UNL     1      40.145 -15.418   2.901  1.00  0.00     0.031 A 
HETATM   10  C   UNL     1      41.144 -16.222   3.461  1.00  0.00     0.026 A 
HETATM   11  C   UNL     1      42.497 -15.975   3.202  1.00  0.00     0.012 A 
HETATM   12  C   UNL     1      42.821 -14.968   2.288  1.00  0.00     0.026 A 
HETATM   13  C   UNL     1      41.820 -14.183   1.701  1.00  0.00     0.031 A 
BRANCH  11  14
HETATM   14  N   UNL     1      43.486 -16.799   3.807  1.00  0.00    -0.260 NA
HETATM   15  H   UNL     1      44.400 -16.398   3.597  1.00  0.00     0.134 HD
BRANCH  14  16
HETATM   16  C   UNL     1      43.563 -18.197   3.570  1.00  0.00     0.012 A 
HETATM   17  C   UNL     1      43.240 -18.727   2.319  1.00  0.00     0.024 A 
HETATM   18  C   UNL     1      43.371 -20.097   2.076  1.00  0.00     0.002 A 
HETATM   19  C   UNL     1      43.840 -20.943   3.082  1.00  0.00     0.000 A 
HETATM   20  C   UNL     1      44.183 -20.419   4.327  1.00  0.00     0.002 A 
HETATM   21  C   UNL     1      44.050 -19.051   4.569  1.00  0.00     0.024 A 
ENDBRANCH  14  16
ENDBRANCH  11  14
ENDBRANCH   5   8
ENDBRANCH   3   4
BRANCH   2  22
HETATM   22  N   UNL     1      38.049 -11.187   2.246  1.00  0.00    -0.207 NA
HETATM   23  H   UNL     1      37.229 -11.463   2.799  1.00  0.00     0.152 HD
BRANCH  22  24
HETATM   24  N   UNL     1      38.640 -10.037   2.807  1.00  0.00    -0.279 N 
HETATM   25  C   UNL     1      40.009 -10.056   3.005  1.00  0.00     0.323 C 
HETATM   26  O   UNL     1      40.767 -10.890   2.529  1.00  0.00    -0.261 OA
HETATM   27  H   UNL     1      38.019  -9.424   3.345  1.00  0.00     0.184 HD
BRANCH  25  28
HETATM   28  C   UNL     1      40.502  -8.966   3.960  1.00  0.00     0.311 C 
HETATM   29  N   UNL     1      40.804  -9.248   5.270  1.00  0.00    -0.348 N 
HETATM   30  H   UNL     1      41.109  -8.417   5.762  1.00  0.00     0.163 HD
HETATM   31  O   UNL     1      40.632  -7.822   3.531  1.00  0.00    -0.262 OA
BRANCH  29  32
HETATM   32  C   UNL     1      40.879 -10.510   6.011  1.00  0.00     0.084 C 
HETATM   33  C   UNL     1      39.556 -11.296   6.062  1.00  0.00     0.025 C 
HETATM   34  C   UNL     1      39.587 -12.764   5.637  1.00  0.00     0.002 C 
HETATM   35  C   UNL     1      40.923 -13.439   5.888  1.00  0.00     0.000 C 
HETATM   36  C   UNL     1      42.031 -12.675   5.183  1.00  0.00     0.002 C 
HETATM   37  C   UNL     1      42.184 -11.277   5.758  1.00  0.00     0.025 C 
ENDBRANCH  29  32
ENDBRANCH  25  28
ENDBRANCH  22  24
ENDBRANCH   2  22
TORSDOF 8
ENDMDL
