MODEL 1
REMARK VINA RESULT:     -10.1      0.000      0.000
REMARK  7 active torsions:
REMARK  status: ('A' for Active; 'I' for Inactive)
REMARK    1  A    between atoms: C_2  and  C_3 
REMARK    2  A    between atoms: C_6  and  C_7 
REMARK    3  A    between atoms: N_8  and  N_9 
REMARK    4  A    between atoms: C_20  and  C_21 
REMARK       I    between atoms: C_21  and  N_22 
REMARK    5  A    between atoms: N_22  and  C_23 
REMARK    6  A    between atoms: C_23  and  C_24 
REMARK    7  A    between atoms: C_30  and  N_31 
ROOT
HETATM    1  N   UNL     1      40.822 -14.142   4.075  1.00  0.00    -0.202 N 
HETATM    2  C   UNL     1      41.412 -15.367   3.821  1.00  0.00     0.183 A 
HETATM    3  C   UNL     1      41.210 -15.649   2.475  1.00  0.00     0.124 A 
HETATM    4  N   UNL     1      41.807 -16.721   1.896  1.00  0.00    -0.242 NA
HETATM    5  C   UNL     1      42.550 -17.476   2.717  1.00  0.00     0.086 A 
HETATM    6  C   UNL     1      42.705 -17.186   4.096  1.00  0.00     0.088 A 
HETATM    7  N   UNL     1      42.149 -16.112   4.679  1.00  0.00    -0.225 NA
HETATM    8  C   UNL     1      43.203 -18.582   2.186  1.00  0.00     0.034 A 
HETATM    9  C   UNL     1      43.992 -19.416   2.979  1.00  0.00     0.002 A 
HETATM   10  C   UNL     1      44.125 -19.145   4.333  1.00  0.00     0.002 A 
HETATM   11  C   UNL     1      43.481 -18.033   4.878  1.00  0.00     0.034 A 
HETATM   12  C   UNL     1      40.398 -14.618   1.920  1.00  0.00     0.104 C 
HETATM   13  C   UNL     1      40.031 -13.801   2.982  1.00  0.00     0.123 C 
ENDROOT
BRANCH   1  14
HETATM   14  N   UNL     1      41.034 -13.264   5.117  1.00  0.00    -0.176 NA
HETATM   15  C   UNL     1      42.295 -13.136   5.390  1.00  0.00     0.150 C 
BRANCH  15  16
HETATM   16  C   UNL     1      42.820 -12.122   6.318  1.00  0.00    -0.017 A 
HETATM   17  C   UNL     1      42.274 -10.846   6.412  1.00  0.00     0.013 A 
HETATM   18  C   UNL     1      42.895  -9.885   7.219  1.00  0.00     0.009 A 
HETATM   19  C   UNL     1      44.074 -10.178   7.934  1.00  0.00    -0.051 A 
HETATM   20  C   UNL     1      44.591 -11.484   7.828  1.00  0.00     0.009 A 
HETATM   21  C   UNL     1      43.970 -12.449   7.037  1.00  0.00     0.013 A 
BRANCH  19  22
HETATM   22  C   UNL     1      44.826  -9.133   8.777  1.00  0.00    -0.024 C 
HETATM   23  C   UNL     1      44.131  -7.755   8.823  1.00  0.00     0.019 C 
HETATM   24  C   UNL     1      46.234  -8.922   8.179  1.00  0.00     0.019 C 
HETATM   25  C   UNL     1      44.961  -9.625  10.234  1.00  0.00     0.019 C 
ENDBRANCH  19  22
ENDBRANCH  15  16
ENDBRANCH   1  14
BRANCH  13  26
HETATM   26  N   UNL     1      39.198 -12.718   3.043  1.00  0.00    -0.286 NA
HETATM   27  H   UNL     1      38.264 -12.874   2.645  1.00  0.00     0.125 HD
HETATM   28  H   UNL     1      39.568 -11.825   2.715  1.00  0.00     0.125 HD
ENDBRANCH  13  26
BRANCH  12  29
HETATM   29  C   UNL     1      40.107 -14.412   0.507  1.00  0.00     0.257 C 
HETATM   30  N   UNL     1      40.372 -13.132   0.056  1.00  0.00    -0.354 N 
HETATM   31  H   UNL     1      40.820 -12.523   0.736  1.00  0.00     0.162 HD
HETATM   32  O   UNL     1      39.757 -15.316  -0.239  1.00  0.00    -0.267 OA
BRANCH  30  33
HETATM   33  C   UNL     1      40.647 -12.846  -1.340  1.00  0.00     0.155 C 
BRANCH  33  34
HETATM   34  C   UNL     1      39.423 -12.598  -2.226  1.00  0.00     0.139 C 
HETATM   35  O   UNL     1      39.372 -13.630  -3.243  1.00  0.00    -0.384 OA
HETATM   36  C   UNL     1      38.043 -14.165  -3.286  1.00  0.00     0.168 C 
HETATM   37  C   UNL     1      37.158 -13.168  -2.579  1.00  0.00     0.029 C 
HETATM   38  C   UNL     1      38.083 -12.649  -1.507  1.00  0.00     0.035 C 
ENDBRANCH  33  34
ENDBRANCH  30  33
ENDBRANCH  12  29
TORSDOF 7
ENDMDL
MODEL 2
REMARK VINA RESULT:     -10.1      2.827      8.561
REMARK  7 active torsions:
REMARK  status: ('A' for Active; 'I' for Inactive)
REMARK    1  A    between atoms: C_2  and  C_3 
REMARK    2  A    between atoms: C_6  and  C_7 
REMARK    3  A    between atoms: N_8  and  N_9 
REMARK    4  A    between atoms: C_20  and  C_21 
REMARK       I    between atoms: C_21  and  N_22 
REMARK    5  A    between atoms: N_22  and  C_23 
REMARK    6  A    between atoms: C_23  and  C_24 
REMARK    7  A    between atoms: C_30  and  N_31 
ROOT
HETATM    1  N   UNL     1      42.933 -15.004   2.764  1.00  0.00    -0.202 N 
HETATM    2  C   UNL     1      43.294 -16.263   3.206  1.00  0.00     0.183 A 
HETATM    3  C   UNL     1      43.524 -16.169   4.573  1.00  0.00     0.124 A 
HETATM    4  N   UNL     1      43.752 -17.282   5.315  1.00  0.00    -0.242 NA
HETATM    5  C   UNL     1      43.774 -18.434   4.628  1.00  0.00     0.086 A 
HETATM    6  C   UNL     1      43.577 -18.494   3.225  1.00  0.00     0.088 A 
HETATM    7  N   UNL     1      43.317 -17.408   2.481  1.00  0.00    -0.225 NA
HETATM    8  C   UNL     1      43.987 -19.615   5.328  1.00  0.00     0.034 A 
HETATM    9  C   UNL     1      44.026 -20.851   4.681  1.00  0.00     0.002 A 
HETATM   10  C   UNL     1      43.857 -20.908   3.306  1.00  0.00     0.002 A 
HETATM   11  C   UNL     1      43.633 -19.730   2.592  1.00  0.00     0.034 A 
HETATM   12  C   UNL     1      43.390 -14.803   4.955  1.00  0.00     0.104 C 
HETATM   13  C   UNL     1      43.201 -14.090   3.778  1.00  0.00     0.123 C 
ENDROOT
BRANCH   1  14
HETATM   14  N   UNL     1      42.273 -14.633   1.611  1.00  0.00    -0.176 NA
HETATM   15  C   UNL     1      41.002 -14.474   1.813  1.00  0.00     0.150 C 
BRANCH  15  16
HETATM   16  C   UNL     1      40.093 -13.893   0.813  1.00  0.00    -0.017 A 
HETATM   17  C   UNL     1      39.869 -14.490  -0.424  1.00  0.00     0.013 A 
HETATM   18  C   UNL     1      39.093 -13.826  -1.382  1.00  0.00     0.009 A 
HETATM   19  C   UNL     1      38.542 -12.554  -1.128  1.00  0.00    -0.051 A 
HETATM   20  C   UNL     1      38.777 -11.986   0.140  1.00  0.00     0.009 A 
HETATM   21  C   UNL     1      39.537 -12.648   1.103  1.00  0.00     0.013 A 
BRANCH  19  22
HETATM   22  C   UNL     1      37.743 -11.761  -2.177  1.00  0.00    -0.024 C 
HETATM   23  C   UNL     1      36.834 -10.670  -1.572  1.00  0.00     0.019 C 
HETATM   24  C   UNL     1      36.839 -12.735  -2.964  1.00  0.00     0.019 C 
HETATM   25  C   UNL     1      38.708 -11.059  -3.158  1.00  0.00     0.019 C 
ENDBRANCH  19  22
ENDBRANCH  15  16
ENDBRANCH   1  14
BRANCH  13  26
HETATM   26  N   UNL     1      43.097 -12.746   3.543  1.00  0.00    -0.286 NA
HETATM   27  H   UNL     1      42.567 -12.227   4.252  1.00  0.00     0.125 HD
HETATM   28  H   UNL     1      42.800 -12.457   2.610  1.00  0.00     0.125 HD
ENDBRANCH  13  26
BRANCH  12  29
HETATM   29  C   UNL     1      43.352 -14.285   6.317  1.00  0.00     0.257 C 
HETATM   30  N   UNL     1      44.090 -13.131   6.504  1.00  0.00    -0.354 N 
HETATM   31  H   UNL     1      44.490 -12.737   5.656  1.00  0.00     0.162 HD
HETATM   32  O   UNL     1      42.648 -14.769   7.193  1.00  0.00    -0.267 OA
BRANCH  30  33
HETATM   33  C   UNL     1      43.799 -12.193   7.573  1.00  0.00     0.155 C 
BRANCH  33  34
HETATM   34  C   UNL     1      44.444 -10.810   7.443  1.00  0.00     0.139 C 
HETATM   35  O   UNL     1      44.156 -10.052   8.644  1.00  0.00    -0.384 OA
HETATM   36  C   UNL     1      45.375  -9.468   9.120  1.00  0.00     0.168 C 
HETATM   37  C   UNL     1      46.352  -9.522   7.970  1.00  0.00     0.029 C 
HETATM   38  C   UNL     1      45.959 -10.814   7.300  1.00  0.00     0.035 C 
ENDBRANCH  33  34
ENDBRANCH  30  33
ENDBRANCH  12  29
TORSDOF 7
ENDMDL
MODEL 3
REMARK VINA RESULT:      -9.9      1.324      1.947
REMARK  7 active torsions:
REMARK  status: ('A' for Active; 'I' for Inactive)
REMARK    1  A    between atoms: C_2  and  C_3 
REMARK    2  A    between atoms: C_6  and  C_7 
REMARK    3  A    between atoms: N_8  and  N_9 
REMARK    4  A    between atoms: C_20  and  C_21 
REMARK       I    between atoms: C_21  and  N_22 
REMARK    5  A    between atoms: N_22  and  C_23 
REMARK    6  A    between atoms: C_23  and  C_24 
REMARK    7  A    between atoms: C_30  and  N_31 
ROOT
HETATM    1  N   UNL     1      40.966 -14.341   4.447  1.00  0.00    -0.202 N 
HETATM    2  C   UNL     1      41.524 -15.547   4.063  1.00  0.00     0.183 A 
HETATM    3  C   UNL     1      41.266 -15.705   2.707  1.00  0.00     0.124 A 
HETATM    4  N   UNL     1      41.821 -16.730   2.012  1.00  0.00    -0.242 NA
HETATM    5  C   UNL     1      42.581 -17.566   2.734  1.00  0.00     0.086 A 
HETATM    6  C   UNL     1      42.794 -17.402   4.126  1.00  0.00     0.088 A 
HETATM    7  N   UNL     1      42.279 -16.376   4.823  1.00  0.00    -0.225 NA
HETATM    8  C   UNL     1      43.194 -18.630   2.082  1.00  0.00     0.034 A 
HETATM    9  C   UNL     1      43.997 -19.543   2.767  1.00  0.00     0.002 A 
HETATM   10  C   UNL     1      44.186 -19.395   4.134  1.00  0.00     0.002 A 
HETATM   11  C   UNL     1      43.583 -18.326   4.799  1.00  0.00     0.034 A 
HETATM   12  C   UNL     1      40.452 -14.618   2.276  1.00  0.00     0.104 C 
HETATM   13  C   UNL     1      40.141 -13.893   3.420  1.00  0.00     0.123 C 
ENDROOT
BRANCH   1  14
HETATM   14  N   UNL     1      41.233 -13.562   5.553  1.00  0.00    -0.176 NA
HETATM   15  C   UNL     1      42.432 -13.070   5.518  1.00  0.00     0.150 C 
BRANCH  15  16
HETATM   16  C   UNL     1      42.913 -12.051   6.464  1.00  0.00    -0.017 A 
HETATM   17  C   UNL     1      42.247 -10.846   6.661  1.00  0.00     0.013 A 
HETATM   18  C   UNL     1      42.821  -9.864   7.478  1.00  0.00     0.009 A 
HETATM   19  C   UNL     1      44.070 -10.063   8.098  1.00  0.00    -0.051 A 
HETATM   20  C   UNL     1      44.710 -11.300   7.888  1.00  0.00     0.009 A 
HETATM   21  C   UNL     1      44.138 -12.287   7.087  1.00  0.00     0.013 A 
BRANCH  19  22
HETATM   22  C   UNL     1      44.767  -8.985   8.946  1.00  0.00    -0.024 C 
HETATM   23  C   UNL     1      44.085  -7.602   8.877  1.00  0.00     0.019 C 
HETATM   24  C   UNL     1      46.219  -8.811   8.447  1.00  0.00     0.019 C 
HETATM   25  C   UNL     1      44.789  -9.410  10.430  1.00  0.00     0.019 C 
ENDBRANCH  19  22
ENDBRANCH  15  16
ENDBRANCH   1  14
BRANCH  13  26
HETATM   26  N   UNL     1      39.330 -12.807   3.609  1.00  0.00    -0.286 NA
HETATM   27  H   UNL     1      39.804 -11.900   3.528  1.00  0.00     0.125 HD
HETATM   28  H   UNL     1      38.731 -12.810   4.436  1.00  0.00     0.125 HD
ENDBRANCH  13  26
BRANCH  12  29
HETATM   29  C   UNL     1      40.113 -14.282   0.900  1.00  0.00     0.257 C 
HETATM   30  N   UNL     1      39.078 -13.374   0.777  1.00  0.00    -0.354 N 
HETATM   31  H   UNL     1      38.745 -12.984   1.656  1.00  0.00     0.162 HD
HETATM   32  O   UNL     1      40.753 -14.689  -0.061  1.00  0.00    -0.267 OA
BRANCH  30  33
HETATM   33  C   UNL     1      38.921 -12.536  -0.398  1.00  0.00     0.155 C 
BRANCH  33  34
HETATM   34  C   UNL     1      39.564 -11.149  -0.320  1.00  0.00     0.139 C 
HETATM   35  O   UNL     1      39.870 -10.858   1.066  1.00  0.00    -0.384 OA
HETATM   36  C   UNL     1      41.220 -10.385   1.148  1.00  0.00     0.168 C 
HETATM   37  C   UNL     1      41.618  -9.984  -0.251  1.00  0.00     0.029 C 
HETATM   38  C   UNL     1      40.875 -11.001  -1.079  1.00  0.00     0.035 C 
ENDBRANCH  33  34
ENDBRANCH  30  33
ENDBRANCH  12  29
TORSDOF 7
ENDMDL
MODEL 4
REMARK VINA RESULT:      -9.2      4.582     10.164
REMARK  7 active torsions:
REMARK  status: ('A' for Active; 'I' for Inactive)
REMARK    1  A    between atoms: C_2  and  C_3 
REMARK    2  A    between atoms: C_6  and  C_7 
REMARK    3  A    between atoms: N_8  and  N_9 
REMARK    4  A    between atoms: C_20  and  C_21 
REMARK       I    between atoms: C_21  and  N_22 
REMARK    5  A    between atoms: N_22  and  C_23 
REMARK    6  A    between atoms: C_23  and  C_24 
REMARK    7  A    between atoms: C_30  and  N_31 
ROOT
HETATM    1  N   UNL     1      40.169 -10.816   5.429  1.00  0.00    -0.202 N 
HETATM    2  C   UNL     1      41.455 -10.683   5.918  1.00  0.00     0.183 A 
HETATM    3  C   UNL     1      41.360 -10.084   7.169  1.00  0.00     0.124 A 
HETATM    4  N   UNL     1      42.454  -9.958   7.961  1.00  0.00    -0.242 NA
HETATM    5  C   UNL     1      43.600 -10.412   7.433  1.00  0.00     0.086 A 
HETATM    6  C   UNL     1      43.674 -10.983   6.136  1.00  0.00     0.088 A 
HETATM    7  N   UNL     1      42.596 -11.145   5.352  1.00  0.00    -0.225 NA
HETATM    8  C   UNL     1      44.757 -10.329   8.196  1.00  0.00     0.034 A 
HETATM    9  C   UNL     1      45.987 -10.779   7.712  1.00  0.00     0.002 A 
HETATM   10  C   UNL     1      46.063 -11.315   6.435  1.00  0.00     0.002 A 
HETATM   11  C   UNL     1      44.906 -11.413   5.661  1.00  0.00     0.034 A 
HETATM   12  C   UNL     1      39.993  -9.759   7.405  1.00  0.00     0.104 C 
HETATM   13  C   UNL     1      39.315 -10.065   6.232  1.00  0.00     0.123 C 
ENDROOT
BRANCH   1  14
HETATM   14  N   UNL     1      39.687 -11.640   4.434  1.00  0.00    -0.176 NA
HETATM   15  C   UNL     1      39.687 -11.052   3.279  1.00  0.00     0.150 C 
BRANCH  15  16
HETATM   16  C   UNL     1      39.412 -11.755   2.016  1.00  0.00    -0.017 A 
HETATM   17  C   UNL     1      40.068 -12.930   1.661  1.00  0.00     0.013 A 
HETATM   18  C   UNL     1      39.857 -13.483   0.392  1.00  0.00     0.009 A 
HETATM   19  C   UNL     1      39.002 -12.869  -0.544  1.00  0.00    -0.051 A 
HETATM   20  C   UNL     1      38.344 -11.689  -0.146  1.00  0.00     0.009 A 
HETATM   21  C   UNL     1      38.538 -11.140   1.121  1.00  0.00     0.013 A 
BRANCH  19  22
HETATM   22  C   UNL     1      38.797 -13.406  -1.971  1.00  0.00    -0.024 C 
HETATM   23  C   UNL     1      39.058 -14.921  -2.110  1.00  0.00     0.019 C 
HETATM   24  C   UNL     1      39.767 -12.679  -2.928  1.00  0.00     0.019 C 
HETATM   25  C   UNL     1      37.345 -13.148  -2.430  1.00  0.00     0.019 C 
ENDBRANCH  19  22
ENDBRANCH  15  16
ENDBRANCH   1  14
BRANCH  13  26
HETATM   26  N   UNL     1      38.009  -9.882   5.869  1.00  0.00    -0.286 NA
HETATM   27  H   UNL     1      37.592  -9.003   6.200  1.00  0.00     0.125 HD
HETATM   28  H   UNL     1      37.364 -10.655   6.040  1.00  0.00     0.125 HD
ENDBRANCH  13  26
BRANCH  12  29
HETATM   29  C   UNL     1      39.417  -9.302   8.664  1.00  0.00     0.257 C 
HETATM   30  N   UNL     1      40.027  -9.826   9.789  1.00  0.00    -0.354 N 
HETATM   31  H   UNL     1      40.855 -10.388   9.604  1.00  0.00     0.162 HD
HETATM   32  O   UNL     1      38.539  -8.452   8.723  1.00  0.00    -0.267 OA
BRANCH  30  33
HETATM   33  C   UNL     1      39.980  -9.156  11.075  1.00  0.00     0.155 C 
BRANCH  33  34
HETATM   34  C   UNL     1      41.331  -8.926  11.759  1.00  0.00     0.139 C 
HETATM   35  O   UNL     1      41.921 -10.216  12.059  1.00  0.00    -0.384 OA
HETATM   36  C   UNL     1      43.282 -10.212  11.609  1.00  0.00     0.168 C 
HETATM   37  C   UNL     1      43.661  -8.765  11.406  1.00  0.00     0.029 C 
HETATM   38  C   UNL     1      42.360  -8.177  10.924  1.00  0.00     0.035 C 
ENDBRANCH  33  34
ENDBRANCH  30  33
ENDBRANCH  12  29
TORSDOF 7
ENDMDL
MODEL 5
REMARK VINA RESULT:      -9.1     16.129     18.296
REMARK  7 active torsions:
REMARK  status: ('A' for Active; 'I' for Inactive)
REMARK    1  A    between atoms: C_2  and  C_3 
REMARK    2  A    between atoms: C_6  and  C_7 
REMARK    3  A    between atoms: N_8  and  N_9 
REMARK    4  A    between atoms: C_20  and  C_21 
REMARK       I    between atoms: C_21  and  N_22 
REMARK    5  A    between atoms: N_22  and  C_23 
REMARK    6  A    between atoms: C_23  and  C_24 
REMARK    7  A    between atoms: C_30  and  N_31 
ROOT
HETATM    1  N   UNL     1      46.716 -29.510   3.072  1.00  0.00    -0.202 N 
HETATM    2  C   UNL     1      45.513 -30.114   2.755  1.00  0.00     0.183 A 
HETATM    3  C   UNL     1      45.210 -29.764   1.444  1.00  0.00     0.124 A 
HETATM    4  N   UNL     1      44.157 -30.330   0.802  1.00  0.00    -0.242 NA
HETATM    5  C   UNL     1      43.440 -31.196   1.532  1.00  0.00     0.086 A 
HETATM    6  C   UNL     1      43.749 -31.503   2.882  1.00  0.00     0.088 A 
HETATM    7  N   UNL     1      44.806 -30.978   3.522  1.00  0.00    -0.225 NA
HETATM    8  C   UNL     1      42.356 -31.825   0.932  1.00  0.00     0.034 A 
HETATM    9  C   UNL     1      41.560 -32.736   1.629  1.00  0.00     0.002 A 
HETATM   10  C   UNL     1      41.849 -33.019   2.956  1.00  0.00     0.002 A 
HETATM   11  C   UNL     1      42.940 -32.401   3.569  1.00  0.00     0.034 A 
HETATM   12  C   UNL     1      46.203 -28.851   0.985  1.00  0.00     0.104 C 
HETATM   13  C   UNL     1      47.015 -28.582   2.080  1.00  0.00     0.123 C 
ENDROOT
BRANCH   1  14
HETATM   14  N   UNL     1      47.612 -29.810   4.077  1.00  0.00    -0.176 NA
HETATM   15  C   UNL     1      48.225 -30.931   3.857  1.00  0.00     0.150 C 
BRANCH  15  16
HETATM   16  C   UNL     1      49.368 -31.395   4.659  1.00  0.00    -0.017 A 
HETATM   17  C   UNL     1      49.250 -32.408   5.605  1.00  0.00     0.013 A 
HETATM   18  C   UNL     1      50.341 -32.719   6.425  1.00  0.00     0.009 A 
HETATM   19  C   UNL     1      51.559 -32.018   6.324  1.00  0.00    -0.051 A 
HETATM   20  C   UNL     1      51.648 -31.008   5.346  1.00  0.00     0.009 A 
HETATM   21  C   UNL     1      50.570 -30.703   4.516  1.00  0.00     0.013 A 
BRANCH  19  22
HETATM   22  C   UNL     1      52.758 -32.280   7.252  1.00  0.00    -0.024 C 
HETATM   23  C   UNL     1      53.777 -33.290   6.681  1.00  0.00     0.019 C 
HETATM   24  C   UNL     1      52.243 -32.849   8.592  1.00  0.00     0.019 C 
HETATM   25  C   UNL     1      53.520 -30.964   7.518  1.00  0.00     0.019 C 
ENDBRANCH  19  22
ENDBRANCH  15  16
ENDBRANCH   1  14
BRANCH  13  26
HETATM   26  N   UNL     1      48.065 -27.718   2.235  1.00  0.00    -0.286 NA
HETATM   27  H   UNL     1      48.176 -27.039   1.474  1.00  0.00     0.125 HD
HETATM   28  H   UNL     1      48.972 -28.124   2.470  1.00  0.00     0.125 HD
ENDBRANCH  13  26
BRANCH  12  29
HETATM   29  C   UNL     1      46.384 -28.386  -0.384  1.00  0.00     0.257 C 
HETATM   30  N   UNL     1      45.302 -28.624  -1.211  1.00  0.00    -0.354 N 
HETATM   31  H   UNL     1      44.483 -29.006  -0.744  1.00  0.00     0.162 HD
HETATM   32  O   UNL     1      47.366 -27.750  -0.746  1.00  0.00    -0.267 OA
BRANCH  30  33
HETATM   33  C   UNL     1      45.051 -27.831  -2.401  1.00  0.00     0.155 C 
BRANCH  33  34
HETATM   34  C   UNL     1      45.055 -28.597  -3.727  1.00  0.00     0.139 C 
HETATM   35  O   UNL     1      46.108 -29.591  -3.682  1.00  0.00    -0.384 OA
HETATM   36  C   UNL     1      45.571 -30.848  -4.114  1.00  0.00     0.168 C 
HETATM   37  C   UNL     1      44.279 -30.536  -4.829  1.00  0.00     0.029 C 
HETATM   38  C   UNL     1      43.774 -29.356  -4.040  1.00  0.00     0.035 C 
ENDBRANCH  33  34
ENDBRANCH  30  33
ENDBRANCH  12  29
TORSDOF 7
ENDMDL
MODEL 6
REMARK VINA RESULT:      -8.9      1.970      2.516
REMARK  7 active torsions:
REMARK  status: ('A' for Active; 'I' for Inactive)
REMARK    1  A    between atoms: C_2  and  C_3 
REMARK    2  A    between atoms: C_6  and  C_7 
REMARK    3  A    between atoms: N_8  and  N_9 
REMARK    4  A    between atoms: C_20  and  C_21 
REMARK       I    between atoms: C_21  and  N_22 
REMARK    5  A    between atoms: N_22  and  C_23 
REMARK    6  A    between atoms: C_23  and  C_24 
REMARK    7  A    between atoms: C_30  and  N_31 
ROOT
HETATM    1  N   UNL     1      42.064 -11.912   3.543  1.00  0.00    -0.202 N 
HETATM    2  C   UNL     1      42.271 -13.271   3.390  1.00  0.00     0.183 A 
HETATM    3  C   UNL     1      41.978 -13.584   2.068  1.00  0.00     0.124 A 
HETATM    4  N   UNL     1      42.230 -14.824   1.578  1.00  0.00    -0.242 NA
HETATM    5  C   UNL     1      42.733 -15.697   2.462  1.00  0.00     0.086 A 
HETATM    6  C   UNL     1      42.984 -15.360   3.817  1.00  0.00     0.088 A 
HETATM    7  N   UNL     1      42.771 -14.130   4.310  1.00  0.00    -0.225 NA
HETATM    8  C   UNL     1      43.031 -16.982   2.024  1.00  0.00     0.034 A 
HETATM    9  C   UNL     1      43.554 -17.946   2.887  1.00  0.00     0.002 A 
HETATM   10  C   UNL     1      43.777 -17.623   4.217  1.00  0.00     0.002 A 
HETATM   11  C   UNL     1      43.491 -16.334   4.669  1.00  0.00     0.034 A 
HETATM   12  C   UNL     1      41.492 -12.408   1.427  1.00  0.00     0.104 C 
HETATM   13  C   UNL     1      41.392 -11.441   2.420  1.00  0.00     0.123 C 
ENDROOT
BRANCH   1  14
HETATM   14  N   UNL     1      42.535 -11.056   4.516  1.00  0.00    -0.176 NA
HETATM   15  C   UNL     1      41.763 -11.038   5.558  1.00  0.00     0.150 C 
BRANCH  15  16
HETATM   16  C   UNL     1      42.124 -10.368   6.817  1.00  0.00    -0.017 A 
HETATM   17  C   UNL     1      43.342 -10.584   7.452  1.00  0.00     0.013 A 
HETATM   18  C   UNL     1      43.576 -10.017   8.711  1.00  0.00     0.009 A 
HETATM   19  C   UNL     1      42.597  -9.239   9.359  1.00  0.00    -0.051 A 
HETATM   20  C   UNL     1      41.380  -9.028   8.681  1.00  0.00     0.009 A 
HETATM   21  C   UNL     1      41.146  -9.578   7.422  1.00  0.00     0.013 A 
BRANCH  19  22
HETATM   22  C   UNL     1      42.787  -8.656  10.771  1.00  0.00    -0.024 C 
HETATM   23  C   UNL     1      41.702  -9.096  11.777  1.00  0.00     0.019 C 
HETATM   24  C   UNL     1      42.746  -7.114  10.689  1.00  0.00     0.019 C 
HETATM   25  C   UNL     1      44.150  -9.098  11.347  1.00  0.00     0.019 C 
ENDBRANCH  19  22
ENDBRANCH  15  16
ENDBRANCH   1  14
BRANCH  13  26
HETATM   26  N   UNL     1      40.910 -10.161   2.389  1.00  0.00    -0.286 NA
HETATM   27  H   UNL     1      40.300  -9.953   1.589  1.00  0.00     0.125 HD
HETATM   28  H   UNL     1      41.584  -9.405   2.514  1.00  0.00     0.125 HD
ENDBRANCH  13  26
BRANCH  12  29
HETATM   29  C   UNL     1      41.256 -12.234  -0.001  1.00  0.00     0.257 C 
HETATM   30  N   UNL     1      40.963 -13.406  -0.673  1.00  0.00    -0.354 N 
HETATM   31  H   UNL     1      40.856 -14.225  -0.078  1.00  0.00     0.162 HD
HETATM   32  O   UNL     1      41.220 -11.136  -0.540  1.00  0.00    -0.267 OA
BRANCH  30  33
HETATM   33  C   UNL     1      40.217 -13.417  -1.918  1.00  0.00     0.155 C 
BRANCH  33  34
HETATM   34  C   UNL     1      38.692 -13.416  -1.784  1.00  0.00     0.139 C 
HETATM   35  O   UNL     1      38.243 -12.047  -1.627  1.00  0.00    -0.384 OA
HETATM   36  C   UNL     1      37.159 -11.813  -2.536  1.00  0.00     0.168 C 
HETATM   37  C   UNL     1      36.659 -13.172  -2.962  1.00  0.00     0.029 C 
HETATM   38  C   UNL     1      37.937 -13.971  -2.983  1.00  0.00     0.035 C 
ENDBRANCH  33  34
ENDBRANCH  30  33
ENDBRANCH  12  29
TORSDOF 7
ENDMDL
MODEL 7
REMARK VINA RESULT:      -8.8      2.472      3.245
REMARK  7 active torsions:
REMARK  status: ('A' for Active; 'I' for Inactive)
REMARK    1  A    between atoms: C_2  and  C_3 
REMARK    2  A    between atoms: C_6  and  C_7 
REMARK    3  A    between atoms: N_8  and  N_9 
REMARK    4  A    between atoms: C_20  and  C_21 
REMARK       I    between atoms: C_21  and  N_22 
REMARK    5  A    between atoms: N_22  and  C_23 
REMARK    6  A    between atoms: C_23  and  C_24 
REMARK    7  A    between atoms: C_30  and  N_31 
ROOT
HETATM    1  N   UNL     1      39.520 -12.410   3.879  1.00  0.00    -0.202 N 
HETATM    2  C   UNL     1      40.261 -13.491   3.439  1.00  0.00     0.183 A 
HETATM    3  C   UNL     1      40.498 -13.302   2.082  1.00  0.00     0.124 A 
HETATM    4  N   UNL     1      41.331 -14.131   1.404  1.00  0.00    -0.242 NA
HETATM    5  C   UNL     1      41.854 -15.134   2.124  1.00  0.00     0.086 A 
HETATM    6  C   UNL     1      41.561 -15.325   3.499  1.00  0.00     0.088 A 
HETATM    7  N   UNL     1      40.766 -14.496   4.194  1.00  0.00    -0.225 NA
HETATM    8  C   UNL     1      42.728 -16.012   1.495  1.00  0.00     0.034 A 
HETATM    9  C   UNL     1      43.309 -17.081   2.180  1.00  0.00     0.002 A 
HETATM   10  C   UNL     1      43.005 -17.281   3.518  1.00  0.00     0.002 A 
HETATM   11  C   UNL     1      42.135 -16.402   4.164  1.00  0.00     0.034 A 
HETATM   12  C   UNL     1      39.806 -12.128   1.667  1.00  0.00     0.104 C 
HETATM   13  C   UNL     1      39.069 -11.706   2.766  1.00  0.00     0.123 C 
ENDROOT
BRANCH   1  14
HETATM   14  N   UNL     1      39.333 -11.935   5.160  1.00  0.00    -0.176 NA
HETATM   15  C   UNL     1      40.342 -11.229   5.564  1.00  0.00     0.150 C 
BRANCH  15  16
HETATM   16  C   UNL     1      40.329 -10.442   6.807  1.00  0.00    -0.017 A 
HETATM   17  C   UNL     1      41.451  -9.761   7.268  1.00  0.00     0.013 A 
HETATM   18  C   UNL     1      41.414  -9.135   8.520  1.00  0.00     0.009 A 
HETATM   19  C   UNL     1      40.266  -9.190   9.335  1.00  0.00    -0.051 A 
HETATM   20  C   UNL     1      39.143  -9.875   8.831  1.00  0.00     0.009 A 
HETATM   21  C   UNL     1      39.169 -10.488   7.579  1.00  0.00     0.013 A 
BRANCH  19  22
HETATM   22  C   UNL     1      40.208  -8.576  10.745  1.00  0.00    -0.024 C 
HETATM   23  C   UNL     1      40.219  -9.621  11.880  1.00  0.00     0.019 C 
HETATM   24  C   UNL     1      38.907  -7.755  10.883  1.00  0.00     0.019 C 
HETATM   25  C   UNL     1      41.420  -7.646  10.968  1.00  0.00     0.019 C 
ENDBRANCH  19  22
ENDBRANCH  15  16
ENDBRANCH   1  14
BRANCH  13  26
HETATM   26  N   UNL     1      38.167 -10.688   2.912  1.00  0.00    -0.286 NA
HETATM   27  H   UNL     1      37.823 -10.554   3.870  1.00  0.00     0.125 HD
HETATM   28  H   UNL     1      37.383 -10.662   2.258  1.00  0.00     0.125 HD
ENDBRANCH  13  26
BRANCH  12  29
HETATM   29  C   UNL     1      39.938 -11.455   0.382  1.00  0.00     0.257 C 
HETATM   30  N   UNL     1      41.015 -11.882  -0.373  1.00  0.00    -0.354 N 
HETATM   31  H   UNL     1      41.524 -12.672   0.016  1.00  0.00     0.162 HD
HETATM   32  O   UNL     1      39.113 -10.654  -0.038  1.00  0.00    -0.267 OA
BRANCH  30  33
HETATM   33  C   UNL     1      41.046 -11.748  -1.818  1.00  0.00     0.155 C 
BRANCH  33  34
HETATM   34  C   UNL     1      40.415 -12.896  -2.610  1.00  0.00     0.139 C 
HETATM   35  O   UNL     1      40.412 -14.083  -1.779  1.00  0.00    -0.384 OA
HETATM   36  C   UNL     1      39.105 -14.669  -1.821  1.00  0.00     0.168 C 
HETATM   37  C   UNL     1      38.408 -14.072  -3.020  1.00  0.00     0.029 C 
HETATM   38  C   UNL     1      38.969 -12.674  -3.030  1.00  0.00     0.035 C 
ENDBRANCH  33  34
ENDBRANCH  30  33
ENDBRANCH  12  29
TORSDOF 7
ENDMDL
MODEL 8
REMARK VINA RESULT:      -8.8      5.373      9.546
REMARK  7 active torsions:
REMARK  status: ('A' for Active; 'I' for Inactive)
REMARK    1  A    between atoms: C_2  and  C_3 
REMARK    2  A    between atoms: C_6  and  C_7 
REMARK    3  A    between atoms: N_8  and  N_9 
REMARK    4  A    between atoms: C_20  and  C_21 
REMARK       I    between atoms: C_21  and  N_22 
REMARK    5  A    between atoms: N_22  and  C_23 
REMARK    6  A    between atoms: C_23  and  C_24 
REMARK    7  A    between atoms: C_30  and  N_31 
ROOT
HETATM    1  N   UNL     1      42.939  -9.733  10.258  1.00  0.00    -0.202 N 
HETATM    2  C   UNL     1      42.184  -9.246   9.207  1.00  0.00     0.183 A 
HETATM    3  C   UNL     1      42.642  -9.866   8.050  1.00  0.00     0.124 A 
HETATM    4  N   UNL     1      41.992  -9.698   6.871  1.00  0.00    -0.242 NA
HETATM    5  C   UNL     1      40.930  -8.881   6.913  1.00  0.00     0.086 A 
HETATM    6  C   UNL     1      40.510  -8.229   8.101  1.00  0.00     0.088 A 
HETATM    7  N   UNL     1      41.121  -8.409   9.283  1.00  0.00    -0.225 NA
HETATM    8  C   UNL     1      40.208  -8.676   5.744  1.00  0.00     0.034 A 
HETATM    9  C   UNL     1      39.093  -7.837   5.710  1.00  0.00     0.002 A 
HETATM   10  C   UNL     1      38.696  -7.182   6.866  1.00  0.00     0.002 A 
HETATM   11  C   UNL     1      39.407  -7.385   8.050  1.00  0.00     0.034 A 
HETATM   12  C   UNL     1      43.763 -10.677   8.392  1.00  0.00     0.104 C 
HETATM   13  C   UNL     1      44.024 -10.427   9.734  1.00  0.00     0.123 C 
ENDROOT
BRANCH   1  14
HETATM   14  N   UNL     1      42.670  -9.724  11.611  1.00  0.00    -0.176 NA
HETATM   15  C   UNL     1      42.952  -8.580  12.151  1.00  0.00     0.150 C 
BRANCH  15  16
HETATM   16  C   UNL     1      42.584  -8.228  13.531  1.00  0.00    -0.017 A 
HETATM   17  C   UNL     1      41.568  -8.882  14.220  1.00  0.00     0.013 A 
HETATM   18  C   UNL     1      41.179  -8.419  15.483  1.00  0.00     0.009 A 
HETATM   19  C   UNL     1      41.786  -7.291  16.071  1.00  0.00    -0.051 A 
HETATM   20  C   UNL     1      42.821  -6.662  15.352  1.00  0.00     0.009 A 
HETATM   21  C   UNL     1      43.223  -7.127  14.100  1.00  0.00     0.013 A 
BRANCH  19  22
HETATM   22  C   UNL     1      41.341  -6.709  17.424  1.00  0.00    -0.024 C 
HETATM   23  C   UNL     1      42.032  -7.362  18.640  1.00  0.00     0.019 C 
HETATM   24  C   UNL     1      39.820  -6.919  17.587  1.00  0.00     0.019 C 
HETATM   25  C   UNL     1      41.653  -5.197  17.478  1.00  0.00     0.019 C 
ENDBRANCH  19  22
ENDBRANCH  15  16
ENDBRANCH   1  14
BRANCH  13  26
HETATM   26  N   UNL     1      45.026 -10.866  10.556  1.00  0.00    -0.286 NA
HETATM   27  H   UNL     1      45.236 -10.243  11.345  1.00  0.00     0.125 HD
HETATM   28  H   UNL     1      45.896 -11.165  10.112  1.00  0.00     0.125 HD
ENDBRANCH  13  26
BRANCH  12  29
HETATM   29  C   UNL     1      44.423 -11.648   7.530  1.00  0.00     0.257 C 
HETATM   30  N   UNL     1      43.657 -12.761   7.239  1.00  0.00    -0.354 N 
HETATM   31  H   UNL     1      42.700 -12.722   7.582  1.00  0.00     0.162 HD
HETATM   32  O   UNL     1      45.521 -11.451   7.025  1.00  0.00    -0.267 OA
BRANCH  30  33
HETATM   33  C   UNL     1      43.880 -13.564   6.050  1.00  0.00     0.155 C 
BRANCH  33  34
HETATM   34  C   UNL     1      43.393 -15.014   6.122  1.00  0.00     0.139 C 
HETATM   35  O   UNL     1      42.896 -15.398   4.816  1.00  0.00    -0.384 OA
HETATM   36  C   UNL     1      43.469 -16.664   4.462  1.00  0.00     0.168 C 
HETATM   37  C   UNL     1      43.998 -17.265   5.741  1.00  0.00     0.029 C 
HETATM   38  C   UNL     1      44.460 -16.037   6.484  1.00  0.00     0.035 C 
ENDBRANCH  33  34
ENDBRANCH  30  33
ENDBRANCH  12  29
TORSDOF 7
ENDMDL
MODEL 9
REMARK VINA RESULT:      -8.8     16.540     19.356
REMARK  7 active torsions:
REMARK  status: ('A' for Active; 'I' for Inactive)
REMARK    1  A    between atoms: C_2  and  C_3 
REMARK    2  A    between atoms: C_6  and  C_7 
REMARK    3  A    between atoms: N_8  and  N_9 
REMARK    4  A    between atoms: C_20  and  C_21 
REMARK       I    between atoms: C_21  and  N_22 
REMARK    5  A    between atoms: N_22  and  C_23 
REMARK    6  A    between atoms: C_23  and  C_24 
REMARK    7  A    between atoms: C_30  and  N_31 
ROOT
HETATM    1  N   UNL     1      49.825 -30.371   2.661  1.00  0.00    -0.202 N 
HETATM    2  C   UNL     1      50.256 -30.779   1.412  1.00  0.00     0.183 A 
HETATM    3  C   UNL     1      49.454 -30.142   0.472  1.00  0.00     0.124 A 
HETATM    4  N   UNL     1      49.735 -30.232  -0.852  1.00  0.00    -0.242 NA
HETATM    5  C   UNL     1      50.794 -30.993  -1.163  1.00  0.00     0.086 A 
HETATM    6  C   UNL     1      51.570 -31.665  -0.184  1.00  0.00     0.088 A 
HETATM    7  N   UNL     1      51.326 -31.561   1.133  1.00  0.00    -0.225 NA
HETATM    8  C   UNL     1      51.148 -31.117  -2.501  1.00  0.00     0.034 A 
HETATM    9  C   UNL     1      52.236 -31.894  -2.900  1.00  0.00     0.002 A 
HETATM   10  C   UNL     1      52.981 -32.570  -1.944  1.00  0.00     0.002 A 
HETATM   11  C   UNL     1      52.641 -32.448  -0.597  1.00  0.00     0.034 A 
HETATM   12  C   UNL     1      48.452 -29.404   1.167  1.00  0.00     0.104 C 
HETATM   13  C   UNL     1      48.607 -29.715   2.512  1.00  0.00     0.123 C 
ENDROOT
BRANCH   1  14
HETATM   14  N   UNL     1      50.479 -30.415   3.874  1.00  0.00    -0.176 NA
HETATM   15  C   UNL     1      50.299 -31.548   4.479  1.00  0.00     0.150 C 
BRANCH  15  16
HETATM   16  C   UNL     1      51.035 -31.941   5.690  1.00  0.00    -0.017 A 
HETATM   17  C   UNL     1      50.522 -32.850   6.610  1.00  0.00     0.013 A 
HETATM   18  C   UNL     1      51.212 -33.088   7.805  1.00  0.00     0.009 A 
HETATM   19  C   UNL     1      52.413 -32.415   8.106  1.00  0.00    -0.051 A 
HETATM   20  C   UNL     1      52.911 -31.513   7.146  1.00  0.00     0.009 A 
HETATM   21  C   UNL     1      52.237 -31.282   5.948  1.00  0.00     0.013 A 
BRANCH  19  22
HETATM   22  C   UNL     1      53.165 -32.596   9.437  1.00  0.00    -0.024 C 
HETATM   23  C   UNL     1      54.208 -31.493   9.717  1.00  0.00     0.019 C 
HETATM   24  C   UNL     1      53.914 -33.946   9.413  1.00  0.00     0.019 C 
HETATM   25  C   UNL     1      52.166 -32.591  10.614  1.00  0.00     0.019 C 
ENDBRANCH  19  22
ENDBRANCH  15  16
ENDBRANCH   1  14
BRANCH  13  26
HETATM   26  N   UNL     1      47.873 -29.361   3.611  1.00  0.00    -0.286 NA
HETATM   27  H   UNL     1      46.860 -29.488   3.508  1.00  0.00     0.125 HD
HETATM   28  H   UNL     1      48.066 -28.448   4.026  1.00  0.00     0.125 HD
ENDBRANCH  13  26
BRANCH  12  29
HETATM   29  C   UNL     1      47.530 -28.438   0.585  1.00  0.00     0.257 C 
HETATM   30  N   UNL     1      47.713 -28.223  -0.769  1.00  0.00    -0.354 N 
HETATM   31  H   UNL     1      48.402 -28.830  -1.208  1.00  0.00     0.162 HD
HETATM   32  O   UNL     1      46.608 -27.935   1.215  1.00  0.00    -0.267 OA
BRANCH  30  33
HETATM   33  C   UNL     1      46.647 -27.737  -1.625  1.00  0.00     0.155 C 
BRANCH  33  34
HETATM   34  C   UNL     1      46.111 -28.734  -2.657  1.00  0.00     0.139 C 
HETATM   35  O   UNL     1      45.371 -29.767  -1.960  1.00  0.00    -0.384 OA
HETATM   36  C   UNL     1      44.109 -29.948  -2.614  1.00  0.00     0.168 C 
HETATM   37  C   UNL     1      44.241 -29.314  -3.978  1.00  0.00     0.029 C 
HETATM   38  C   UNL     1      45.151 -28.150  -3.683  1.00  0.00     0.035 C 
ENDBRANCH  33  34
ENDBRANCH  30  33
ENDBRANCH  12  29
TORSDOF 7
ENDMDL
MODEL 10
REMARK VINA RESULT:      -8.1      3.360      9.228
REMARK  7 active torsions:
REMARK  status: ('A' for Active; 'I' for Inactive)
REMARK    1  A    between atoms: C_2  and  C_3 
REMARK    2  A    between atoms: C_6  and  C_7 
REMARK    3  A    between atoms: N_8  and  N_9 
REMARK    4  A    between atoms: C_20  and  C_21 
REMARK       I    between atoms: C_21  and  N_22 
REMARK    5  A    between atoms: N_22  and  C_23 
REMARK    6  A    between atoms: C_23  and  C_24 
REMARK    7  A    between atoms: C_30  and  N_31 
ROOT
HETATM    1  N   UNL     1      39.656 -12.864   4.435  1.00  0.00    -0.202 N 
HETATM    2  C   UNL     1      39.270 -11.794   3.650  1.00  0.00     0.183 A 
HETATM    3  C   UNL     1      39.391 -10.648   4.428  1.00  0.00     0.124 A 
HETATM    4  N   UNL     1      39.223  -9.418   3.880  1.00  0.00    -0.242 NA
HETATM    5  C   UNL     1      38.904  -9.410   2.578  1.00  0.00     0.086 A 
HETATM    6  C   UNL     1      38.747 -10.598   1.818  1.00  0.00     0.088 A 
HETATM    7  N   UNL     1      38.941 -11.821   2.336  1.00  0.00    -0.225 NA
HETATM    8  C   UNL     1      38.733  -8.183   1.948  1.00  0.00     0.034 A 
HETATM    9  C   UNL     1      38.397  -8.095   0.596  1.00  0.00     0.002 A 
HETATM   10  C   UNL     1      38.221  -9.258  -0.141  1.00  0.00     0.002 A 
HETATM   11  C   UNL     1      38.398 -10.496   0.477  1.00  0.00     0.034 A 
HETATM   12  C   UNL     1      39.769 -11.040   5.744  1.00  0.00     0.104 C 
HETATM   13  C   UNL     1      39.748 -12.430   5.754  1.00  0.00     0.123 C 
ENDROOT
BRANCH   1  14
HETATM   14  N   UNL     1      40.055 -14.130   4.061  1.00  0.00    -0.176 NA
HETATM   15  C   UNL     1      41.303 -14.158   3.710  1.00  0.00     0.150 C 
BRANCH  15  16
HETATM   16  C   UNL     1      42.040 -15.405   3.454  1.00  0.00    -0.017 A 
HETATM   17  C   UNL     1      42.120 -15.975   2.188  1.00  0.00     0.013 A 
HETATM   18  C   UNL     1      42.728 -17.227   2.030  1.00  0.00     0.009 A 
HETATM   19  C   UNL     1      43.252 -17.932   3.132  1.00  0.00    -0.051 A 
HETATM   20  C   UNL     1      43.167 -17.319   4.397  1.00  0.00     0.009 A 
HETATM   21  C   UNL     1      42.576 -16.067   4.558  1.00  0.00     0.013 A 
BRANCH  19  22
HETATM   22  C   UNL     1      43.865 -19.339   3.012  1.00  0.00    -0.024 C 
HETATM   23  C   UNL     1      45.264 -19.354   2.360  1.00  0.00     0.019 C 
HETATM   24  C   UNL     1      42.940 -20.220   2.145  1.00  0.00     0.019 C 
HETATM   25  C   UNL     1      44.007 -19.976   4.412  1.00  0.00     0.019 C 
ENDBRANCH  19  22
ENDBRANCH  15  16
ENDBRANCH   1  14
BRANCH  13  26
HETATM   26  N   UNL     1      39.944 -13.329   6.766  1.00  0.00    -0.286 NA
HETATM   27  H   UNL     1      40.726 -13.977   6.617  1.00  0.00     0.125 HD
HETATM   28  H   UNL     1      39.127 -13.845   7.096  1.00  0.00     0.125 HD
ENDBRANCH  13  26
BRANCH  12  29
HETATM   29  C   UNL     1      40.194 -10.157   6.822  1.00  0.00     0.257 C 
HETATM   30  N   UNL     1      41.481 -10.390   7.270  1.00  0.00    -0.354 N 
HETATM   31  H   UNL     1      42.002 -11.080   6.734  1.00  0.00     0.162 HD
HETATM   32  O   UNL     1      39.512  -9.225   7.227  1.00  0.00    -0.267 OA
BRANCH  30  33
HETATM   33  C   UNL     1      42.267  -9.362   7.928  1.00  0.00     0.155 C 
BRANCH  33  34
HETATM   34  C   UNL     1      43.618  -9.813   8.494  1.00  0.00     0.139 C 
HETATM   35  O   UNL     1      44.099 -10.928   7.704  1.00  0.00    -0.384 OA
HETATM   36  C   UNL     1      45.466 -10.681   7.349  1.00  0.00     0.168 C 
HETATM   37  C   UNL     1      45.960  -9.599   8.277  1.00  0.00     0.029 C 
HETATM   38  C   UNL     1      44.719  -8.763   8.453  1.00  0.00     0.035 C 
ENDBRANCH  33  34
ENDBRANCH  30  33
ENDBRANCH  12  29
TORSDOF 7
ENDMDL
