MODEL 1
REMARK VINA RESULT:      -8.8      0.000      0.000
REMARK  3 active torsions:
REMARK  status: ('A' for Active; 'I' for Inactive)
REMARK    1  A    between atoms: C_8  and  C_9 
REMARK    2  A    between atoms: C_14  and  C_15 
REMARK    3  A    between atoms: C_16  and  O_17 
ROOT
HETATM    1  C   UNL     1      39.824 -13.295   0.387  1.00  0.00     0.143 A 
HETATM    2  N   UNL     1      40.860 -12.747   0.980  1.00  0.00    -0.223 NA
HETATM    3  C   UNL     1      41.172 -13.542   2.076  1.00  0.00     0.149 A 
HETATM    4  C   UNL     1      40.305 -14.625   2.118  1.00  0.00     0.046 A 
HETATM    5  C   UNL     1      40.118 -15.802   3.009  1.00  0.00     0.070 C 
HETATM    6  C   UNL     1      40.949 -15.864   4.302  1.00  0.00     0.045 C 
HETATM    7  C   UNL     1      41.280 -14.493   4.905  1.00  0.00     0.132 C 
HETATM    8  N   UNL     1      42.325 -13.759   4.222  1.00  0.00    -0.355 N 
HETATM    9  C   UNL     1      42.285 -13.204   2.969  1.00  0.00     0.272 C 
HETATM   10  O   UNL     1      43.195 -12.442   2.644  1.00  0.00    -0.266 OA
HETATM   11  N   UNL     1      39.474 -14.446   1.034  1.00  0.00    -0.341 N 
HETATM   12  H   UNL     1      38.719 -15.056   0.762  1.00  0.00     0.167 HD
HETATM   13  H   UNL     1      43.127 -13.451   4.757  1.00  0.00     0.162 HD
ENDROOT
BRANCH   1  14
HETATM   14  C   UNL     1      39.142 -12.727  -0.807  1.00  0.00     0.059 A 
HETATM   15  C   UNL     1      39.410 -12.976  -2.140  1.00  0.00     0.040 A 
HETATM   16  C   UNL     1      40.389 -13.830  -2.850  1.00  0.00     0.071 C 
HETATM   17  N   UNL     1      38.502 -12.219  -2.832  1.00  0.00    -0.281 N 
HETATM   18  H   UNL     1      38.388 -12.143  -3.838  1.00  0.00     0.189 HD
HETATM   19  N   UNL     1      37.676 -11.507  -2.057  1.00  0.00    -0.179 NA
HETATM   20  C   UNL     1      38.057 -11.811  -0.809  1.00  0.00     0.067 A 
HETATM   21  C   UNL     1      37.359 -11.205   0.353  1.00  0.00     0.073 C 
ENDBRANCH   1  14
BRANCH   6  22
HETATM   22  C   UNL     1      42.167 -16.789   4.243  1.00  0.00    -0.019 A 
HETATM   23  C   UNL     1      42.809 -17.205   5.431  1.00  0.00     0.074 A 
HETATM   24  C   UNL     1      43.940 -18.028   5.364  1.00  0.00     0.037 A 
HETATM   25  C   UNL     1      44.435 -18.451   4.130  1.00  0.00     0.003 A 
HETATM   26  C   UNL     1      43.808 -18.051   2.956  1.00  0.00     0.001 A 
HETATM   27  C   UNL     1      42.683 -17.226   3.011  1.00  0.00     0.010 A 
BRANCH  23  28
HETATM   28  O   UNL     1      42.280 -16.735   6.607  1.00  0.00    -0.355 OA
HETATM   29  C   UNL     1      43.186 -16.136   7.527  1.00  0.00     0.210 C 
ENDBRANCH  23  28
ENDBRANCH   6  22
TORSDOF 3
ENDMDL
MODEL 2
REMARK VINA RESULT:      -8.4      4.176      7.465
REMARK  3 active torsions:
REMARK  status: ('A' for Active; 'I' for Inactive)
REMARK    1  A    between atoms: C_8  and  C_9 
REMARK    2  A    between atoms: C_14  and  C_15 
REMARK    3  A    between atoms: C_16  and  O_17 
ROOT
HETATM    1  C   UNL     1      43.938 -11.815   7.159  1.00  0.00     0.143 A 
HETATM    2  N   UNL     1      43.783 -12.888   7.901  1.00  0.00    -0.223 NA
HETATM    3  C   UNL     1      43.157 -13.845   7.112  1.00  0.00     0.149 A 
HETATM    4  C   UNL     1      42.961 -13.331   5.838  1.00  0.00     0.046 A 
HETATM    5  C   UNL     1      42.366 -13.833   4.569  1.00  0.00     0.070 C 
HETATM    6  C   UNL     1      41.649 -15.193   4.601  1.00  0.00     0.045 C 
HETATM    7  C   UNL     1      40.980 -15.523   5.942  1.00  0.00     0.132 C 
HETATM    8  N   UNL     1      41.887 -15.931   6.995  1.00  0.00    -0.355 N 
HETATM    9  C   UNL     1      42.825 -15.171   7.643  1.00  0.00     0.272 C 
HETATM   10  O   UNL     1      43.356 -15.640   8.649  1.00  0.00    -0.266 OA
HETATM   11  N   UNL     1      43.473 -12.053   5.897  1.00  0.00    -0.341 N 
HETATM   12  H   UNL     1      43.494 -11.391   5.138  1.00  0.00     0.167 HD
HETATM   13  H   UNL     1      41.727 -16.821   7.450  1.00  0.00     0.162 HD
ENDROOT
BRANCH   1  14
HETATM   14  C   UNL     1      44.527 -10.538   7.642  1.00  0.00     0.059 A 
HETATM   15  C   UNL     1      43.882  -9.482   8.258  1.00  0.00     0.040 A 
HETATM   16  C   UNL     1      42.478  -9.222   8.650  1.00  0.00     0.071 C 
HETATM   17  N   UNL     1      44.866  -8.562   8.509  1.00  0.00    -0.281 N 
HETATM   18  H   UNL     1      44.775  -7.655   8.955  1.00  0.00     0.189 HD
HETATM   19  N   UNL     1      46.085  -8.939   8.108  1.00  0.00    -0.179 NA
HETATM   20  C   UNL     1      45.892 -10.153   7.574  1.00  0.00     0.067 A 
HETATM   21  C   UNL     1      47.037 -10.911   7.011  1.00  0.00     0.073 C 
ENDBRANCH   1  14
BRANCH   6  22
HETATM   22  C   UNL     1      42.461 -16.365   4.047  1.00  0.00    -0.019 A 
HETATM   23  C   UNL     1      42.139 -16.931   2.793  1.00  0.00     0.074 A 
HETATM   24  C   UNL     1      42.871 -18.023   2.308  1.00  0.00     0.037 A 
HETATM   25  C   UNL     1      43.926 -18.553   3.051  1.00  0.00     0.003 A 
HETATM   26  C   UNL     1      44.254 -18.000   4.285  1.00  0.00     0.001 A 
HETATM   27  C   UNL     1      43.527 -16.916   4.779  1.00  0.00     0.010 A 
BRANCH  23  28
HETATM   28  O   UNL     1      41.078 -16.372   2.126  1.00  0.00    -0.355 OA
HETATM   29  C   UNL     1      41.380 -15.379   1.152  1.00  0.00     0.210 C 
ENDBRANCH  23  28
ENDBRANCH   6  22
TORSDOF 3
ENDMDL
MODEL 3
REMARK VINA RESULT:      -8.1      3.615      4.605
REMARK  3 active torsions:
REMARK  status: ('A' for Active; 'I' for Inactive)
REMARK    1  A    between atoms: C_8  and  C_9 
REMARK    2  A    between atoms: C_14  and  C_15 
REMARK    3  A    between atoms: C_16  and  O_17 
ROOT
HETATM    1  C   UNL     1      40.103 -12.080   5.400  1.00  0.00     0.143 A 
HETATM    2  N   UNL     1      41.397 -12.012   5.616  1.00  0.00    -0.223 NA
HETATM    3  C   UNL     1      41.864 -13.315   5.723  1.00  0.00     0.149 A 
HETATM    4  C   UNL     1      40.810 -14.197   5.530  1.00  0.00     0.046 A 
HETATM    5  C   UNL     1      40.651 -15.677   5.516  1.00  0.00     0.070 C 
HETATM    6  C   UNL     1      41.859 -16.532   5.934  1.00  0.00     0.045 C 
HETATM    7  C   UNL     1      42.772 -15.871   6.974  1.00  0.00     0.132 C 
HETATM    8  N   UNL     1      43.637 -14.831   6.458  1.00  0.00    -0.355 N 
HETATM    9  C   UNL     1      43.280 -13.598   5.978  1.00  0.00     0.272 C 
HETATM   10  O   UNL     1      44.173 -12.775   5.777  1.00  0.00    -0.266 OA
HETATM   11  N   UNL     1      39.716 -13.387   5.318  1.00  0.00    -0.341 N 
HETATM   12  H   UNL     1      38.774 -13.702   5.142  1.00  0.00     0.167 HD
HETATM   13  H   UNL     1      44.634 -14.916   6.607  1.00  0.00     0.162 HD
ENDROOT
BRANCH   1  14
HETATM   14  C   UNL     1      39.209 -10.898   5.273  1.00  0.00     0.059 A 
HETATM   15  C   UNL     1      38.577 -10.427   4.137  1.00  0.00     0.040 A 
HETATM   16  C   UNL     1      38.538 -10.867   2.724  1.00  0.00     0.071 C 
HETATM   17  N   UNL     1      37.871  -9.329   4.553  1.00  0.00    -0.281 N 
HETATM   18  H   UNL     1      37.279  -8.719   3.999  1.00  0.00     0.189 HD
HETATM   19  N   UNL     1      37.995  -9.058   5.858  1.00  0.00    -0.179 NA
HETATM   20  C   UNL     1      38.814 -10.016   6.313  1.00  0.00     0.067 A 
HETATM   21  C   UNL     1      39.195 -10.053   7.747  1.00  0.00     0.073 C 
ENDBRANCH   1  14
BRANCH   6  22
HETATM   22  C   UNL     1      42.642 -17.152   4.775  1.00  0.00    -0.019 A 
HETATM   23  C   UNL     1      43.465 -18.281   4.988  1.00  0.00     0.074 A 
HETATM   24  C   UNL     1      44.200 -18.823   3.926  1.00  0.00     0.037 A 
HETATM   25  C   UNL     1      44.121 -18.261   2.652  1.00  0.00     0.003 A 
HETATM   26  C   UNL     1      43.310 -17.153   2.430  1.00  0.00     0.001 A 
HETATM   27  C   UNL     1      42.578 -16.603   3.483  1.00  0.00     0.010 A 
BRANCH  23  28
HETATM   28  O   UNL     1      43.511 -18.769   6.271  1.00  0.00    -0.355 OA
HETATM   29  C   UNL     1      43.470 -20.183   6.423  1.00  0.00     0.210 C 
ENDBRANCH  23  28
ENDBRANCH   6  22
TORSDOF 3
ENDMDL
MODEL 4
REMARK VINA RESULT:      -7.8      4.532      6.254
REMARK  3 active torsions:
REMARK  status: ('A' for Active; 'I' for Inactive)
REMARK    1  A    between atoms: C_8  and  C_9 
REMARK    2  A    between atoms: C_14  and  C_15 
REMARK    3  A    between atoms: C_16  and  O_17 
ROOT
HETATM    1  C   UNL     1      42.427 -12.415   6.074  1.00  0.00     0.143 A 
HETATM    2  N   UNL     1      41.397 -13.171   6.377  1.00  0.00    -0.223 NA
HETATM    3  C   UNL     1      41.548 -14.366   5.684  1.00  0.00     0.149 A 
HETATM    4  C   UNL     1      42.734 -14.331   4.965  1.00  0.00     0.046 A 
HETATM    5  C   UNL     1      43.452 -15.264   4.054  1.00  0.00     0.070 C 
HETATM    6  C   UNL     1      42.731 -16.557   3.637  1.00  0.00     0.045 C 
HETATM    7  C   UNL     1      41.205 -16.431   3.553  1.00  0.00     0.132 C 
HETATM    8  N   UNL     1      40.521 -16.414   4.830  1.00  0.00    -0.355 N 
HETATM    9  C   UNL     1      40.555 -15.440   5.793  1.00  0.00     0.272 C 
HETATM   10  O   UNL     1      39.746 -15.511   6.717  1.00  0.00    -0.266 OA
HETATM   11  N   UNL     1      43.270 -13.092   5.239  1.00  0.00    -0.341 N 
HETATM   12  H   UNL     1      44.138 -12.732   4.877  1.00  0.00     0.167 HD
HETATM   13  H   UNL     1      39.793 -17.098   4.996  1.00  0.00     0.162 HD
ENDROOT
BRANCH   1  14
HETATM   14  C   UNL     1      42.624 -11.026   6.570  1.00  0.00     0.059 A 
HETATM   15  C   UNL     1      43.703 -10.517   7.268  1.00  0.00     0.040 A 
HETATM   16  C   UNL     1      44.977 -11.092   7.756  1.00  0.00     0.071 C 
HETATM   17  N   UNL     1      43.400  -9.197   7.477  1.00  0.00    -0.281 N 
HETATM   18  H   UNL     1      43.956  -8.496   7.955  1.00  0.00     0.189 HD
HETATM   19  N   UNL     1      42.221  -8.818   6.971  1.00  0.00    -0.179 NA
HETATM   20  C   UNL     1      41.734  -9.932   6.409  1.00  0.00     0.067 A 
HETATM   21  C   UNL     1      40.414  -9.910   5.729  1.00  0.00     0.073 C 
ENDBRANCH   1  14
BRANCH   6  22
HETATM   22  C   UNL     1      43.176 -17.815   4.387  1.00  0.00    -0.019 A 
HETATM   23  C   UNL     1      43.519 -18.988   3.678  1.00  0.00     0.074 A 
HETATM   24  C   UNL     1      43.897 -20.142   4.376  1.00  0.00     0.037 A 
HETATM   25  C   UNL     1      43.947 -20.141   5.771  1.00  0.00     0.003 A 
HETATM   26  C   UNL     1      43.616 -18.990   6.477  1.00  0.00     0.001 A 
HETATM   27  C   UNL     1      43.233 -17.836   5.791  1.00  0.00     0.010 A 
BRANCH  23  28
HETATM   28  O   UNL     1      43.428 -18.924   2.310  1.00  0.00    -0.355 OA
HETATM   29  C   UNL     1      43.389 -20.161   1.608  1.00  0.00     0.210 C 
ENDBRANCH  23  28
ENDBRANCH   6  22
TORSDOF 3
ENDMDL
MODEL 5
REMARK VINA RESULT:      -7.8      4.047      6.106
REMARK  3 active torsions:
REMARK  status: ('A' for Active; 'I' for Inactive)
REMARK    1  A    between atoms: C_8  and  C_9 
REMARK    2  A    between atoms: C_14  and  C_15 
REMARK    3  A    between atoms: C_16  and  O_17 
ROOT
HETATM    1  C   UNL     1      42.492 -12.500   5.852  1.00  0.00     0.143 A 
HETATM    2  N   UNL     1      41.576 -13.370   6.213  1.00  0.00    -0.223 NA
HETATM    3  C   UNL     1      41.586 -14.391   5.272  1.00  0.00     0.149 A 
HETATM    4  C   UNL     1      42.571 -14.134   4.328  1.00  0.00     0.046 A 
HETATM    5  C   UNL     1      43.076 -14.818   3.106  1.00  0.00     0.070 C 
HETATM    6  C   UNL     1      42.305 -16.049   2.601  1.00  0.00     0.045 C 
HETATM    7  C   UNL     1      40.798 -16.012   2.890  1.00  0.00     0.132 C 
HETATM    8  N   UNL     1      40.431 -16.295   4.262  1.00  0.00    -0.355 N 
HETATM    9  C   UNL     1      40.668 -15.530   5.374  1.00  0.00     0.272 C 
HETATM   10  O   UNL     1      40.098 -15.837   6.420  1.00  0.00    -0.266 OA
HETATM   11  N   UNL     1      43.131 -12.940   4.727  1.00  0.00    -0.341 N 
HETATM   12  H   UNL     1      43.883 -12.457   4.263  1.00  0.00     0.167 HD
HETATM   13  H   UNL     1      39.776 -17.046   4.440  1.00  0.00     0.162 HD
ENDROOT
BRANCH   1  14
HETATM   14  C   UNL     1      42.771 -11.227   6.568  1.00  0.00     0.059 A 
HETATM   15  C   UNL     1      41.886 -10.207   6.868  1.00  0.00     0.040 A 
HETATM   16  C   UNL     1      40.442  -9.992   6.622  1.00  0.00     0.071 C 
HETATM   17  N   UNL     1      42.634  -9.275   7.538  1.00  0.00    -0.281 N 
HETATM   18  H   UNL     1      42.328  -8.386   7.920  1.00  0.00     0.189 HD
HETATM   19  N   UNL     1      43.920  -9.610   7.693  1.00  0.00    -0.179 NA
HETATM   20  C   UNL     1      44.018 -10.809   7.103  1.00  0.00     0.067 A 
HETATM   21  C   UNL     1      45.320 -11.522   7.072  1.00  0.00     0.073 C 
ENDBRANCH   1  14
BRANCH   6  22
HETATM   22  C   UNL     1      42.937 -17.397   2.954  1.00  0.00    -0.019 A 
HETATM   23  C   UNL     1      43.748 -17.529   4.104  1.00  0.00     0.074 A 
HETATM   24  C   UNL     1      44.345 -18.761   4.401  1.00  0.00     0.037 A 
HETATM   25  C   UNL     1      44.140 -19.865   3.574  1.00  0.00     0.003 A 
HETATM   26  C   UNL     1      43.341 -19.746   2.442  1.00  0.00     0.001 A 
HETATM   27  C   UNL     1      42.745 -18.522   2.134  1.00  0.00     0.010 A 
BRANCH  23  28
HETATM   28  O   UNL     1      43.923 -16.398   4.861  1.00  0.00    -0.355 OA
HETATM   29  C   UNL     1      44.456 -16.574   6.169  1.00  0.00     0.210 C 
ENDBRANCH  23  28
ENDBRANCH   6  22
TORSDOF 3
ENDMDL
MODEL 6
REMARK VINA RESULT:      -7.8      2.869      7.650
REMARK  3 active torsions:
REMARK  status: ('A' for Active; 'I' for Inactive)
REMARK    1  A    between atoms: C_8  and  C_9 
REMARK    2  A    between atoms: C_14  and  C_15 
REMARK    3  A    between atoms: C_16  and  O_17 
ROOT
HETATM    1  C   UNL     1      43.152 -17.835   3.852  1.00  0.00     0.143 A 
HETATM    2  N   UNL     1      42.294 -17.138   4.562  1.00  0.00    -0.223 NA
HETATM    3  C   UNL     1      42.212 -15.877   3.985  1.00  0.00     0.149 A 
HETATM    4  C   UNL     1      43.032 -15.832   2.866  1.00  0.00     0.046 A 
HETATM    5  C   UNL     1      43.379 -14.807   1.844  1.00  0.00     0.070 C 
HETATM    6  C   UNL     1      42.859 -13.375   2.057  1.00  0.00     0.045 C 
HETATM    7  C   UNL     1      42.715 -12.968   3.529  1.00  0.00     0.132 C 
HETATM    8  N   UNL     1      41.567 -13.529   4.211  1.00  0.00    -0.355 N 
HETATM    9  C   UNL     1      41.341 -14.839   4.545  1.00  0.00     0.272 C 
HETATM   10  O   UNL     1      40.405 -15.090   5.303  1.00  0.00    -0.266 OA
HETATM   11  N   UNL     1      43.603 -17.084   2.803  1.00  0.00    -0.341 N 
HETATM   12  H   UNL     1      44.258 -17.399   2.105  1.00  0.00     0.167 HD
HETATM   13  H   UNL     1      40.916 -12.897   4.659  1.00  0.00     0.162 HD
ENDROOT
BRANCH   1  14
HETATM   14  C   UNL     1      43.565 -19.229   4.164  1.00  0.00     0.059 A 
HETATM   15  C   UNL     1      43.824 -20.259   3.278  1.00  0.00     0.040 A 
HETATM   16  C   UNL     1      43.799 -20.377   1.803  1.00  0.00     0.071 C 
HETATM   17  N   UNL     1      44.172 -21.325   4.066  1.00  0.00    -0.281 N 
HETATM   18  H   UNL     1      44.433 -22.260   3.772  1.00  0.00     0.189 HD
HETATM   19  N   UNL     1      44.159 -21.066   5.378  1.00  0.00    -0.179 NA
HETATM   20  C   UNL     1      43.788 -19.780   5.453  1.00  0.00     0.067 A 
HETATM   21  C   UNL     1      43.661 -19.116   6.775  1.00  0.00     0.073 C 
ENDBRANCH   1  14
BRANCH   6  22
HETATM   22  C   UNL     1      41.632 -13.003   1.223  1.00  0.00    -0.019 A 
HETATM   23  C   UNL     1      41.271 -11.649   1.043  1.00  0.00     0.074 A 
HETATM   24  C   UNL     1      40.129 -11.321   0.301  1.00  0.00     0.037 A 
HETATM   25  C   UNL     1      39.346 -12.323  -0.272  1.00  0.00     0.003 A 
HETATM   26  C   UNL     1      39.695 -13.659  -0.105  1.00  0.00     0.001 A 
HETATM   27  C   UNL     1      40.828 -13.996   0.637  1.00  0.00     0.010 A 
BRANCH  23  28
HETATM   28  O   UNL     1      42.075 -10.717   1.651  1.00  0.00    -0.355 OA
HETATM   29  C   UNL     1      41.433  -9.759   2.485  1.00  0.00     0.210 C 
ENDBRANCH  23  28
ENDBRANCH   6  22
TORSDOF 3
ENDMDL
MODEL 7
REMARK VINA RESULT:      -7.7      4.369      7.020
REMARK  3 active torsions:
REMARK  status: ('A' for Active; 'I' for Inactive)
REMARK    1  A    between atoms: C_8  and  C_9 
REMARK    2  A    between atoms: C_14  and  C_15 
REMARK    3  A    between atoms: C_16  and  O_17 
ROOT
HETATM    1  C   UNL     1      42.941 -15.124   4.101  1.00  0.00     0.143 A 
HETATM    2  N   UNL     1      42.994 -13.990   3.441  1.00  0.00    -0.223 NA
HETATM    3  C   UNL     1      43.012 -12.968   4.382  1.00  0.00     0.149 A 
HETATM    4  C   UNL     1      43.001 -13.519   5.656  1.00  0.00     0.046 A 
HETATM    5  C   UNL     1      43.011 -12.984   7.045  1.00  0.00     0.070 C 
HETATM    6  C   UNL     1      42.869 -11.464   7.230  1.00  0.00     0.045 C 
HETATM    7  C   UNL     1      42.026 -10.772   6.151  1.00  0.00     0.132 C 
HETATM    8  N   UNL     1      42.690 -10.595   4.876  1.00  0.00    -0.355 N 
HETATM    9  C   UNL     1      43.061 -11.560   3.976  1.00  0.00     0.272 C 
HETATM   10  O   UNL     1      43.426 -11.199   2.858  1.00  0.00    -0.266 OA
HETATM   11  N   UNL     1      42.966 -14.880   5.445  1.00  0.00    -0.341 N 
HETATM   12  H   UNL     1      42.950 -15.587   6.162  1.00  0.00     0.167 HD
HETATM   13  H   UNL     1      42.751  -9.661   4.490  1.00  0.00     0.162 HD
ENDROOT
BRANCH   1  14
HETATM   14  C   UNL     1      42.857 -16.465   3.463  1.00  0.00     0.059 A 
HETATM   15  C   UNL     1      42.026 -16.867   2.433  1.00  0.00     0.040 A 
HETATM   16  C   UNL     1      40.985 -16.190   1.627  1.00  0.00     0.071 C 
HETATM   17  N   UNL     1      42.345 -18.181   2.212  1.00  0.00    -0.281 N 
HETATM   18  H   UNL     1      41.945 -18.815   1.528  1.00  0.00     0.189 HD
HETATM   19  N   UNL     1      43.310 -18.654   3.010  1.00  0.00    -0.179 NA
HETATM   20  C   UNL     1      43.634 -17.609   3.783  1.00  0.00     0.067 A 
HETATM   21  C   UNL     1      44.693 -17.744   4.815  1.00  0.00     0.073 C 
ENDBRANCH   1  14
BRANCH   6  22
HETATM   22  C   UNL     1      44.176 -10.723   7.518  1.00  0.00    -0.019 A 
HETATM   23  C   UNL     1      44.167  -9.497   8.220  1.00  0.00     0.074 A 
HETATM   24  C   UNL     1      45.367  -8.814   8.453  1.00  0.00     0.037 A 
HETATM   25  C   UNL     1      46.579  -9.339   8.003  1.00  0.00     0.003 A 
HETATM   26  C   UNL     1      46.600 -10.547   7.315  1.00  0.00     0.001 A 
HETATM   27  C   UNL     1      45.409 -11.234   7.074  1.00  0.00     0.010 A 
BRANCH  23  28
HETATM   28  O   UNL     1      42.938  -9.030   8.615  1.00  0.00    -0.355 OA
HETATM   29  C   UNL     1      42.636  -9.107  10.004  1.00  0.00     0.210 C 
ENDBRANCH  23  28
ENDBRANCH   6  22
TORSDOF 3
ENDMDL
MODEL 8
REMARK VINA RESULT:      -7.6      4.180      7.156
REMARK  3 active torsions:
REMARK  status: ('A' for Active; 'I' for Inactive)
REMARK    1  A    between atoms: C_8  and  C_9 
REMARK    2  A    between atoms: C_14  and  C_15 
REMARK    3  A    between atoms: C_16  and  O_17 
ROOT
HETATM    1  C   UNL     1      42.832 -10.453   6.544  1.00  0.00     0.143 A 
HETATM    2  N   UNL     1      41.736 -11.146   6.758  1.00  0.00    -0.223 NA
HETATM    3  C   UNL     1      41.584 -12.014   5.684  1.00  0.00     0.149 A 
HETATM    4  C   UNL     1      42.650 -11.853   4.811  1.00  0.00     0.046 A 
HETATM    5  C   UNL     1      43.067 -12.464   3.518  1.00  0.00     0.070 C 
HETATM    6  C   UNL     1      42.084 -13.424   2.828  1.00  0.00     0.045 C 
HETATM    7  C   UNL     1      40.605 -13.104   3.081  1.00  0.00     0.132 C 
HETATM    8  N   UNL     1      40.113 -13.478   4.391  1.00  0.00    -0.355 N 
HETATM    9  C   UNL     1      40.444 -12.933   5.604  1.00  0.00     0.272 C 
HETATM   10  O   UNL     1      39.767 -13.245   6.583  1.00  0.00    -0.266 OA
HETATM   11  N   UNL     1      43.424 -10.869   5.386  1.00  0.00    -0.341 N 
HETATM   12  H   UNL     1      44.285 -10.502   5.012  1.00  0.00     0.167 HD
HETATM   13  H   UNL     1      39.307 -14.088   4.447  1.00  0.00     0.162 HD
ENDROOT
BRANCH   1  14
HETATM   14  C   UNL     1      43.331  -9.374   7.437  1.00  0.00     0.059 A 
HETATM   15  C   UNL     1      44.439  -9.398   8.265  1.00  0.00     0.040 A 
HETATM   16  C   UNL     1      45.476 -10.411   8.566  1.00  0.00     0.071 C 
HETATM   17  N   UNL     1      44.464  -8.164   8.860  1.00  0.00    -0.281 N 
HETATM   18  H   UNL     1      45.135  -7.808   9.533  1.00  0.00     0.189 HD
HETATM   19  N   UNL     1      43.469  -7.353   8.484  1.00  0.00    -0.179 NA
HETATM   20  C   UNL     1      42.766  -8.083   7.608  1.00  0.00     0.067 A 
HETATM   21  C   UNL     1      41.561  -7.511   6.957  1.00  0.00     0.073 C 
ENDBRANCH   1  14
BRANCH   6  22
HETATM   22  C   UNL     1      42.402 -14.911   3.006  1.00  0.00    -0.019 A 
HETATM   23  C   UNL     1      41.964 -15.857   2.052  1.00  0.00     0.074 A 
HETATM   24  C   UNL     1      42.235 -17.218   2.240  1.00  0.00     0.037 A 
HETATM   25  C   UNL     1      42.945 -17.650   3.361  1.00  0.00     0.003 A 
HETATM   26  C   UNL     1      43.384 -16.726   4.303  1.00  0.00     0.001 A 
HETATM   27  C   UNL     1      43.115 -15.368   4.128  1.00  0.00     0.010 A 
BRANCH  23  28
HETATM   28  O   UNL     1      41.254 -15.364   0.986  1.00  0.00    -0.355 OA
HETATM   29  C   UNL     1      39.910 -15.812   0.844  1.00  0.00     0.210 C 
ENDBRANCH  23  28
ENDBRANCH   6  22
TORSDOF 3
ENDMDL
MODEL 9
REMARK VINA RESULT:      -7.5      2.150      3.011
REMARK  3 active torsions:
REMARK  status: ('A' for Active; 'I' for Inactive)
REMARK    1  A    between atoms: C_8  and  C_9 
REMARK    2  A    between atoms: C_14  and  C_15 
REMARK    3  A    between atoms: C_16  and  O_17 
ROOT
HETATM    1  C   UNL     1      40.721 -12.312  -0.098  1.00  0.00     0.143 A 
HETATM    2  N   UNL     1      39.945 -12.279   0.962  1.00  0.00    -0.223 NA
HETATM    3  C   UNL     1      40.344 -13.317   1.794  1.00  0.00     0.149 A 
HETATM    4  C   UNL     1      41.422 -13.975   1.220  1.00  0.00     0.046 A 
HETATM    5  C   UNL     1      42.283 -15.131   1.594  1.00  0.00     0.070 C 
HETATM    6  C   UNL     1      41.888 -15.948   2.835  1.00  0.00     0.045 C 
HETATM    7  C   UNL     1      40.379 -16.002   3.102  1.00  0.00     0.132 C 
HETATM    8  N   UNL     1      39.814 -14.794   3.669  1.00  0.00    -0.355 N 
HETATM    9  C   UNL     1      39.671 -13.569   3.072  1.00  0.00     0.272 C 
HETATM   10  O   UNL     1      38.981 -12.725   3.642  1.00  0.00    -0.266 OA
HETATM   11  N   UNL     1      41.642 -13.312   0.033  1.00  0.00    -0.341 N 
HETATM   12  H   UNL     1      42.358 -13.531  -0.641  1.00  0.00     0.167 HD
HETATM   13  H   UNL     1      39.301 -14.864   4.539  1.00  0.00     0.162 HD
ENDROOT
BRANCH   1  14
HETATM   14  C   UNL     1      40.593 -11.395  -1.262  1.00  0.00     0.059 A 
HETATM   15  C   UNL     1      41.059 -10.098  -1.379  1.00  0.00     0.040 A 
HETATM   16  C   UNL     1      41.802  -9.187  -0.480  1.00  0.00     0.071 C 
HETATM   17  N   UNL     1      40.693  -9.702  -2.639  1.00  0.00    -0.281 N 
HETATM   18  H   UNL     1      40.865  -8.808  -3.087  1.00  0.00     0.189 HD
HETATM   19  N   UNL     1      40.036 -10.633  -3.338  1.00  0.00    -0.179 NA
HETATM   20  C   UNL     1      39.968 -11.680  -2.504  1.00  0.00     0.067 A 
HETATM   21  C   UNL     1      39.298 -12.934  -2.933  1.00  0.00     0.073 C 
ENDBRANCH   1  14
BRANCH   6  22
HETATM   22  C   UNL     1      42.697 -15.638   4.096  1.00  0.00    -0.019 A 
HETATM   23  C   UNL     1      43.400 -16.664   4.768  1.00  0.00     0.074 A 
HETATM   24  C   UNL     1      44.113 -16.374   5.938  1.00  0.00     0.037 A 
HETATM   25  C   UNL     1      44.145 -15.074   6.444  1.00  0.00     0.003 A 
HETATM   26  C   UNL     1      43.461 -14.057   5.788  1.00  0.00     0.001 A 
HETATM   27  C   UNL     1      42.742 -14.336   4.624  1.00  0.00     0.010 A 
BRANCH  23  28
HETATM   28  O   UNL     1      43.309 -17.922   4.226  1.00  0.00    -0.355 OA
HETATM   29  C   UNL     1      44.444 -18.768   4.368  1.00  0.00     0.210 C 
ENDBRANCH  23  28
ENDBRANCH   6  22
TORSDOF 3
ENDMDL
MODEL 10
REMARK VINA RESULT:      -7.5      4.072      7.508
REMARK  3 active torsions:
REMARK  status: ('A' for Active; 'I' for Inactive)
REMARK    1  A    between atoms: C_8  and  C_9 
REMARK    2  A    between atoms: C_14  and  C_15 
REMARK    3  A    between atoms: C_16  and  O_17 
ROOT
HETATM    1  C   UNL     1      43.310 -17.851   4.384  1.00  0.00     0.143 A 
HETATM    2  N   UNL     1      43.442 -16.956   3.431  1.00  0.00    -0.223 NA
HETATM    3  C   UNL     1      43.013 -15.741   3.947  1.00  0.00     0.149 A 
HETATM    4  C   UNL     1      42.640 -15.912   5.273  1.00  0.00     0.046 A 
HETATM    5  C   UNL     1      42.113 -15.032   6.351  1.00  0.00     0.070 C 
HETATM    6  C   UNL     1      41.729 -13.590   5.977  1.00  0.00     0.045 C 
HETATM    7  C   UNL     1      41.221 -13.425   4.539  1.00  0.00     0.132 C 
HETATM    8  N   UNL     1      42.250 -13.457   3.520  1.00  0.00    -0.355 N 
HETATM    9  C   UNL     1      43.020 -14.522   3.131  1.00  0.00     0.272 C 
HETATM   10  O   UNL     1      43.694 -14.407   2.108  1.00  0.00    -0.266 OA
HETATM   11  N   UNL     1      42.848 -17.251   5.521  1.00  0.00    -0.341 N 
HETATM   12  H   UNL     1      42.679 -17.722   6.396  1.00  0.00     0.167 HD
HETATM   13  H   UNL     1      42.321 -12.674   2.882  1.00  0.00     0.162 HD
ENDROOT
BRANCH   1  14
HETATM   14  C   UNL     1      43.614 -19.298   4.226  1.00  0.00     0.059 A 
HETATM   15  C   UNL     1      43.815 -20.239   5.219  1.00  0.00     0.040 A 
HETATM   16  C   UNL     1      43.806 -20.191   6.698  1.00  0.00     0.071 C 
HETATM   17  N   UNL     1      44.051 -21.413   4.553  1.00  0.00    -0.281 N 
HETATM   18  H   UNL     1      44.240 -22.329   4.948  1.00  0.00     0.189 HD
HETATM   19  N   UNL     1      44.018 -21.305   3.220  1.00  0.00    -0.179 NA
HETATM   20  C   UNL     1      43.749 -20.010   3.005  1.00  0.00     0.067 A 
HETATM   21  C   UNL     1      43.629 -19.493   1.618  1.00  0.00     0.073 C 
ENDBRANCH   1  14
BRANCH   6  22
HETATM   22  C   UNL     1      42.759 -12.527   6.363  1.00  0.00    -0.019 A 
HETATM   23  C   UNL     1      42.360 -11.190   6.590  1.00  0.00     0.074 A 
HETATM   24  C   UNL     1      43.315 -10.219   6.913  1.00  0.00     0.037 A 
HETATM   25  C   UNL     1      44.663 -10.562   7.023  1.00  0.00     0.003 A 
HETATM   26  C   UNL     1      45.066 -11.875   6.806  1.00  0.00     0.001 A 
HETATM   27  C   UNL     1      44.122 -12.849   6.478  1.00  0.00     0.010 A 
BRANCH  23  28
HETATM   28  O   UNL     1      41.021 -10.921   6.445  1.00  0.00    -0.355 OA
HETATM   29  C   UNL     1      40.640  -9.550   6.417  1.00  0.00     0.210 C 
ENDBRANCH  23  28
ENDBRANCH   6  22
TORSDOF 3
ENDMDL
