MODEL 1
REMARK VINA RESULT:      -9.8      0.000      0.000
REMARK  10 active torsions:
REMARK  status: ('A' for Active; 'I' for Inactive)
REMARK    1  A    between atoms: C_2  and  O_3 
REMARK    2  A    between atoms: O_3  and  C_4 
REMARK    3  A    between atoms: C_4  and  C_5 
REMARK    4  A    between atoms: C_7  and  N_8 
REMARK    5  A    between atoms: N_8  and  C_9 
REMARK    6  A    between atoms: C_9  and  N_10 
REMARK       I    between atoms: N_10  and  C_11 
REMARK    7  A    between atoms: C_11  and  C_12 
REMARK    8  A    between atoms: C_21  and  N_22 
REMARK    9  A    between atoms: N_25  and  C_27 
REMARK   10  A    between atoms: C_27  and  C_28 
ROOT
HETATM    1  C   UNL     1      43.526 -11.207   7.290  1.00  0.00     0.041 A 
HETATM    2  C   UNL     1      43.791 -12.504   6.828  1.00  0.00     0.049 A 
HETATM    3  C   UNL     1      43.140 -13.002   5.691  1.00  0.00     0.062 A 
HETATM    4  C   UNL     1      42.247 -12.176   4.961  1.00  0.00     0.057 A 
HETATM    5  C   UNL     1      41.999 -10.881   5.445  1.00  0.00     0.033 A 
HETATM    6  C   UNL     1      42.624 -10.399   6.597  1.00  0.00     0.020 A 
ENDROOT
BRANCH   3   7
HETATM    7  N   UNL     1      43.205 -14.379   5.349  1.00  0.00    -0.331 N 
HETATM    8  H   UNL     1      43.673 -14.533   4.465  1.00  0.00     0.168 HD
BRANCH   7   9
HETATM    9  C   UNL     1      42.356 -15.369   5.719  1.00  0.00     0.179 C 
HETATM   10  S   UNL     1      40.982 -14.984   6.587  1.00  0.00    -0.040 SA
BRANCH   9  11
HETATM   11  N   UNL     1      42.568 -16.661   5.344  1.00  0.00    -0.299 N 
HETATM   12  C   UNL     1      43.813 -17.270   5.187  1.00  0.00     0.258 C 
HETATM   13  O   UNL     1      44.871 -16.846   5.637  1.00  0.00    -0.267 OA
HETATM   14  H   UNL     1      41.815 -17.037   4.785  1.00  0.00     0.171 HD
BRANCH  12  15
HETATM   15  C   UNL     1      43.796 -18.525   4.370  1.00  0.00     0.038 A 
HETATM   16  C   UNL     1      43.568 -18.491   2.979  1.00  0.00    -0.046 A 
HETATM   17  C   UNL     1      43.321 -17.210   2.231  1.00  0.00     0.049 C 
HETATM   18  C   UNL     1      43.542 -19.703   2.266  1.00  0.00     0.007 A 
HETATM   19  C   UNL     1      43.746 -20.922   2.912  1.00  0.00     0.001 A 
HETATM   20  C   UNL     1      43.959 -20.955   4.286  1.00  0.00     0.001 A 
HETATM   21  C   UNL     1      43.972 -19.765   5.015  1.00  0.00     0.017 A 
ENDBRANCH  12  15
ENDBRANCH   9  11
ENDBRANCH   7   9
ENDBRANCH   3   7
BRANCH   4  22
HETATM   22  N   UNL     1      41.651 -12.549   3.760  1.00  0.00    -0.376 N 
HETATM   23  C   UNL     1      40.195 -12.731   3.687  1.00  0.00     0.150 C 
HETATM   24  C   UNL     1      39.869 -13.887   2.718  1.00  0.00     0.255 C 
HETATM   25  N   UNL     1      40.552 -13.666   1.360  1.00  0.00    -0.064 N 
HETATM   26  H   UNL     1      40.170 -12.792   0.982  1.00  0.00     0.280 HD
HETATM   27  C   UNL     1      42.060 -13.481   1.525  1.00  0.00     0.255 C 
HETATM   28  C   UNL     1      42.375 -12.334   2.507  1.00  0.00     0.150 C 
BRANCH  25  29
HETATM   29  C   UNL     1      40.236 -14.757   0.368  1.00  0.00     0.273 C 
BRANCH  29  30
HETATM   30  C   UNL     1      39.441 -14.263  -0.808  1.00  0.00    -0.033 A 
HETATM   31  C   UNL     1      39.001 -12.930  -0.858  1.00  0.00     0.009 A 
HETATM   32  C   UNL     1      38.244 -12.476  -1.939  1.00  0.00     0.001 A 
HETATM   33  C   UNL     1      37.918 -13.346  -2.976  1.00  0.00     0.000 A 
HETATM   34  C   UNL     1      38.353 -14.669  -2.940  1.00  0.00     0.001 A 
HETATM   35  C   UNL     1      39.111 -15.127  -1.862  1.00  0.00     0.009 A 
ENDBRANCH  29  30
ENDBRANCH  25  29
ENDBRANCH   4  22
BRANCH   1  36
HETATM   36  C   UNL     1      44.193 -10.755   8.540  1.00  0.00     0.293 C 
HETATM   37  O   UNL     1      45.332 -11.067   8.841  1.00  0.00    -0.259 OA
BRANCH  36  38
HETATM   38  O   UNL     1      43.333 -10.016   9.281  1.00  0.00    -0.318 OA
BRANCH  38  39
HETATM   39  C   UNL     1      43.380 -10.229  10.701  1.00  0.00     0.174 C 
HETATM   40  C   UNL     1      43.928  -8.995  11.389  1.00  0.00     0.034 C 
ENDBRANCH  38  39
ENDBRANCH  36  38
ENDBRANCH   1  36
TORSDOF 10
ENDMDL
MODEL 2
REMARK VINA RESULT:      -9.5      2.238      8.014
REMARK  10 active torsions:
REMARK  status: ('A' for Active; 'I' for Inactive)
REMARK    1  A    between atoms: C_2  and  O_3 
REMARK    2  A    between atoms: O_3  and  C_4 
REMARK    3  A    between atoms: C_4  and  C_5 
REMARK    4  A    between atoms: C_7  and  N_8 
REMARK    5  A    between atoms: N_8  and  C_9 
REMARK    6  A    between atoms: C_9  and  N_10 
REMARK       I    between atoms: N_10  and  C_11 
REMARK    7  A    between atoms: C_11  and  C_12 
REMARK    8  A    between atoms: C_21  and  N_22 
REMARK    9  A    between atoms: N_25  and  C_27 
REMARK   10  A    between atoms: C_27  and  C_28 
ROOT
HETATM    1  C   UNL     1      41.170 -13.558   1.795  1.00  0.00     0.041 A 
HETATM    2  C   UNL     1      41.358 -14.234   3.008  1.00  0.00     0.049 A 
HETATM    3  C   UNL     1      42.101 -13.648   4.042  1.00  0.00     0.062 A 
HETATM    4  C   UNL     1      42.623 -12.338   3.892  1.00  0.00     0.057 A 
HETATM    5  C   UNL     1      42.420 -11.683   2.666  1.00  0.00     0.033 A 
HETATM    6  C   UNL     1      41.708 -12.282   1.626  1.00  0.00     0.020 A 
ENDROOT
BRANCH   3   7
HETATM    7  N   UNL     1      42.509 -14.402   5.175  1.00  0.00    -0.331 N 
HETATM    8  H   UNL     1      43.512 -14.382   5.308  1.00  0.00     0.168 HD
BRANCH   7   9
HETATM    9  C   UNL     1      41.886 -15.468   5.732  1.00  0.00     0.179 C 
HETATM   10  S   UNL     1      40.553 -15.218   6.707  1.00  0.00    -0.040 SA
BRANCH   9  11
HETATM   11  N   UNL     1      42.285 -16.742   5.464  1.00  0.00    -0.299 N 
HETATM   12  C   UNL     1      43.597 -17.151   5.222  1.00  0.00     0.258 C 
HETATM   13  O   UNL     1      44.603 -16.508   5.501  1.00  0.00    -0.267 OA
HETATM   14  H   UNL     1      41.559 -17.300   5.037  1.00  0.00     0.171 HD
BRANCH  12  15
HETATM   15  C   UNL     1      43.722 -18.479   4.539  1.00  0.00     0.038 A 
HETATM   16  C   UNL     1      43.574 -18.602   3.143  1.00  0.00    -0.046 A 
HETATM   17  C   UNL     1      43.278 -17.425   2.254  1.00  0.00     0.049 C 
HETATM   18  C   UNL     1      43.682 -19.876   2.559  1.00  0.00     0.007 A 
HETATM   19  C   UNL     1      43.937 -21.005   3.338  1.00  0.00     0.001 A 
HETATM   20  C   UNL     1      44.069 -20.884   4.717  1.00  0.00     0.001 A 
HETATM   21  C   UNL     1      43.951 -19.630   5.318  1.00  0.00     0.017 A 
ENDBRANCH  12  15
ENDBRANCH   9  11
ENDBRANCH   7   9
ENDBRANCH   3   7
BRANCH   4  22
HETATM   22  N   UNL     1      43.268 -11.638   4.907  1.00  0.00    -0.376 N 
HETATM   23  C   UNL     1      44.724 -11.442   4.854  1.00  0.00     0.150 C 
HETATM   24  C   UNL     1      45.302 -11.492   6.284  1.00  0.00     0.255 C 
HETATM   25  N   UNL     1      44.560 -10.513   7.205  1.00  0.00    -0.064 N 
HETATM   26  H   UNL     1      44.711  -9.576   6.814  1.00  0.00     0.280 HD
HETATM   27  C   UNL     1      43.056 -10.781   7.199  1.00  0.00     0.255 C 
HETATM   28  C   UNL     1      42.490 -10.744   5.764  1.00  0.00     0.150 C 
BRANCH  25  29
HETATM   29  C   UNL     1      45.113 -10.505   8.607  1.00  0.00     0.273 C 
BRANCH  29  30
HETATM   30  C   UNL     1      44.412  -9.524   9.505  1.00  0.00    -0.033 A 
HETATM   31  C   UNL     1      44.116  -9.865  10.835  1.00  0.00     0.009 A 
HETATM   32  C   UNL     1      43.445  -8.964  11.662  1.00  0.00     0.001 A 
HETATM   33  C   UNL     1      43.062  -7.718  11.172  1.00  0.00     0.000 A 
HETATM   34  C   UNL     1      43.354  -7.367   9.856  1.00  0.00     0.001 A 
HETATM   35  C   UNL     1      44.025  -8.264   9.024  1.00  0.00     0.009 A 
ENDBRANCH  29  30
ENDBRANCH  25  29
ENDBRANCH   4  22
BRANCH   1  36
HETATM   36  C   UNL     1      40.431 -14.254   0.708  1.00  0.00     0.293 C 
HETATM   37  O   UNL     1      39.853 -15.316   0.865  1.00  0.00    -0.259 OA
BRANCH  36  38
HETATM   38  O   UNL     1      40.557 -13.564  -0.451  1.00  0.00    -0.318 OA
BRANCH  38  39
HETATM   39  C   UNL     1      39.406 -13.563  -1.312  1.00  0.00     0.174 C 
HETATM   40  C   UNL     1      39.814 -13.962  -2.716  1.00  0.00     0.034 C 
ENDBRANCH  38  39
ENDBRANCH  36  38
ENDBRANCH   1  36
TORSDOF 10
ENDMDL
MODEL 3
REMARK VINA RESULT:      -9.3      3.077      8.154
REMARK  10 active torsions:
REMARK  status: ('A' for Active; 'I' for Inactive)
REMARK    1  A    between atoms: C_2  and  O_3 
REMARK    2  A    between atoms: O_3  and  C_4 
REMARK    3  A    between atoms: C_4  and  C_5 
REMARK    4  A    between atoms: C_7  and  N_8 
REMARK    5  A    between atoms: N_8  and  C_9 
REMARK    6  A    between atoms: C_9  and  N_10 
REMARK       I    between atoms: N_10  and  C_11 
REMARK    7  A    between atoms: C_11  and  C_12 
REMARK    8  A    between atoms: C_21  and  N_22 
REMARK    9  A    between atoms: N_25  and  C_27 
REMARK   10  A    between atoms: C_27  and  C_28 
ROOT
HETATM    1  C   UNL     1      40.208 -12.501  -1.153  1.00  0.00     0.041 A 
HETATM    2  C   UNL     1      40.601 -13.584  -0.355  1.00  0.00     0.049 A 
HETATM    3  C   UNL     1      41.117 -13.370   0.931  1.00  0.00     0.062 A 
HETATM    4  C   UNL     1      41.193 -12.057   1.460  1.00  0.00     0.057 A 
HETATM    5  C   UNL     1      40.793 -10.989   0.639  1.00  0.00     0.033 A 
HETATM    6  C   UNL     1      40.310 -11.202  -0.654  1.00  0.00     0.020 A 
ENDROOT
BRANCH   3   7
HETATM    7  N   UNL     1      41.744 -14.418   1.657  1.00  0.00    -0.331 N 
HETATM    8  H   UNL     1      42.630 -14.688   1.252  1.00  0.00     0.168 HD
BRANCH   7   9
HETATM    9  C   UNL     1      41.152 -15.375   2.413  1.00  0.00     0.179 C 
HETATM   10  S   UNL     1      39.492 -15.359   2.599  1.00  0.00    -0.040 SA
BRANCH   9  11
HETATM   11  N   UNL     1      41.876 -16.384   2.971  1.00  0.00    -0.299 N 
HETATM   12  C   UNL     1      43.063 -16.915   2.464  1.00  0.00     0.258 C 
HETATM   13  O   UNL     1      43.779 -16.375   1.628  1.00  0.00    -0.267 OA
HETATM   14  H   UNL     1      41.313 -17.009   3.531  1.00  0.00     0.171 HD
BRANCH  12  15
HETATM   15  C   UNL     1      43.423 -18.266   2.999  1.00  0.00     0.038 A 
HETATM   16  C   UNL     1      43.963 -18.421   4.292  1.00  0.00    -0.046 A 
HETATM   17  C   UNL     1      44.216 -17.256   5.209  1.00  0.00     0.049 C 
HETATM   18  C   UNL     1      44.302 -19.712   4.735  1.00  0.00     0.007 A 
HETATM   19  C   UNL     1      44.106 -20.827   3.919  1.00  0.00     0.001 A 
HETATM   20  C   UNL     1      43.586 -20.670   2.639  1.00  0.00     0.001 A 
HETATM   21  C   UNL     1      43.257 -19.396   2.175  1.00  0.00     0.017 A 
ENDBRANCH  12  15
ENDBRANCH   9  11
ENDBRANCH   7   9
ENDBRANCH   3   7
BRANCH   4  22
HETATM   22  N   UNL     1      41.580 -11.766   2.765  1.00  0.00    -0.376 N 
HETATM   23  C   UNL     1      42.759 -10.924   3.012  1.00  0.00     0.150 C 
HETATM   24  C   UNL     1      43.490 -11.421   4.277  1.00  0.00     0.255 C 
HETATM   25  N   UNL     1      42.518 -11.521   5.462  1.00  0.00    -0.064 N 
HETATM   26  H   UNL     1      42.165 -10.571   5.628  1.00  0.00     0.280 HD
HETATM   27  C   UNL     1      41.321 -12.407   5.121  1.00  0.00     0.255 C 
HETATM   28  C   UNL     1      40.607 -11.911   3.848  1.00  0.00     0.150 C 
BRANCH  25  29
HETATM   29  C   UNL     1      43.196 -11.973   6.730  1.00  0.00     0.273 C 
BRANCH  29  30
HETATM   30  C   UNL     1      44.096 -10.922   7.317  1.00  0.00    -0.033 A 
HETATM   31  C   UNL     1      45.489 -11.100   7.316  1.00  0.00     0.009 A 
HETATM   32  C   UNL     1      46.324 -10.136   7.882  1.00  0.00     0.001 A 
HETATM   33  C   UNL     1      45.779  -8.988   8.453  1.00  0.00     0.000 A 
HETATM   34  C   UNL     1      44.400  -8.798   8.455  1.00  0.00     0.001 A 
HETATM   35  C   UNL     1      43.560  -9.759   7.890  1.00  0.00     0.009 A 
ENDBRANCH  29  30
ENDBRANCH  25  29
ENDBRANCH   4  22
BRANCH   1  36
HETATM   36  C   UNL     1      39.732 -12.781  -2.534  1.00  0.00     0.293 C 
HETATM   37  O   UNL     1      40.444 -12.687  -3.519  1.00  0.00    -0.259 OA
BRANCH  36  38
HETATM   38  O   UNL     1      38.413 -13.088  -2.515  1.00  0.00    -0.318 OA
BRANCH  38  39
HETATM   39  C   UNL     1      38.017 -14.222  -3.304  1.00  0.00     0.174 C 
HETATM   40  C   UNL     1      38.590 -15.491  -2.703  1.00  0.00     0.034 C 
ENDBRANCH  38  39
ENDBRANCH  36  38
ENDBRANCH   1  36
TORSDOF 10
ENDMDL
MODEL 4
REMARK VINA RESULT:      -8.8      2.149      3.053
REMARK  10 active torsions:
REMARK  status: ('A' for Active; 'I' for Inactive)
REMARK    1  A    between atoms: C_2  and  O_3 
REMARK    2  A    between atoms: O_3  and  C_4 
REMARK    3  A    between atoms: C_4  and  C_5 
REMARK    4  A    between atoms: C_7  and  N_8 
REMARK    5  A    between atoms: N_8  and  C_9 
REMARK    6  A    between atoms: C_9  and  N_10 
REMARK       I    between atoms: N_10  and  C_11 
REMARK    7  A    between atoms: C_11  and  C_12 
REMARK    8  A    between atoms: C_21  and  N_22 
REMARK    9  A    between atoms: N_25  and  C_27 
REMARK   10  A    between atoms: C_27  and  C_28 
ROOT
HETATM    1  C   UNL     1      43.103 -12.285   5.368  1.00  0.00     0.041 A 
HETATM    2  C   UNL     1      42.337 -13.215   4.651  1.00  0.00     0.049 A 
HETATM    3  C   UNL     1      41.523 -12.798   3.588  1.00  0.00     0.062 A 
HETATM    4  C   UNL     1      41.511 -11.437   3.190  1.00  0.00     0.057 A 
HETATM    5  C   UNL     1      42.287 -10.526   3.926  1.00  0.00     0.033 A 
HETATM    6  C   UNL     1      43.072 -10.939   5.005  1.00  0.00     0.020 A 
ENDROOT
BRANCH   3   7
HETATM    7  N   UNL     1      40.562 -13.670   3.010  1.00  0.00    -0.331 N 
HETATM    8  H   UNL     1      39.672 -13.631   3.490  1.00  0.00     0.168 HD
BRANCH   7   9
HETATM    9  C   UNL     1      40.785 -14.818   2.326  1.00  0.00     0.179 C 
HETATM   10  S   UNL     1      40.248 -14.948   0.750  1.00  0.00    -0.040 SA
BRANCH   9  11
HETATM   11  N   UNL     1      41.493 -15.843   2.876  1.00  0.00    -0.299 N 
HETATM   12  C   UNL     1      42.803 -16.196   2.551  1.00  0.00     0.258 C 
HETATM   13  O   UNL     1      43.604 -15.479   1.960  1.00  0.00    -0.267 OA
HETATM   14  H   UNL     1      40.903 -16.589   3.219  1.00  0.00     0.171 HD
BRANCH  12  15
HETATM   15  C   UNL     1      43.197 -17.582   2.958  1.00  0.00     0.038 A 
HETATM   16  C   UNL     1      43.789 -17.838   4.212  1.00  0.00    -0.046 A 
HETATM   17  C   UNL     1      44.067 -16.749   5.211  1.00  0.00     0.049 C 
HETATM   18  C   UNL     1      44.157 -19.156   4.531  1.00  0.00     0.007 A 
HETATM   19  C   UNL     1      43.939 -20.202   3.634  1.00  0.00     0.001 A 
HETATM   20  C   UNL     1      43.367 -19.946   2.393  1.00  0.00     0.001 A 
HETATM   21  C   UNL     1      43.009 -18.642   2.050  1.00  0.00     0.017 A 
ENDBRANCH  12  15
ENDBRANCH   9  11
ENDBRANCH   7   9
ENDBRANCH   3   7
BRANCH   4  22
HETATM   22  N   UNL     1      40.826 -10.959   2.076  1.00  0.00    -0.376 N 
HETATM   23  C   UNL     1      39.357 -10.996   2.045  1.00  0.00     0.150 C 
HETATM   24  C   UNL     1      38.880 -11.288   0.606  1.00  0.00     0.255 C 
HETATM   25  N   UNL     1      39.515 -10.303  -0.386  1.00  0.00    -0.064 N 
HETATM   26  H   UNL     1      39.197  -9.367  -0.110  1.00  0.00     0.280 HD
HETATM   27  C   UNL     1      41.040 -10.323  -0.286  1.00  0.00     0.255 C 
HETATM   28  C   UNL     1      41.505 -10.046   1.158  1.00  0.00     0.150 C 
BRANCH  25  29
HETATM   29  C   UNL     1      39.053 -10.530  -1.803  1.00  0.00     0.273 C 
BRANCH  29  30
HETATM   30  C   UNL     1      39.055 -11.982  -2.192  1.00  0.00    -0.033 A 
HETATM   31  C   UNL     1      37.849 -12.696  -2.274  1.00  0.00     0.009 A 
HETATM   32  C   UNL     1      37.852 -14.050  -2.612  1.00  0.00     0.001 A 
HETATM   33  C   UNL     1      39.056 -14.702  -2.870  1.00  0.00     0.000 A 
HETATM   34  C   UNL     1      40.258 -14.003  -2.796  1.00  0.00     0.001 A 
HETATM   35  C   UNL     1      40.260 -12.649  -2.459  1.00  0.00     0.009 A 
ENDBRANCH  29  30
ENDBRANCH  25  29
ENDBRANCH   4  22
BRANCH   1  36
HETATM   36  C   UNL     1      43.895 -12.772   6.529  1.00  0.00     0.293 C 
HETATM   37  O   UNL     1      43.523 -13.673   7.262  1.00  0.00    -0.259 OA
BRANCH  36  38
HETATM   38  O   UNL     1      45.024 -12.035   6.659  1.00  0.00    -0.318 OA
BRANCH  38  39
HETATM   39  C   UNL     1      45.116 -11.227   7.844  1.00  0.00     0.174 C 
HETATM   40  C   UNL     1      46.188 -10.170   7.664  1.00  0.00     0.034 C 
ENDBRANCH  38  39
ENDBRANCH  36  38
ENDBRANCH   1  36
TORSDOF 10
ENDMDL
MODEL 5
REMARK VINA RESULT:      -8.6      3.152      8.795
REMARK  10 active torsions:
REMARK  status: ('A' for Active; 'I' for Inactive)
REMARK    1  A    between atoms: C_2  and  O_3 
REMARK    2  A    between atoms: O_3  and  C_4 
REMARK    3  A    between atoms: C_4  and  C_5 
REMARK    4  A    between atoms: C_7  and  N_8 
REMARK    5  A    between atoms: N_8  and  C_9 
REMARK    6  A    between atoms: C_9  and  N_10 
REMARK       I    between atoms: N_10  and  C_11 
REMARK    7  A    between atoms: C_11  and  C_12 
REMARK    8  A    between atoms: C_21  and  N_22 
REMARK    9  A    between atoms: N_25  and  C_27 
REMARK   10  A    between atoms: C_27  and  C_28 
ROOT
HETATM    1  C   UNL     1      39.374 -11.451   3.492  1.00  0.00     0.041 A 
HETATM    2  C   UNL     1      39.982 -12.310   4.418  1.00  0.00     0.049 A 
HETATM    3  C   UNL     1      40.652 -11.794   5.536  1.00  0.00     0.062 A 
HETATM    4  C   UNL     1      40.672 -10.396   5.773  1.00  0.00     0.057 A 
HETATM    5  C   UNL     1      40.055  -9.557   4.829  1.00  0.00     0.033 A 
HETATM    6  C   UNL     1      39.417 -10.072   3.700  1.00  0.00     0.020 A 
ENDROOT
BRANCH   3   7
HETATM    7  N   UNL     1      41.476 -12.619   6.348  1.00  0.00    -0.331 N 
HETATM    8  H   UNL     1      41.335 -12.449   7.335  1.00  0.00     0.168 HD
BRANCH   7   9
HETATM    9  C   UNL     1      42.677 -13.161   6.033  1.00  0.00     0.179 C 
HETATM   10  S   UNL     1      44.053 -12.595   6.793  1.00  0.00    -0.040 SA
BRANCH   9  11
HETATM   11  N   UNL     1      42.779 -14.198   5.156  1.00  0.00    -0.299 N 
HETATM   12  C   UNL     1      42.108 -15.418   5.255  1.00  0.00     0.258 C 
HETATM   13  O   UNL     1      41.125 -15.630   5.955  1.00  0.00    -0.267 OA
HETATM   14  H   UNL     1      43.663 -14.214   4.667  1.00  0.00     0.171 HD
BRANCH  12  15
HETATM   15  C   UNL     1      42.701 -16.525   4.439  1.00  0.00     0.038 A 
HETATM   16  C   UNL     1      42.205 -16.836   3.156  1.00  0.00    -0.046 A 
HETATM   17  C   UNL     1      41.058 -16.091   2.530  1.00  0.00     0.049 C 
HETATM   18  C   UNL     1      42.787 -17.899   2.444  1.00  0.00     0.007 A 
HETATM   19  C   UNL     1      43.841 -18.636   2.984  1.00  0.00     0.001 A 
HETATM   20  C   UNL     1      44.320 -18.336   4.255  1.00  0.00     0.001 A 
HETATM   21  C   UNL     1      43.746 -17.294   4.985  1.00  0.00     0.017 A 
ENDBRANCH  12  15
ENDBRANCH   9  11
ENDBRANCH   7   9
ENDBRANCH   3   7
BRANCH   4  22
HETATM   22  N   UNL     1      41.210  -9.809   6.914  1.00  0.00    -0.376 N 
HETATM   23  C   UNL     1      42.532  -9.169   6.858  1.00  0.00     0.150 C 
HETATM   24  C   UNL     1      43.270  -9.396   8.195  1.00  0.00     0.255 C 
HETATM   25  N   UNL     1      42.397  -8.955   9.379  1.00  0.00    -0.064 N 
HETATM   26  H   UNL     1      42.226  -7.951   9.255  1.00  0.00     0.280 HD
HETATM   27  C   UNL     1      41.042  -9.661   9.360  1.00  0.00     0.255 C 
HETATM   28  C   UNL     1      40.320  -9.442   8.015  1.00  0.00     0.150 C 
BRANCH  25  29
HETATM   29  C   UNL     1      43.091  -9.129  10.706  1.00  0.00     0.273 C 
BRANCH  29  30
HETATM   30  C   UNL     1      42.839  -7.987  11.650  1.00  0.00    -0.033 A 
HETATM   31  C   UNL     1      42.286  -6.786  11.179  1.00  0.00     0.009 A 
HETATM   32  C   UNL     1      42.073  -5.717  12.051  1.00  0.00     0.001 A 
HETATM   33  C   UNL     1      42.409  -5.836  13.397  1.00  0.00     0.000 A 
HETATM   34  C   UNL     1      42.954  -7.025  13.877  1.00  0.00     0.001 A 
HETATM   35  C   UNL     1      43.168  -8.097  13.010  1.00  0.00     0.009 A 
ENDBRANCH  29  30
ENDBRANCH  25  29
ENDBRANCH   4  22
BRANCH   1  36
HETATM   36  C   UNL     1      38.736 -12.050   2.289  1.00  0.00     0.293 C 
HETATM   37  O   UNL     1      37.630 -11.731   1.890  1.00  0.00    -0.259 OA
BRANCH  36  38
HETATM   38  O   UNL     1      39.539 -13.011   1.771  1.00  0.00    -0.318 OA
BRANCH  38  39
HETATM   39  C   UNL     1      39.940 -12.828   0.404  1.00  0.00     0.174 C 
HETATM   40  C   UNL     1      39.851 -14.146  -0.339  1.00  0.00     0.034 C 
ENDBRANCH  38  39
ENDBRANCH  36  38
ENDBRANCH   1  36
TORSDOF 10
ENDMDL
MODEL 6
REMARK VINA RESULT:      -8.5      2.739      9.214
REMARK  10 active torsions:
REMARK  status: ('A' for Active; 'I' for Inactive)
REMARK    1  A    between atoms: C_2  and  O_3 
REMARK    2  A    between atoms: O_3  and  C_4 
REMARK    3  A    between atoms: C_4  and  C_5 
REMARK    4  A    between atoms: C_7  and  N_8 
REMARK    5  A    between atoms: N_8  and  C_9 
REMARK    6  A    between atoms: C_9  and  N_10 
REMARK       I    between atoms: N_10  and  C_11 
REMARK    7  A    between atoms: C_11  and  C_12 
REMARK    8  A    between atoms: C_21  and  N_22 
REMARK    9  A    between atoms: N_25  and  C_27 
REMARK   10  A    between atoms: C_27  and  C_28 
ROOT
HETATM    1  C   UNL     1      42.790 -15.392   3.543  1.00  0.00     0.041 A 
HETATM    2  C   UNL     1      42.893 -14.139   2.922  1.00  0.00     0.049 A 
HETATM    3  C   UNL     1      43.181 -12.992   3.675  1.00  0.00     0.062 A 
HETATM    4  C   UNL     1      43.429 -13.097   5.067  1.00  0.00     0.057 A 
HETATM    5  C   UNL     1      43.319 -14.364   5.665  1.00  0.00     0.033 A 
HETATM    6  C   UNL     1      43.000 -15.499   4.918  1.00  0.00     0.020 A 
ENDROOT
BRANCH   3   7
HETATM    7  N   UNL     1      43.050 -11.692   3.117  1.00  0.00    -0.331 N 
HETATM    8  H   UNL     1      43.837 -11.098   3.341  1.00  0.00     0.168 HD
BRANCH   7   9
HETATM    9  C   UNL     1      41.909 -11.028   2.815  1.00  0.00     0.179 C 
HETATM   10  S   UNL     1      41.493  -9.674   3.701  1.00  0.00    -0.040 SA
BRANCH   9  11
HETATM   11  N   UNL     1      41.126 -11.405   1.766  1.00  0.00    -0.299 N 
HETATM   12  C   UNL     1      39.984 -12.202   1.845  1.00  0.00     0.258 C 
HETATM   13  O   UNL     1      39.352 -12.434   2.870  1.00  0.00    -0.267 OA
HETATM   14  H   UNL     1      41.630 -11.434   0.891  1.00  0.00     0.171 HD
BRANCH  12  15
HETATM   15  C   UNL     1      39.562 -12.820   0.548  1.00  0.00     0.038 A 
HETATM   16  C   UNL     1      38.666 -12.163  -0.319  1.00  0.00    -0.046 A 
HETATM   17  C   UNL     1      38.076 -10.816  -0.003  1.00  0.00     0.049 C 
HETATM   18  C   UNL     1      38.288 -12.800  -1.514  1.00  0.00     0.007 A 
HETATM   19  C   UNL     1      38.791 -14.058  -1.849  1.00  0.00     0.001 A 
HETATM   20  C   UNL     1      39.664 -14.710  -0.986  1.00  0.00     0.001 A 
HETATM   21  C   UNL     1      40.039 -14.102   0.213  1.00  0.00     0.017 A 
ENDBRANCH  12  15
ENDBRANCH   9  11
ENDBRANCH   7   9
ENDBRANCH   3   7
BRANCH   4  22
HETATM   22  N   UNL     1      43.837 -12.033   5.866  1.00  0.00    -0.376 N 
HETATM   23  C   UNL     1      45.136 -11.388   5.625  1.00  0.00     0.150 C 
HETATM   24  C   UNL     1      45.752 -10.954   6.972  1.00  0.00     0.255 C 
HETATM   25  N   UNL     1      44.757 -10.103   7.775  1.00  0.00    -0.064 N 
HETATM   26  H   UNL     1      44.565  -9.269   7.208  1.00  0.00     0.280 HD
HETATM   27  C   UNL     1      43.435 -10.842   7.976  1.00  0.00     0.255 C 
HETATM   28  C   UNL     1      42.835 -11.285   6.626  1.00  0.00     0.150 C 
BRANCH  25  29
HETATM   29  C   UNL     1      45.328  -9.628   9.087  1.00  0.00     0.273 C 
BRANCH  29  30
HETATM   30  C   UNL     1      44.380  -8.748   9.851  1.00  0.00    -0.033 A 
HETATM   31  C   UNL     1      43.855  -7.588   9.260  1.00  0.00     0.009 A 
HETATM   32  C   UNL     1      42.993  -6.758   9.977  1.00  0.00     0.001 A 
HETATM   33  C   UNL     1      42.648  -7.076  11.288  1.00  0.00     0.000 A 
HETATM   34  C   UNL     1      43.158  -8.227  11.884  1.00  0.00     0.001 A 
HETATM   35  C   UNL     1      44.020  -9.061  11.171  1.00  0.00     0.009 A 
ENDBRANCH  29  30
ENDBRANCH  25  29
ENDBRANCH   4  22
BRANCH   1  36
HETATM   36  C   UNL     1      42.414 -16.563   2.707  1.00  0.00     0.293 C 
HETATM   37  O   UNL     1      41.265 -16.815   2.385  1.00  0.00    -0.259 OA
BRANCH  36  38
HETATM   38  O   UNL     1      43.514 -17.302   2.426  1.00  0.00    -0.318 OA
BRANCH  38  39
HETATM   39  C   UNL     1      43.614 -18.567   3.100  1.00  0.00     0.174 C 
HETATM   40  C   UNL     1      43.309 -19.691   2.130  1.00  0.00     0.034 C 
ENDBRANCH  38  39
ENDBRANCH  36  38
ENDBRANCH   1  36
TORSDOF 10
ENDMDL
MODEL 7
REMARK VINA RESULT:      -8.5      1.958      2.920
REMARK  10 active torsions:
REMARK  status: ('A' for Active; 'I' for Inactive)
REMARK    1  A    between atoms: C_2  and  O_3 
REMARK    2  A    between atoms: O_3  and  C_4 
REMARK    3  A    between atoms: C_4  and  C_5 
REMARK    4  A    between atoms: C_7  and  N_8 
REMARK    5  A    between atoms: N_8  and  C_9 
REMARK    6  A    between atoms: C_9  and  N_10 
REMARK       I    between atoms: N_10  and  C_11 
REMARK    7  A    between atoms: C_11  and  C_12 
REMARK    8  A    between atoms: C_21  and  N_22 
REMARK    9  A    between atoms: N_25  and  C_27 
REMARK   10  A    between atoms: C_27  and  C_28 
ROOT
HETATM    1  C   UNL     1      40.612  -9.704   7.899  1.00  0.00     0.041 A 
HETATM    2  C   UNL     1      41.758  -9.920   7.122  1.00  0.00     0.049 A 
HETATM    3  C   UNL     1      41.659 -10.524   5.860  1.00  0.00     0.062 A 
HETATM    4  C   UNL     1      40.390 -10.870   5.332  1.00  0.00     0.057 A 
HETATM    5  C   UNL     1      39.257 -10.644   6.132  1.00  0.00     0.033 A 
HETATM    6  C   UNL     1      39.361 -10.072   7.402  1.00  0.00     0.020 A 
ENDROOT
BRANCH   3   7
HETATM    7  N   UNL     1      42.815 -10.972   5.166  1.00  0.00    -0.331 N 
HETATM    8  H   UNL     1      42.835 -10.650   4.207  1.00  0.00     0.168 HD
BRANCH   7   9
HETATM    9  C   UNL     1      43.548 -12.086   5.403  1.00  0.00     0.179 C 
HETATM   10  S   UNL     1      44.631 -12.097   6.674  1.00  0.00    -0.040 SA
BRANCH   9  11
HETATM   11  N   UNL     1      43.373 -13.219   4.666  1.00  0.00    -0.299 N 
HETATM   12  C   UNL     1      42.534 -14.284   4.995  1.00  0.00     0.258 C 
HETATM   13  O   UNL     1      41.623 -14.241   5.814  1.00  0.00    -0.267 OA
HETATM   14  H   UNL     1      44.176 -13.443   4.095  1.00  0.00     0.171 HD
BRANCH  12  15
HETATM   15  C   UNL     1      42.837 -15.563   4.276  1.00  0.00     0.038 A 
HETATM   16  C   UNL     1      43.657 -16.552   4.856  1.00  0.00    -0.046 A 
HETATM   17  C   UNL     1      44.282 -16.391   6.214  1.00  0.00     0.049 C 
HETATM   18  C   UNL     1      43.924 -17.724   4.126  1.00  0.00     0.007 A 
HETATM   19  C   UNL     1      43.386 -17.918   2.854  1.00  0.00     0.001 A 
HETATM   20  C   UNL     1      42.588 -16.935   2.279  1.00  0.00     0.001 A 
HETATM   21  C   UNL     1      42.323 -15.758   2.979  1.00  0.00     0.017 A 
ENDBRANCH  12  15
ENDBRANCH   9  11
ENDBRANCH   7   9
ENDBRANCH   3   7
BRANCH   4  22
HETATM   22  N   UNL     1      40.192 -11.362   4.046  1.00  0.00    -0.376 N 
HETATM   23  C   UNL     1      39.232 -12.451   3.815  1.00  0.00     0.150 C 
HETATM   24  C   UNL     1      39.759 -13.374   2.696  1.00  0.00     0.255 C 
HETATM   25  N   UNL     1      40.114 -12.560   1.443  1.00  0.00    -0.064 N 
HETATM   26  H   UNL     1      39.243 -12.116   1.130  1.00  0.00     0.280 HD
HETATM   27  C   UNL     1      41.111 -11.449   1.770  1.00  0.00     0.255 C 
HETATM   28  C   UNL     1      40.581 -10.542   2.899  1.00  0.00     0.150 C 
BRANCH  25  29
HETATM   29  C   UNL     1      40.605 -13.426   0.310  1.00  0.00     0.273 C 
BRANCH  29  30
HETATM   30  C   UNL     1      39.606 -13.547  -0.806  1.00  0.00    -0.033 A 
HETATM   31  C   UNL     1      38.604 -12.577  -0.970  1.00  0.00     0.009 A 
HETATM   32  C   UNL     1      37.662 -12.701  -1.993  1.00  0.00     0.001 A 
HETATM   33  C   UNL     1      37.711 -13.791  -2.858  1.00  0.00     0.000 A 
HETATM   34  C   UNL     1      38.703 -14.757  -2.708  1.00  0.00     0.001 A 
HETATM   35  C   UNL     1      39.648 -14.638  -1.688  1.00  0.00     0.009 A 
ENDBRANCH  29  30
ENDBRANCH  25  29
ENDBRANCH   4  22
BRANCH   1  36
HETATM   36  C   UNL     1      40.782  -9.123   9.258  1.00  0.00     0.293 C 
HETATM   37  O   UNL     1      39.849  -8.735   9.941  1.00  0.00    -0.259 OA
BRANCH  36  38
HETATM   38  O   UNL     1      42.099  -9.049   9.567  1.00  0.00    -0.318 OA
BRANCH  38  39
HETATM   39  C   UNL     1      42.495  -9.682  10.795  1.00  0.00     0.174 C 
HETATM   40  C   UNL     1      43.939  -9.342  11.105  1.00  0.00     0.034 C 
ENDBRANCH  38  39
ENDBRANCH  36  38
ENDBRANCH   1  36
TORSDOF 10
ENDMDL
MODEL 8
REMARK VINA RESULT:      -8.4      2.447      7.841
REMARK  10 active torsions:
REMARK  status: ('A' for Active; 'I' for Inactive)
REMARK    1  A    between atoms: C_2  and  O_3 
REMARK    2  A    between atoms: O_3  and  C_4 
REMARK    3  A    between atoms: C_4  and  C_5 
REMARK    4  A    between atoms: C_7  and  N_8 
REMARK    5  A    between atoms: N_8  and  C_9 
REMARK    6  A    between atoms: C_9  and  N_10 
REMARK       I    between atoms: N_10  and  C_11 
REMARK    7  A    between atoms: C_11  and  C_12 
REMARK    8  A    between atoms: C_21  and  N_22 
REMARK    9  A    between atoms: N_25  and  C_27 
REMARK   10  A    between atoms: C_27  and  C_28 
ROOT
HETATM    1  C   UNL     1      43.325 -17.329   3.408  1.00  0.00     0.041 A 
HETATM    2  C   UNL     1      43.297 -16.281   4.338  1.00  0.00     0.049 A 
HETATM    3  C   UNL     1      42.626 -15.085   4.044  1.00  0.00     0.062 A 
HETATM    4  C   UNL     1      41.918 -14.946   2.824  1.00  0.00     0.057 A 
HETATM    5  C   UNL     1      41.963 -16.012   1.909  1.00  0.00     0.033 A 
HETATM    6  C   UNL     1      42.659 -17.188   2.190  1.00  0.00     0.020 A 
ENDROOT
BRANCH   3   7
HETATM    7  N   UNL     1      42.788 -13.931   4.857  1.00  0.00    -0.331 N 
HETATM    8  H   UNL     1      43.748 -13.617   4.890  1.00  0.00     0.168 HD
BRANCH   7   9
HETATM    9  C   UNL     1      42.030 -13.544   5.911  1.00  0.00     0.179 C 
HETATM   10  S   UNL     1      40.580 -14.320   6.204  1.00  0.00    -0.040 SA
BRANCH   9  11
HETATM   11  N   UNL     1      42.456 -12.579   6.773  1.00  0.00    -0.299 N 
HETATM   12  C   UNL     1      42.933 -11.319   6.414  1.00  0.00     0.258 C 
HETATM   13  O   UNL     1      42.769 -10.783   5.323  1.00  0.00    -0.267 OA
HETATM   14  H   UNL     1      42.802 -12.955   7.644  1.00  0.00     0.171 HD
BRANCH  12  15
HETATM   15  C   UNL     1      43.727 -10.624   7.477  1.00  0.00     0.038 A 
HETATM   16  C   UNL     1      45.135 -10.678   7.494  1.00  0.00    -0.046 A 
HETATM   17  C   UNL     1      45.928 -11.433   6.462  1.00  0.00     0.049 C 
HETATM   18  C   UNL     1      45.827 -10.024   8.529  1.00  0.00     0.007 A 
HETATM   19  C   UNL     1      45.141  -9.325   9.522  1.00  0.00     0.001 A 
HETATM   20  C   UNL     1      43.751  -9.283   9.511  1.00  0.00     0.001 A 
HETATM   21  C   UNL     1      43.045  -9.939   8.502  1.00  0.00     0.017 A 
ENDBRANCH  12  15
ENDBRANCH   9  11
ENDBRANCH   7   9
ENDBRANCH   3   7
BRANCH   4  22
HETATM   22  N   UNL     1      41.130 -13.845   2.504  1.00  0.00    -0.376 N 
HETATM   23  C   UNL     1      41.741 -12.659   1.887  1.00  0.00     0.150 C 
HETATM   24  C   UNL     1      41.036 -11.388   2.407  1.00  0.00     0.255 C 
HETATM   25  N   UNL     1      39.516 -11.494   2.218  1.00  0.00    -0.064 N 
HETATM   26  H   UNL     1      39.354 -11.579   1.208  1.00  0.00     0.280 HD
HETATM   27  C   UNL     1      38.963 -12.753   2.884  1.00  0.00     0.255 C 
HETATM   28  C   UNL     1      39.684 -14.016   2.369  1.00  0.00     0.150 C 
BRANCH  25  29
HETATM   29  C   UNL     1      38.787 -10.259   2.683  1.00  0.00     0.273 C 
BRANCH  29  30
HETATM   30  C   UNL     1      39.182  -9.837   4.071  1.00  0.00    -0.033 A 
HETATM   31  C   UNL     1      39.935  -8.669   4.270  1.00  0.00     0.009 A 
HETATM   32  C   UNL     1      40.321  -8.289   5.556  1.00  0.00     0.001 A 
HETATM   33  C   UNL     1      39.963  -9.069   6.652  1.00  0.00     0.000 A 
HETATM   34  C   UNL     1      39.212 -10.228   6.467  1.00  0.00     0.001 A 
HETATM   35  C   UNL     1      38.821 -10.612   5.184  1.00  0.00     0.009 A 
ENDBRANCH  29  30
ENDBRANCH  25  29
ENDBRANCH   4  22
BRANCH   1  36
HETATM   36  C   UNL     1      44.110 -18.547   3.743  1.00  0.00     0.293 C 
HETATM   37  O   UNL     1      45.161 -18.518   4.360  1.00  0.00    -0.259 OA
BRANCH  36  38
HETATM   38  O   UNL     1      43.510 -19.642   3.217  1.00  0.00    -0.318 OA
BRANCH  38  39
HETATM   39  C   UNL     1      43.949 -20.910   3.731  1.00  0.00     0.174 C 
HETATM   40  C   UNL     1      43.572 -21.030   5.195  1.00  0.00     0.034 C 
ENDBRANCH  38  39
ENDBRANCH  36  38
ENDBRANCH   1  36
TORSDOF 10
ENDMDL
MODEL 9
REMARK VINA RESULT:      -8.3      2.091      7.022
REMARK  10 active torsions:
REMARK  status: ('A' for Active; 'I' for Inactive)
REMARK    1  A    between atoms: C_2  and  O_3 
REMARK    2  A    between atoms: O_3  and  C_4 
REMARK    3  A    between atoms: C_4  and  C_5 
REMARK    4  A    between atoms: C_7  and  N_8 
REMARK    5  A    between atoms: N_8  and  C_9 
REMARK    6  A    between atoms: C_9  and  N_10 
REMARK       I    between atoms: N_10  and  C_11 
REMARK    7  A    between atoms: C_11  and  C_12 
REMARK    8  A    between atoms: C_21  and  N_22 
REMARK    9  A    between atoms: N_25  and  C_27 
REMARK   10  A    between atoms: C_27  and  C_28 
ROOT
HETATM    1  C   UNL     1      43.100 -16.952   4.527  1.00  0.00     0.041 A 
HETATM    2  C   UNL     1      42.851 -15.679   5.057  1.00  0.00     0.049 A 
HETATM    3  C   UNL     1      42.211 -14.698   4.285  1.00  0.00     0.062 A 
HETATM    4  C   UNL     1      41.757 -15.004   2.978  1.00  0.00     0.057 A 
HETATM    5  C   UNL     1      42.020 -16.288   2.470  1.00  0.00     0.033 A 
HETATM    6  C   UNL     1      42.686 -17.252   3.229  1.00  0.00     0.020 A 
ENDROOT
BRANCH   3   7
HETATM    7  N   UNL     1      42.168 -13.342   4.706  1.00  0.00    -0.331 N 
HETATM    8  H   UNL     1      42.992 -12.827   4.426  1.00  0.00     0.168 HD
BRANCH   7   9
HETATM    9  C   UNL     1      41.512 -12.823   5.772  1.00  0.00     0.179 C 
HETATM   10  S   UNL     1      39.926 -13.267   6.051  1.00  0.00    -0.040 SA
BRANCH   9  11
HETATM   11  N   UNL     1      42.138 -11.996   6.655  1.00  0.00    -0.299 N 
HETATM   12  C   UNL     1      42.758 -10.787   6.340  1.00  0.00     0.258 C 
HETATM   13  O   UNL     1      42.584 -10.149   5.308  1.00  0.00    -0.267 OA
HETATM   14  H   UNL     1      42.498 -12.484   7.463  1.00  0.00     0.171 HD
BRANCH  12  15
HETATM   15  C   UNL     1      43.726 -10.293   7.372  1.00  0.00     0.038 A 
HETATM   16  C   UNL     1      45.091 -10.641   7.322  1.00  0.00    -0.046 A 
HETATM   17  C   UNL     1      45.662 -11.526   6.248  1.00  0.00     0.049 C 
HETATM   18  C   UNL     1      45.949 -10.165   8.329  1.00  0.00     0.007 A 
HETATM   19  C   UNL     1      45.469  -9.356   9.360  1.00  0.00     0.001 A 
HETATM   20  C   UNL     1      44.120  -9.025   9.414  1.00  0.00     0.001 A 
HETATM   21  C   UNL     1      43.249  -9.500   8.433  1.00  0.00     0.017 A 
ENDBRANCH  12  15
ENDBRANCH   9  11
ENDBRANCH   7   9
ENDBRANCH   3   7
BRANCH   4  22
HETATM   22  N   UNL     1      41.012 -14.132   2.190  1.00  0.00    -0.376 N 
HETATM   23  C   UNL     1      41.528 -13.696   0.885  1.00  0.00     0.150 C 
HETATM   24  C   UNL     1      41.111 -12.231   0.630  1.00  0.00     0.255 C 
HETATM   25  N   UNL     1      39.595 -12.061   0.805  1.00  0.00    -0.064 N 
HETATM   26  H   UNL     1      39.152 -12.664   0.103  1.00  0.00     0.280 HD
HETATM   27  C   UNL     1      39.141 -12.541   2.182  1.00  0.00     0.255 C 
HETATM   28  C   UNL     1      39.576 -13.999   2.434  1.00  0.00     0.150 C 
BRANCH  25  29
HETATM   29  C   UNL     1      39.136 -10.650   0.534  1.00  0.00     0.273 C 
BRANCH  29  30
HETATM   30  C   UNL     1      38.921 -10.378  -0.928  1.00  0.00    -0.033 A 
HETATM   31  C   UNL     1      39.844  -9.603  -1.649  1.00  0.00     0.009 A 
HETATM   32  C   UNL     1      39.633  -9.330  -3.001  1.00  0.00     0.001 A 
HETATM   33  C   UNL     1      38.502  -9.826  -3.645  1.00  0.00     0.000 A 
HETATM   34  C   UNL     1      37.583 -10.600  -2.942  1.00  0.00     0.001 A 
HETATM   35  C   UNL     1      37.789 -10.877  -1.590  1.00  0.00     0.009 A 
ENDBRANCH  29  30
ENDBRANCH  25  29
ENDBRANCH   4  22
BRANCH   1  36
HETATM   36  C   UNL     1      43.843 -17.930   5.365  1.00  0.00     0.293 C 
HETATM   37  O   UNL     1      43.856 -17.894   6.584  1.00  0.00    -0.259 OA
BRANCH  36  38
HETATM   38  O   UNL     1      44.520 -18.797   4.574  1.00  0.00    -0.318 OA
BRANCH  38  39
HETATM   39  C   UNL     1      44.297 -20.193   4.831  1.00  0.00     0.174 C 
HETATM   40  C   UNL     1      43.809 -20.876   3.570  1.00  0.00     0.034 C 
ENDBRANCH  38  39
ENDBRANCH  36  38
ENDBRANCH   1  36
TORSDOF 10
ENDMDL
MODEL 10
REMARK VINA RESULT:      -7.9      3.357      8.697
REMARK  10 active torsions:
REMARK  status: ('A' for Active; 'I' for Inactive)
REMARK    1  A    between atoms: C_2  and  O_3 
REMARK    2  A    between atoms: O_3  and  C_4 
REMARK    3  A    between atoms: C_4  and  C_5 
REMARK    4  A    between atoms: C_7  and  N_8 
REMARK    5  A    between atoms: N_8  and  C_9 
REMARK    6  A    between atoms: C_9  and  N_10 
REMARK       I    between atoms: N_10  and  C_11 
REMARK    7  A    between atoms: C_11  and  C_12 
REMARK    8  A    between atoms: C_21  and  N_22 
REMARK    9  A    between atoms: N_25  and  C_27 
REMARK   10  A    between atoms: C_27  and  C_28 
ROOT
HETATM    1  C   UNL     1      39.590 -11.187  -0.485  1.00  0.00     0.041 A 
HETATM    2  C   UNL     1      40.575 -10.907   0.472  1.00  0.00     0.049 A 
HETATM    3  C   UNL     1      41.104 -11.932   1.271  1.00  0.00     0.062 A 
HETATM    4  C   UNL     1      40.688 -13.273   1.077  1.00  0.00     0.057 A 
HETATM    5  C   UNL     1      39.699 -13.526   0.111  1.00  0.00     0.033 A 
HETATM    6  C   UNL     1      39.151 -12.500  -0.660  1.00  0.00     0.020 A 
ENDROOT
BRANCH   3   7
HETATM    7  N   UNL     1      41.913 -11.641   2.401  1.00  0.00    -0.331 N 
HETATM    8  H   UNL     1      42.760 -12.193   2.418  1.00  0.00     0.168 HD
BRANCH   7   9
HETATM    9  C   UNL     1      41.516 -11.178   3.611  1.00  0.00     0.179 C 
HETATM   10  S   UNL     1      39.890 -11.191   3.997  1.00  0.00    -0.040 SA
BRANCH   9  11
HETATM   11  N   UNL     1      42.419 -10.762   4.542  1.00  0.00    -0.299 N 
HETATM   12  C   UNL     1      42.657 -11.368   5.775  1.00  0.00     0.258 C 
HETATM   13  O   UNL     1      42.321 -12.507   6.082  1.00  0.00    -0.267 OA
HETATM   14  H   UNL     1      42.609  -9.771   4.488  1.00  0.00     0.171 HD
BRANCH  12  15
HETATM   15  C   UNL     1      43.358 -10.500   6.774  1.00  0.00     0.038 A 
HETATM   16  C   UNL     1      44.713 -10.709   7.104  1.00  0.00    -0.046 A 
HETATM   17  C   UNL     1      45.534 -11.809   6.489  1.00  0.00     0.049 C 
HETATM   18  C   UNL     1      45.313  -9.876   8.064  1.00  0.00     0.007 A 
HETATM   19  C   UNL     1      44.593  -8.852   8.679  1.00  0.00     0.001 A 
HETATM   20  C   UNL     1      43.254  -8.656   8.362  1.00  0.00     0.001 A 
HETATM   21  C   UNL     1      42.634  -9.481   7.424  1.00  0.00     0.017 A 
ENDBRANCH  12  15
ENDBRANCH   9  11
ENDBRANCH   7   9
ENDBRANCH   3   7
BRANCH   4  22
HETATM   22  N   UNL     1      41.244 -14.363   1.741  1.00  0.00    -0.376 N 
HETATM   23  C   UNL     1      40.504 -15.016   2.830  1.00  0.00     0.150 C 
HETATM   24  C   UNL     1      41.496 -15.492   3.913  1.00  0.00     0.255 C 
HETATM   25  N   UNL     1      42.607 -16.351   3.291  1.00  0.00    -0.064 N 
HETATM   26  H   UNL     1      42.144 -17.168   2.876  1.00  0.00     0.280 HD
HETATM   27  C   UNL     1      43.321 -15.602   2.167  1.00  0.00     0.255 C 
HETATM   28  C   UNL     1      42.320 -15.117   1.099  1.00  0.00     0.150 C 
BRANCH  25  29
HETATM   29  C   UNL     1      43.583 -16.866   4.318  1.00  0.00     0.273 C 
BRANCH  29  30
HETATM   30  C   UNL     1      43.737 -18.361   4.279  1.00  0.00    -0.033 A 
HETATM   31  C   UNL     1      43.645 -19.052   3.060  1.00  0.00     0.009 A 
HETATM   32  C   UNL     1      43.764 -20.441   3.026  1.00  0.00     0.001 A 
HETATM   33  C   UNL     1      43.975 -21.153   4.204  1.00  0.00     0.000 A 
HETATM   34  C   UNL     1      44.073 -20.478   5.418  1.00  0.00     0.001 A 
HETATM   35  C   UNL     1      43.955 -19.088   5.458  1.00  0.00     0.009 A 
ENDBRANCH  29  30
ENDBRANCH  25  29
ENDBRANCH   4  22
BRANCH   1  36
HETATM   36  C   UNL     1      39.016 -10.052  -1.256  1.00  0.00     0.293 C 
HETATM   37  O   UNL     1      38.484  -9.088  -0.732  1.00  0.00    -0.259 OA
BRANCH  36  38
HETATM   38  O   UNL     1      39.129 -10.293  -2.585  1.00  0.00    -0.318 OA
BRANCH  38  39
HETATM   39  C   UNL     1      40.459 -10.237  -3.125  1.00  0.00     0.174 C 
HETATM   40  C   UNL     1      40.949  -8.803  -3.138  1.00  0.00     0.034 C 
ENDBRANCH  38  39
ENDBRANCH  36  38
ENDBRANCH   1  36
TORSDOF 10
ENDMDL
